C360-P50
     RDKit          3D

 41 44  0  0  0  0  0  0  0  0999 V2000
   14.4113    0.6443   19.5310 O   0  0  0  0  0  0  0  0  0  0  0  0
   14.6216   -0.4606   19.2178 C   0  0  0  0  0  0  0  0  0  0  0  0
   14.3336   -1.2011   17.8799 N   0  0  0  0  0  0  0  0  0  0  0  0
   13.6812   -0.7809   16.7584 N   0  0  0  0  0  0  0  0  0  0  0  0
   12.9776   -1.6488   15.9628 C   0  0  0  0  0  0  0  0  0  0  0  0
   12.6610   -2.7997   16.2132 O   0  0  0  0  0  0  0  0  0  0  0  0
   12.6881   -1.0037   14.7787 N   0  0  0  0  0  0  0  0  0  0  0  0
   13.3628    0.2672   14.6947 C   0  0  0  0  0  0  0  0  0  0  0  0
   14.5307    0.2816   13.6806 C   0  0  0  0  0  0  0  0  0  0  0  0
   14.1610    1.2298   12.5306 C   0  0  0  0  0  0  0  0  0  0  0  0
   12.8945    1.8716   12.9905 C   0  0  0  0  0  0  0  0  0  0  0  0
   12.2035    2.8849   12.3436 C   0  0  0  0  0  0  0  0  0  0  0  0
   11.0714    3.4150   12.9600 C   0  0  0  0  0  0  0  0  0  0  0  0
   10.6324    2.9111   14.1916 C   0  0  0  0  0  0  0  0  0  0  0  0
   11.3182    1.8687   14.8207 C   0  0  0  0  0  0  0  0  0  0  0  0
   12.4595    1.3602   14.2158 C   0  0  0  0  0  0  0  0  0  0  0  0
   13.9409    0.4061   16.1116 C   0  0  0  0  0  0  0  0  0  0  0  0
   14.5817    1.3622   16.5237 O   0  0  0  0  0  0  0  0  0  0  0  0
   15.2051   -1.5478   20.1548 C   0  0  0  0  0  0  0  0  0  0  0  0
   15.9888   -0.9339   21.3223 C   0  0  0  0  0  0  0  0  0  0  0  0
   17.2894   -0.4396   20.9688 O   0  0  0  0  0  0  0  0  0  0  0  0
   17.8546   -1.0828   19.8243 C   0  0  0  0  0  0  0  0  0  0  0  0
   17.3462   -2.5106   19.6678 C   0  0  0  0  0  0  0  0  0  0  0  0
   15.9364   -2.5385   19.4062 O   0  0  0  0  0  0  0  0  0  0  0  0
   14.7240   -2.1450   17.9205 H   0  0  0  0  0  0  0  0  0  0  0  0
   12.2317   -1.4930   14.0195 H   0  0  0  0  0  0  0  0  0  0  0  0
   14.7757   -0.7168   13.3037 H   0  0  0  0  0  0  0  0  0  0  0  0
   15.4567    0.6503   14.1424 H   0  0  0  0  0  0  0  0  0  0  0  0
   14.9464    1.9780   12.3808 H   0  0  0  0  0  0  0  0  0  0  0  0
   14.0042    0.6930   11.5951 H   0  0  0  0  0  0  0  0  0  0  0  0
   12.5630    3.2926   11.4031 H   0  0  0  0  0  0  0  0  0  0  0  0
   10.5508    4.2543   12.5049 H   0  0  0  0  0  0  0  0  0  0  0  0
    9.7683    3.3564   14.6805 H   0  0  0  0  0  0  0  0  0  0  0  0
   10.9781    1.4933   15.7814 H   0  0  0  0  0  0  0  0  0  0  0  0
   14.3281   -2.0624   20.5668 H   0  0  0  0  0  0  0  0  0  0  0  0
   16.1501   -1.7015   22.0887 H   0  0  0  0  0  0  0  0  0  0  0  0
   15.4384   -0.1167   21.7996 H   0  0  0  0  0  0  0  0  0  0  0  0
   17.5959   -0.4827   18.9450 H   0  0  0  0  0  0  0  0  0  0  0  0
   18.9427   -1.0686   19.9371 H   0  0  0  0  0  0  0  0  0  0  0  0
   17.8463   -3.0082   18.8316 H   0  0  0  0  0  0  0  0  0  0  0  0
   17.5329   -3.0972   20.5743 H   0  0  0  0  0  0  0  0  0  0  0  0
  1  2  2  0
  2  3  1  0
  3  4  1  0
  4  5  1  0
  5  6  2  0
  5  7  1  0
  7  8  1  0
  8  9  1  0
  9 10  1  0
 10 11  1  0
 11 12  2  0
 12 13  1  0
 13 14  2  0
 14 15  1  0
 15 16  2  0
  8 17  1  0
 17 18  2  0
  2 19  1  0
 19 20  1  0
 20 21  1  0
 21 22  1  0
 22 23  1  0
 23 24  1  0
 17  4  1  0
 24 19  1  0
 16  8  1  0
 16 11  1  0
  3 25  1  0
  7 26  1  0
  9 27  1  0
  9 28  1  0
 10 29  1  0
 10 30  1  0
 12 31  1  0
 13 32  1  0
 14 33  1  0
 15 34  1  0
 19 35  1  0
 20 36  1  0
 20 37  1  0
 22 38  1  0
 22 39  1  0
 23 40  1  0
 23 41  1  0
M  END
>  <Energy>  (1) 
137.06360789711906

>  <compound_id>  (1) 
360

>  <target_id>  (1) 
1

>  <reference_id>  (1) 
50

>  <inspiration_ids>  (1) 
[50, 36]

>  <energy_score>  (1) 
-23.247735901833607

>  <distance_score>  (1) 
1.8908950314073243

>  <path>  (1) 
/opt/xchem-fragalysis-2/maxwin/BulkDock/SCRATCH/505733/C360-P50/C360-P50.minimised.mol

>  <scratch_subdir>  (1) 
/opt/xchem-fragalysis-2/maxwin/BulkDock/SCRATCH/505733/C360-P50

>  <fragmenstein_runtime>  (1) 
33.67151975631714

>  <fragmenstein_outcome>  (1) 
too moved

>  <fragmenstein_mode>  (1) 
expansion

>  <fragmenstein_error>  (1) 


$$$$
C360-P36
     RDKit          3D

 41 44  0  0  0  0  0  0  0  0999 V2000
   14.3554    0.5737   19.2299 O   0  0  0  0  0  0  0  0  0  0  0  0
   14.6446   -0.5109   18.9105 C   0  0  0  0  0  0  0  0  0  0  0  0
   14.3523   -1.2846   17.5948 N   0  0  0  0  0  0  0  0  0  0  0  0
   13.6099   -0.9343   16.5125 N   0  0  0  0  0  0  0  0  0  0  0  0
   12.6499   -1.7440   15.9635 C   0  0  0  0  0  0  0  0  0  0  0  0
   12.2458   -2.8195   16.3706 O   0  0  0  0  0  0  0  0  0  0  0  0
   12.1853   -1.1311   14.8171 N   0  0  0  0  0  0  0  0  0  0  0  0
   13.0247   -0.0144   14.4575 C   0  0  0  0  0  0  0  0  0  0  0  0
   13.9503   -0.3686   13.2721 C   0  0  0  0  0  0  0  0  0  0  0  0
   14.0574    0.8865   12.3959 C   0  0  0  0  0  0  0  0  0  0  0  0
   12.8094    1.6329   12.7502 C   0  0  0  0  0  0  0  0  0  0  0  0
   12.2712    2.7237   12.0868 C   0  0  0  0  0  0  0  0  0  0  0  0
   11.1796    3.3756   12.6600 C   0  0  0  0  0  0  0  0  0  0  0  0
   10.6454    2.9315   13.8782 C   0  0  0  0  0  0  0  0  0  0  0  0
   11.1749    1.8121   14.5251 C   0  0  0  0  0  0  0  0  0  0  0  0
   12.2607    1.1677   13.9512 C   0  0  0  0  0  0  0  0  0  0  0  0
   13.8540    0.1770   15.7369 C   0  0  0  0  0  0  0  0  0  0  0  0
   14.6380    1.0875   15.9616 O   0  0  0  0  0  0  0  0  0  0  0  0
   15.3720   -1.5327   19.8199 C   0  0  0  0  0  0  0  0  0  0  0  0
   16.1827   -0.8380   20.9217 C   0  0  0  0  0  0  0  0  0  0  0  0
   17.4095   -0.2462   20.4694 O   0  0  0  0  0  0  0  0  0  0  0  0
   17.9440   -0.8623   19.2953 C   0  0  0  0  0  0  0  0  0  0  0  0
   17.5452   -2.3296   19.1940 C   0  0  0  0  0  0  0  0  0  0  0  0
   16.1269   -2.4789   19.0385 O   0  0  0  0  0  0  0  0  0  0  0  0
   14.8254   -2.1899   17.6184 H   0  0  0  0  0  0  0  0  0  0  0  0
   11.5302   -1.5999   14.1988 H   0  0  0  0  0  0  0  0  0  0  0  0
   13.5105   -1.1784   12.6746 H   0  0  0  0  0  0  0  0  0  0  0  0
   14.9418   -0.7202   13.5806 H   0  0  0  0  0  0  0  0  0  0  0  0
   14.9364    1.4796   12.6691 H   0  0  0  0  0  0  0  0  0  0  0  0
   14.1005    0.6292   11.3339 H   0  0  0  0  0  0  0  0  0  0  0  0
   12.7209    3.0992   11.1720 H   0  0  0  0  0  0  0  0  0  0  0  0
   10.7757    4.2680   12.1862 H   0  0  0  0  0  0  0  0  0  0  0  0
    9.8315    3.4853   14.3418 H   0  0  0  0  0  0  0  0  0  0  0  0
   10.7645    1.4816   15.4747 H   0  0  0  0  0  0  0  0  0  0  0  0
   14.5658   -2.1039   20.2976 H   0  0  0  0  0  0  0  0  0  0  0  0
   16.4600   -1.5766   21.6834 H   0  0  0  0  0  0  0  0  0  0  0  0
   15.6022   -0.0597   21.4275 H   0  0  0  0  0  0  0  0  0  0  0  0
   17.5754   -0.3016   18.4293 H   0  0  0  0  0  0  0  0  0  0  0  0
   19.0324   -0.7575   19.3296 H   0  0  0  0  0  0  0  0  0  0  0  0
   18.0226   -2.7999   18.3293 H   0  0  0  0  0  0  0  0  0  0  0  0
   17.8456   -2.8820   20.0913 H   0  0  0  0  0  0  0  0  0  0  0  0
  1  2  2  0
  2  3  1  0
  3  4  1  0
  4  5  1  0
  5  6  2  0
  5  7  1  0
  7  8  1  0
  8  9  1  0
  9 10  1  0
 10 11  1  0
 11 12  2  0
 12 13  1  0
 13 14  2  0
 14 15  1  0
 15 16  2  0
  8 17  1  0
 17 18  2  0
  2 19  1  0
 19 20  1  0
 20 21  1  0
 21 22  1  0
 22 23  1  0
 23 24  1  0
 17  4  1  0
 24 19  1  0
 16  8  1  0
 16 11  1  0
  3 25  1  0
  7 26  1  0
  9 27  1  0
  9 28  1  0
 10 29  1  0
 10 30  1  0
 12 31  1  0
 13 32  1  0
 14 33  1  0
 15 34  1  0
 19 35  1  0
 20 36  1  0
 20 37  1  0
 22 38  1  0
 22 39  1  0
 23 40  1  0
 23 41  1  0
M  END
>  <Energy>  (2) 
134.29925125681183

>  <compound_id>  (2) 
360

>  <target_id>  (2) 
1

>  <reference_id>  (2) 
36

>  <inspiration_ids>  (2) 
[50, 36]

>  <energy_score>  (2) 
-26.01209254214099

>  <distance_score>  (2) 
1.8056319629117827

>  <path>  (2) 
/opt/xchem-fragalysis-2/maxwin/BulkDock/SCRATCH/505733/C360-P36/C360-P36.minimised.mol

>  <scratch_subdir>  (2) 
/opt/xchem-fragalysis-2/maxwin/BulkDock/SCRATCH/505733/C360-P36

>  <fragmenstein_runtime>  (2) 
32.87675213813782

>  <fragmenstein_outcome>  (2) 
too moved

>  <fragmenstein_mode>  (2) 
expansion

>  <fragmenstein_error>  (2) 


$$$$
C361-P50
     RDKit          3D

 44 47  0  0  0  0  0  0  0  0999 V2000
   13.6347    3.6129   16.4362 N   0  0  0  0  0  0  0  0  0  0  0  0
   15.1960    4.2306   16.3431 S   0  0  0  0  0  0  0  0  0  0  0  0
   15.6242    4.0438   14.9740 O   0  0  0  0  0  0  0  0  0  0  0  0
   15.1717    5.5430   16.9499 O   0  0  0  0  0  0  0  0  0  0  0  0
   16.1136    3.1413   17.3805 C   0  0  0  0  0  0  0  0  0  0  0  0
   16.5680    3.6028   18.6231 C   0  0  0  0  0  0  0  0  0  0  0  0
   17.3051    2.7540   19.4407 C   0  0  0  0  0  0  0  0  0  0  0  0
   17.5867    1.4625   19.0074 C   0  0  0  0  0  0  0  0  0  0  0  0
   17.1271    1.0177   17.7612 C   0  0  0  0  0  0  0  0  0  0  0  0
   16.3838    1.8480   16.9310 C   0  0  0  0  0  0  0  0  0  0  0  0
   15.8551    1.5034   15.7205 O   0  0  0  0  0  0  0  0  0  0  0  0
   15.9434    0.1958   15.1859 C   0  0  0  0  0  0  0  0  0  0  0  0
   17.1128    0.1189   14.4963 F   0  0  0  0  0  0  0  0  0  0  0  0
   14.7790   -0.0700   14.2050 C   0  0  0  0  0  0  0  0  0  0  0  0
   14.7015    0.9666   13.0499 C   0  0  0  0  0  0  0  0  0  0  0  0
   13.3416    1.5856   13.1822 C   0  0  0  0  0  0  0  0  0  0  0  0
   12.8242    2.6294   12.4277 C   0  0  0  0  0  0  0  0  0  0  0  0
   11.5717    3.1458   12.7637 C   0  0  0  0  0  0  0  0  0  0  0  0
   10.8471    2.6039   13.8314 C   0  0  0  0  0  0  0  0  0  0  0  0
   11.3502    1.5175   14.5509 C   0  0  0  0  0  0  0  0  0  0  0  0
   12.6077    1.0218   14.2237 C   0  0  0  0  0  0  0  0  0  0  0  0
   13.3749   -0.0859   14.8715 C   0  0  0  0  0  0  0  0  0  0  0  0
   12.7278   -1.3670   14.7100 N   0  0  0  0  0  0  0  0  0  0  0  0
   12.6621   -2.0561   15.8921 C   0  0  0  0  0  0  0  0  0  0  0  0
   12.0270   -3.0731   16.0816 O   0  0  0  0  0  0  0  0  0  0  0  0
   13.3152   -1.3475   16.8370 N   0  0  0  0  0  0  0  0  0  0  0  0
   13.4124   -0.0632   16.4047 C   0  0  0  0  0  0  0  0  0  0  0  0
   13.5246    0.9153   17.1277 O   0  0  0  0  0  0  0  0  0  0  0  0
   13.3411    3.3591   15.4922 H   0  0  0  0  0  0  0  0  0  0  0  0
   13.5760    2.7870   17.0478 H   0  0  0  0  0  0  0  0  0  0  0  0
   16.3494    4.6156   18.9558 H   0  0  0  0  0  0  0  0  0  0  0  0
   17.6628    3.0994   20.4076 H   0  0  0  0  0  0  0  0  0  0  0  0
   18.1718    0.7964   19.6380 H   0  0  0  0  0  0  0  0  0  0  0  0
   17.3954    0.0087   17.4620 H   0  0  0  0  0  0  0  0  0  0  0  0
   15.9599   -0.5817   15.9557 H   0  0  0  0  0  0  0  0  0  0  0  0
   14.9941   -1.0453   13.7457 H   0  0  0  0  0  0  0  0  0  0  0  0
   14.7864    0.4653   12.0806 H   0  0  0  0  0  0  0  0  0  0  0  0
   15.4840    1.7283   13.1209 H   0  0  0  0  0  0  0  0  0  0  0  0
   13.4078    3.0778   11.6274 H   0  0  0  0  0  0  0  0  0  0  0  0
   11.1849    4.0068   12.2228 H   0  0  0  0  0  0  0  0  0  0  0  0
    9.9022    3.0550   14.1241 H   0  0  0  0  0  0  0  0  0  0  0  0
   10.7798    1.1012   15.3766 H   0  0  0  0  0  0  0  0  0  0  0  0
   12.1855   -1.6741   13.9115 H   0  0  0  0  0  0  0  0  0  0  0  0
   13.2474   -1.6131   17.8027 H   0  0  0  0  0  0  0  0  0  0  0  0
  1  2  1  0
  2  3  2  0
  2  4  2  0
  2  5  1  0
  5  6  2  0
  6  7  1  0
  7  8  2  0
  8  9  1  0
  9 10  2  0
 10 11  1  0
 11 12  1  0
 12 13  1  0
 12 14  1  0
 14 15  1  0
 15 16  1  0
 16 17  2  0
 17 18  1  0
 18 19  2  0
 19 20  1  0
 20 21  2  0
 21 22  1  0
 22 23  1  0
 23 24  1  0
 24 25  2  0
 24 26  1  0
 26 27  1  0
 27 28  2  0
 10  5  1  0
 22 14  1  0
 21 16  1  0
 27 22  1  0
  1 29  1  0
  1 30  1  0
  6 31  1  0
  7 32  1  0
  8 33  1  0
  9 34  1  0
 12 35  1  0
 14 36  1  0
 15 37  1  0
 15 38  1  0
 17 39  1  0
 18 40  1  0
 19 41  1  0
 20 42  1  0
 23 43  1  0
 26 44  1  0
M  END
>  <Energy>  (3) 
-106.21297088562447

>  <compound_id>  (3) 
361

>  <target_id>  (3) 
1

>  <reference_id>  (3) 
50

>  <inspiration_ids>  (3) 
[50, 55]

>  <energy_score>  (3) 
-59.636117068588014

>  <distance_score>  (3) 
1.2920577898211578

>  <path>  (3) 
/opt/xchem-fragalysis-2/maxwin/BulkDock/SCRATCH/505733/C361-P50/C361-P50.minimised.mol

>  <scratch_subdir>  (3) 
/opt/xchem-fragalysis-2/maxwin/BulkDock/SCRATCH/505733/C361-P50

>  <fragmenstein_runtime>  (3) 
8.78941035270691

>  <fragmenstein_outcome>  (3) 
too moved

>  <fragmenstein_mode>  (3) 
expansion

>  <fragmenstein_error>  (3) 


$$$$
C361-P55
     RDKit          3D

 44 47  0  0  0  0  0  0  0  0999 V2000
   13.6075    3.5670   16.3831 N   0  0  0  0  0  0  0  0  0  0  0  0
   15.1691    4.1849   16.3086 S   0  0  0  0  0  0  0  0  0  0  0  0
   15.6038    4.0285   14.9380 O   0  0  0  0  0  0  0  0  0  0  0  0
   15.1446    5.4825   16.9465 O   0  0  0  0  0  0  0  0  0  0  0  0
   16.0818    3.0703   17.3209 C   0  0  0  0  0  0  0  0  0  0  0  0
   16.5533    3.5089   18.5657 C   0  0  0  0  0  0  0  0  0  0  0  0
   17.2906    2.6416   19.3630 C   0  0  0  0  0  0  0  0  0  0  0  0
   17.5557    1.3548   18.9070 C   0  0  0  0  0  0  0  0  0  0  0  0
   17.0788    0.9335   17.6589 C   0  0  0  0  0  0  0  0  0  0  0  0
   16.3335    1.7815   16.8479 C   0  0  0  0  0  0  0  0  0  0  0  0
   15.7880    1.4563   15.6368 O   0  0  0  0  0  0  0  0  0  0  0  0
   15.8747    0.1534   15.0877 C   0  0  0  0  0  0  0  0  0  0  0  0
   17.0485    0.0779   14.4054 F   0  0  0  0  0  0  0  0  0  0  0  0
   14.7161   -0.1155   14.0995 C   0  0  0  0  0  0  0  0  0  0  0  0
   14.6454    0.9033   12.9295 C   0  0  0  0  0  0  0  0  0  0  0  0
   13.3048    1.5600   13.0771 C   0  0  0  0  0  0  0  0  0  0  0  0
   12.8003    2.6067   12.3183 C   0  0  0  0  0  0  0  0  0  0  0  0
   11.5597    3.1480   12.6591 C   0  0  0  0  0  0  0  0  0  0  0  0
   10.8369    2.6309   13.7403 C   0  0  0  0  0  0  0  0  0  0  0  0
   11.3242    1.5398   14.4634 C   0  0  0  0  0  0  0  0  0  0  0  0
   12.5675    1.0160   14.1267 C   0  0  0  0  0  0  0  0  0  0  0  0
   13.3080   -0.1205   14.7551 C   0  0  0  0  0  0  0  0  0  0  0  0
   12.6367   -1.3849   14.5435 N   0  0  0  0  0  0  0  0  0  0  0  0
   12.5099   -2.0814   15.7189 C   0  0  0  0  0  0  0  0  0  0  0  0
   11.8019   -3.0525   15.8935 O   0  0  0  0  0  0  0  0  0  0  0  0
   13.1877   -1.4271   16.6852 N   0  0  0  0  0  0  0  0  0  0  0  0
   13.3351   -0.1364   16.2880 C   0  0  0  0  0  0  0  0  0  0  0  0
   13.4727    0.8193   17.0370 O   0  0  0  0  0  0  0  0  0  0  0  0
   13.3212    3.3239   15.4341 H   0  0  0  0  0  0  0  0  0  0  0  0
   13.5388    2.7382   16.9886 H   0  0  0  0  0  0  0  0  0  0  0  0
   16.3488    4.5190   18.9151 H   0  0  0  0  0  0  0  0  0  0  0  0
   17.6621    2.9692   20.3308 H   0  0  0  0  0  0  0  0  0  0  0  0
   18.1416    0.6737   19.5206 H   0  0  0  0  0  0  0  0  0  0  0  0
   17.3360   -0.0733   17.3430 H   0  0  0  0  0  0  0  0  0  0  0  0
   15.8852   -0.6296   15.8523 H   0  0  0  0  0  0  0  0  0  0  0  0
   14.9313   -1.0970   13.6524 H   0  0  0  0  0  0  0  0  0  0  0  0
   14.6908    0.3798   11.9679 H   0  0  0  0  0  0  0  0  0  0  0  0
   15.4512    1.6424   12.9723 H   0  0  0  0  0  0  0  0  0  0  0  0
   13.3827    3.0340   11.5056 H   0  0  0  0  0  0  0  0  0  0  0  0
   11.1822    4.0080   12.1101 H   0  0  0  0  0  0  0  0  0  0  0  0
    9.9068    3.1061   14.0395 H   0  0  0  0  0  0  0  0  0  0  0  0
   10.7516    1.1388   15.2948 H   0  0  0  0  0  0  0  0  0  0  0  0
   12.0230   -1.6043   13.7642 H   0  0  0  0  0  0  0  0  0  0  0  0
   13.0862   -1.7107   17.6432 H   0  0  0  0  0  0  0  0  0  0  0  0
  1  2  1  0
  2  3  2  0
  2  4  2  0
  2  5  1  0
  5  6  2  0
  6  7  1  0
  7  8  2  0
  8  9  1  0
  9 10  2  0
 10 11  1  0
 11 12  1  0
 12 13  1  0
 12 14  1  0
 14 15  1  0
 15 16  1  0
 16 17  2  0
 17 18  1  0
 18 19  2  0
 19 20  1  0
 20 21  2  0
 21 22  1  0
 22 23  1  0
 23 24  1  0
 24 25  2  0
 24 26  1  0
 26 27  1  0
 27 28  2  0
 10  5  1  0
 22 14  1  0
 21 16  1  0
 27 22  1  0
  1 29  1  0
  1 30  1  0
  6 31  1  0
  7 32  1  0
  8 33  1  0
  9 34  1  0
 12 35  1  0
 14 36  1  0
 15 37  1  0
 15 38  1  0
 17 39  1  0
 18 40  1  0
 19 41  1  0
 20 42  1  0
 23 43  1  0
 26 44  1  0
M  END
>  <Energy>  (4) 
-106.40994538369195

>  <compound_id>  (4) 
361

>  <target_id>  (4) 
1

>  <reference_id>  (4) 
55

>  <inspiration_ids>  (4) 
[50, 55]

>  <energy_score>  (4) 
-59.83309156665502

>  <distance_score>  (4) 
1.3120353231873174

>  <path>  (4) 
/opt/xchem-fragalysis-2/maxwin/BulkDock/SCRATCH/505733/C361-P55/C361-P55.minimised.mol

>  <scratch_subdir>  (4) 
/opt/xchem-fragalysis-2/maxwin/BulkDock/SCRATCH/505733/C361-P55

>  <fragmenstein_runtime>  (4) 
9.486700057983398

>  <fragmenstein_outcome>  (4) 
too moved

>  <fragmenstein_mode>  (4) 
expansion

>  <fragmenstein_error>  (4) 


$$$$
C364-P50
     RDKit          3D

 43 46  0  0  0  0  0  0  0  0999 V2000
   15.3831   -1.9626   21.6039 O   0  0  0  0  0  0  0  0  0  0  0  0
   15.2803   -2.4307   20.4741 C   0  0  0  0  0  0  0  0  0  0  0  0
   16.4082   -2.3535   19.4667 C   0  0  0  0  0  0  0  0  0  0  0  0
   16.3558   -3.4236   18.3854 C   0  0  0  0  0  0  0  0  0  0  0  0
   14.9472   -3.5674   17.8224 C   0  0  0  0  0  0  0  0  0  0  0  0
   14.5055   -2.3586   17.1610 N   0  0  0  0  0  0  0  0  0  0  0  0
   15.0686   -1.6295   16.0120 C   0  0  0  0  0  0  0  0  0  0  0  0
   16.0598   -1.8139   15.4042 O   0  0  0  0  0  0  0  0  0  0  0  0
   14.0654   -0.5721   15.8830 N   0  0  0  0  0  0  0  0  0  0  0  0
   13.0807   -0.9462   15.0119 C   0  0  0  0  0  0  0  0  0  0  0  0
   12.9180   -2.0666   14.5339 O   0  0  0  0  0  0  0  0  0  0  0  0
   12.0824   -0.0374   14.7938 N   0  0  0  0  0  0  0  0  0  0  0  0
   12.6966    1.2046   14.9287 C   0  0  0  0  0  0  0  0  0  0  0  0
   12.1789    1.9696   16.1499 C   0  0  0  0  0  0  0  0  0  0  0  0
   12.1537    3.4535   15.7714 C   0  0  0  0  0  0  0  0  0  0  0  0
   12.1000    3.4021   14.2775 C   0  0  0  0  0  0  0  0  0  0  0  0
   11.8333    4.4533   13.4184 C   0  0  0  0  0  0  0  0  0  0  0  0
   11.9947    4.2453   12.0499 C   0  0  0  0  0  0  0  0  0  0  0  0
   12.4416    3.0083   11.5657 C   0  0  0  0  0  0  0  0  0  0  0  0
   12.6920    1.9516   12.4401 C   0  0  0  0  0  0  0  0  0  0  0  0
   12.4911    2.1493   13.7954 C   0  0  0  0  0  0  0  0  0  0  0  0
   14.0448    0.5549   15.0889 C   0  0  0  0  0  0  0  0  0  0  0  0
   15.0769    1.1331   14.7365 O   0  0  0  0  0  0  0  0  0  0  0  0
   14.0064   -3.9213   18.9728 C   0  0  0  0  0  0  0  0  0  0  0  0
   14.0861   -2.9495   20.0449 N   0  0  0  0  0  0  0  0  0  0  0  0
   17.3576   -2.4378   20.0074 H   0  0  0  0  0  0  0  0  0  0  0  0
   16.3725   -1.3550   19.0153 H   0  0  0  0  0  0  0  0  0  0  0  0
   16.6716   -4.3839   18.8132 H   0  0  0  0  0  0  0  0  0  0  0  0
   17.0746   -3.1800   17.5949 H   0  0  0  0  0  0  0  0  0  0  0  0
   14.9388   -4.3613   17.0722 H   0  0  0  0  0  0  0  0  0  0  0  0
   13.6782   -1.8773   17.4869 H   0  0  0  0  0  0  0  0  0  0  0  0
   11.4663   -0.2685   14.0206 H   0  0  0  0  0  0  0  0  0  0  0  0
   12.7709    1.8048   17.0568 H   0  0  0  0  0  0  0  0  0  0  0  0
   11.1474    1.6638   16.3738 H   0  0  0  0  0  0  0  0  0  0  0  0
   13.0725    3.9544   16.0943 H   0  0  0  0  0  0  0  0  0  0  0  0
   11.2855    3.9612   16.2016 H   0  0  0  0  0  0  0  0  0  0  0  0
   11.5519    5.4318   13.7972 H   0  0  0  0  0  0  0  0  0  0  0  0
   11.8260    5.0662   11.3560 H   0  0  0  0  0  0  0  0  0  0  0  0
   12.6271    2.8815   10.5009 H   0  0  0  0  0  0  0  0  0  0  0  0
   13.0935    1.0160   12.0660 H   0  0  0  0  0  0  0  0  0  0  0  0
   14.2694   -4.8946   19.4006 H   0  0  0  0  0  0  0  0  0  0  0  0
   12.9699   -3.9634   18.6325 H   0  0  0  0  0  0  0  0  0  0  0  0
   13.3992   -2.9915   20.7950 H   0  0  0  0  0  0  0  0  0  0  0  0
  1  2  2  0
  2  3  1  0
  3  4  1  0
  4  5  1  0
  5  6  1  0
  6  7  1  0
  7  8  2  0
  7  9  1  0
  9 10  1  0
 10 11  2  0
 10 12  1  0
 12 13  1  0
 13 14  1  0
 14 15  1  0
 15 16  1  0
 16 17  2  0
 17 18  1  0
 18 19  2  0
 19 20  1  0
 20 21  2  0
 13 22  1  0
 22 23  2  0
  5 24  1  0
 24 25  1  0
 25  2  1  0
 22  9  1  0
 21 13  1  0
 21 16  1  0
  3 26  1  0
  3 27  1  0
  4 28  1  0
  4 29  1  0
  5 30  1  0
  6 31  1  0
 12 32  1  0
 14 33  1  0
 14 34  1  0
 15 35  1  0
 15 36  1  0
 17 37  1  0
 18 38  1  0
 19 39  1  0
 20 40  1  0
 24 41  1  0
 24 42  1  0
 25 43  1  0
M  END
>  <Energy>  (5) 
-7.2690968094125648

>  <compound_id>  (5) 
364

>  <target_id>  (5) 
1

>  <reference_id>  (5) 
50

>  <inspiration_ids>  (5) 
[50, 63]

>  <energy_score>  (5) 
11.275561569825644

>  <distance_score>  (5) 
3.492562300058298

>  <path>  (5) 
/opt/xchem-fragalysis-2/maxwin/BulkDock/SCRATCH/505733/C364-P50/C364-P50.minimised.mol

>  <scratch_subdir>  (5) 
/opt/xchem-fragalysis-2/maxwin/BulkDock/SCRATCH/505733/C364-P50

>  <fragmenstein_runtime>  (5) 
5.273480176925659

>  <fragmenstein_outcome>  (5) 
too moved

>  <fragmenstein_mode>  (5) 
expansion

>  <fragmenstein_error>  (5) 


$$$$
C364-P63
     RDKit          3D

 43 46  0  0  0  0  0  0  0  0999 V2000
   13.3902   -4.7033   20.4358 O   0  0  0  0  0  0  0  0  0  0  0  0
   13.8232   -4.4307   19.3220 C   0  0  0  0  0  0  0  0  0  0  0  0
   15.2740   -4.5891   18.9638 C   0  0  0  0  0  0  0  0  0  0  0  0
   15.7067   -3.6530   17.8537 C   0  0  0  0  0  0  0  0  0  0  0  0
   14.7409   -3.5836   16.6822 C   0  0  0  0  0  0  0  0  0  0  0  0
   14.3907   -2.2218   16.4441 N   0  0  0  0  0  0  0  0  0  0  0  0
   14.5840   -1.3530   15.2062 C   0  0  0  0  0  0  0  0  0  0  0  0
   15.1173   -1.5755   14.2263 O   0  0  0  0  0  0  0  0  0  0  0  0
   13.7798   -0.1573   15.6219 N   0  0  0  0  0  0  0  0  0  0  0  0
   12.4670   -0.3155   15.3154 C   0  0  0  0  0  0  0  0  0  0  0  0
   11.5844   -0.5912   16.1266 O   0  0  0  0  0  0  0  0  0  0  0  0
   12.1936   -0.2820   13.9729 N   0  0  0  0  0  0  0  0  0  0  0  0
   12.9076    0.8605   13.6092 C   0  0  0  0  0  0  0  0  0  0  0  0
   13.9049    0.7225   12.4694 C   0  0  0  0  0  0  0  0  0  0  0  0
   13.9340    2.1009   11.8040 C   0  0  0  0  0  0  0  0  0  0  0  0
   12.6177    2.6983   12.1919 C   0  0  0  0  0  0  0  0  0  0  0  0
   12.0405    3.8637   11.7344 C   0  0  0  0  0  0  0  0  0  0  0  0
   10.8698    4.3288   12.3351 C   0  0  0  0  0  0  0  0  0  0  0  0
   10.2917    3.6294   13.3897 C   0  0  0  0  0  0  0  0  0  0  0  0
   10.8684    2.4456   13.8349 C   0  0  0  0  0  0  0  0  0  0  0  0
   12.0316    1.9977   13.2283 C   0  0  0  0  0  0  0  0  0  0  0  0
   13.5465    1.0207   14.9773 C   0  0  0  0  0  0  0  0  0  0  0  0
   13.9713    2.0938   15.4094 O   0  0  0  0  0  0  0  0  0  0  0  0
   13.3856   -4.2527   16.9213 C   0  0  0  0  0  0  0  0  0  0  0  0
   13.0007   -4.0488   18.2937 N   0  0  0  0  0  0  0  0  0  0  0  0
   15.4646   -5.6302   18.6986 H   0  0  0  0  0  0  0  0  0  0  0  0
   15.8706   -4.3759   19.8587 H   0  0  0  0  0  0  0  0  0  0  0  0
   16.6953   -3.9634   17.4926 H   0  0  0  0  0  0  0  0  0  0  0  0
   15.8603   -2.6549   18.2877 H   0  0  0  0  0  0  0  0  0  0  0  0
   15.2111   -3.9713   15.7748 H   0  0  0  0  0  0  0  0  0  0  0  0
   13.7916   -1.7387   17.1093 H   0  0  0  0  0  0  0  0  0  0  0  0
   11.2193   -0.4099   13.7114 H   0  0  0  0  0  0  0  0  0  0  0  0
   14.9137    0.4373   12.7816 H   0  0  0  0  0  0  0  0  0  0  0  0
   13.5724   -0.0241   11.7412 H   0  0  0  0  0  0  0  0  0  0  0  0
   14.7505    2.7106   12.2061 H   0  0  0  0  0  0  0  0  0  0  0  0
   14.0414    2.0158   10.7185 H   0  0  0  0  0  0  0  0  0  0  0  0
   12.5116    4.4411   10.9424 H   0  0  0  0  0  0  0  0  0  0  0  0
   10.4337    5.2691   12.0029 H   0  0  0  0  0  0  0  0  0  0  0  0
    9.4137    4.0349   13.8876 H   0  0  0  0  0  0  0  0  0  0  0  0
   10.4443    1.9279   14.6919 H   0  0  0  0  0  0  0  0  0  0  0  0
   13.4175   -5.3195   16.7339 H   0  0  0  0  0  0  0  0  0  0  0  0
   12.5905   -3.8413   16.2879 H   0  0  0  0  0  0  0  0  0  0  0  0
   12.0230   -4.1293   18.5732 H   0  0  0  0  0  0  0  0  0  0  0  0
  1  2  2  0
  2  3  1  0
  3  4  1  0
  4  5  1  0
  5  6  1  0
  6  7  1  0
  7  8  2  0
  7  9  1  0
  9 10  1  0
 10 11  2  0
 10 12  1  0
 12 13  1  0
 13 14  1  0
 14 15  1  0
 15 16  1  0
 16 17  2  0
 17 18  1  0
 18 19  2  0
 19 20  1  0
 20 21  2  0
 13 22  1  0
 22 23  2  0
  5 24  1  0
 24 25  1  0
 25  2  1  0
 22  9  1  0
 21 13  1  0
 21 16  1  0
  3 26  1  0
  3 27  1  0
  4 28  1  0
  4 29  1  0
  5 30  1  0
  6 31  1  0
 12 32  1  0
 14 33  1  0
 14 34  1  0
 15 35  1  0
 15 36  1  0
 17 37  1  0
 18 38  1  0
 19 39  1  0
 20 40  1  0
 24 41  1  0
 24 42  1  0
 25 43  1  0
M  END
>  <Energy>  (6) 
12.199135294011878

>  <compound_id>  (6) 
364

>  <target_id>  (6) 
1

>  <reference_id>  (6) 
63

>  <inspiration_ids>  (6) 
[50, 63]

>  <energy_score>  (6) 
34.720699903649134

>  <distance_score>  (6) 
3.072476665945761

>  <path>  (6) 
/opt/xchem-fragalysis-2/maxwin/BulkDock/SCRATCH/505733/C364-P63/C364-P63.minimised.mol

>  <scratch_subdir>  (6) 
/opt/xchem-fragalysis-2/maxwin/BulkDock/SCRATCH/505733/C364-P63

>  <fragmenstein_runtime>  (6) 
3.229936361312866

>  <fragmenstein_outcome>  (6) 
too moved

>  <fragmenstein_mode>  (6) 
expansion

>  <fragmenstein_error>  (6) 


$$$$
C365-P50
     RDKit          3D

 43 45  0  0  0  0  0  0  0  0999 V2000
   17.1758   -4.7499   19.0738 C   0  0  0  0  0  0  0  0  0  0  0  0
   15.9066   -4.1254   19.6242 C   0  0  0  0  0  0  0  0  0  0  0  0
   14.5702   -4.1480   18.3847 S   0  0  0  0  0  0  0  0  0  0  0  0
   14.6536   -2.4052   17.7728 C   0  0  0  0  0  0  0  0  0  0  0  0
   15.9330   -2.1642   16.9535 C   0  0  0  0  0  0  0  0  0  0  0  0
   15.8243   -1.1623   15.8955 N   0  0  0  0  0  0  0  0  0  0  0  0
   15.2672    0.0491   16.4856 O   0  0  0  0  0  0  0  0  0  0  0  0
   13.8727    0.2483   16.1745 C   0  0  0  0  0  0  0  0  0  0  0  0
   13.4812    0.3468   14.6364 C   0  0  0  0  0  0  0  0  0  0  0  0
   12.8378   -0.9018   14.1877 N   0  0  0  0  0  0  0  0  0  0  0  0
   14.6752    0.7298   13.7215 C   0  0  0  0  0  0  0  0  0  0  0  0
   14.1154    1.4356   12.4843 C   0  0  0  0  0  0  0  0  0  0  0  0
   12.8707    2.0495   13.0370 C   0  0  0  0  0  0  0  0  0  0  0  0
   12.1001    3.0377   12.4469 C   0  0  0  0  0  0  0  0  0  0  0  0
   10.9703    3.4864   13.1275 C   0  0  0  0  0  0  0  0  0  0  0  0
   10.6124    2.9228   14.3614 C   0  0  0  0  0  0  0  0  0  0  0  0
   11.3779    1.9014   14.9333 C   0  0  0  0  0  0  0  0  0  0  0  0
   12.5215    1.4779   14.2722 C   0  0  0  0  0  0  0  0  0  0  0  0
   13.0001   -0.6490   16.9745 N   0  0  0  0  0  0  0  0  0  0  0  0
   13.3669   -2.0880   16.9729 C   0  0  0  0  0  0  0  0  0  0  0  0
   17.0079   -5.7845   18.7556 H   0  0  0  0  0  0  0  0  0  0  0  0
   17.5766   -4.1876   18.2257 H   0  0  0  0  0  0  0  0  0  0  0  0
   17.9476   -4.7658   19.8506 H   0  0  0  0  0  0  0  0  0  0  0  0
   15.5646   -4.7092   20.4849 H   0  0  0  0  0  0  0  0  0  0  0  0
   16.0932   -3.1065   19.9762 H   0  0  0  0  0  0  0  0  0  0  0  0
   14.6657   -1.7658   18.6641 H   0  0  0  0  0  0  0  0  0  0  0  0
   16.7516   -1.8826   17.6265 H   0  0  0  0  0  0  0  0  0  0  0  0
   16.2507   -3.0895   16.4581 H   0  0  0  0  0  0  0  0  0  0  0  0
   15.1418   -1.4752   15.1960 H   0  0  0  0  0  0  0  0  0  0  0  0
   13.6770    1.2480   16.5834 H   0  0  0  0  0  0  0  0  0  0  0  0
   12.1398   -1.1444   14.8959 H   0  0  0  0  0  0  0  0  0  0  0  0
   12.2956   -0.7037   13.3524 H   0  0  0  0  0  0  0  0  0  0  0  0
   15.2946   -0.1244   13.4278 H   0  0  0  0  0  0  0  0  0  0  0  0
   15.3338    1.4349   14.2490 H   0  0  0  0  0  0  0  0  0  0  0  0
   14.8156    2.1876   12.1088 H   0  0  0  0  0  0  0  0  0  0  0  0
   13.8732    0.7325   11.6873 H   0  0  0  0  0  0  0  0  0  0  0  0
   12.3890    3.4778   11.4972 H   0  0  0  0  0  0  0  0  0  0  0  0
   10.3785    4.3008   12.7159 H   0  0  0  0  0  0  0  0  0  0  0  0
    9.7374    3.2957   14.8898 H   0  0  0  0  0  0  0  0  0  0  0  0
   11.0819    1.4591   15.8793 H   0  0  0  0  0  0  0  0  0  0  0  0
   13.1497   -0.3238   17.9289 H   0  0  0  0  0  0  0  0  0  0  0  0
   12.5186   -2.5987   17.4386 H   0  0  0  0  0  0  0  0  0  0  0  0
   13.4203   -2.5189   15.9691 H   0  0  0  0  0  0  0  0  0  0  0  0
  1  2  1  0
  2  3  1  0
  3  4  1  0
  4  5  1  0
  5  6  1  0
  6  7  1  0
  7  8  1  0
  8  9  1  0
  9 10  1  0
  9 11  1  0
 11 12  1  0
 12 13  1  0
 13 14  2  0
 14 15  1  0
 15 16  2  0
 16 17  1  0
 17 18  2  0
  8 19  1  0
 19 20  1  0
 20  4  1  0
 18  9  1  0
 18 13  1  0
  1 21  1  0
  1 22  1  0
  1 23  1  0
  2 24  1  0
  2 25  1  0
  4 26  1  0
  5 27  1  0
  5 28  1  0
  6 29  1  0
  8 30  1  0
 10 31  1  0
 10 32  1  0
 11 33  1  0
 11 34  1  0
 12 35  1  0
 12 36  1  0
 14 37  1  0
 15 38  1  0
 16 39  1  0
 17 40  1  0
 19 41  1  0
 20 42  1  0
 20 43  1  0
M  END
>  <Energy>  (7) 
151.7268804433505

>  <compound_id>  (7) 
365

>  <target_id>  (7) 
1

>  <reference_id>  (7) 
50

>  <inspiration_ids>  (7) 
[50, 66]

>  <energy_score>  (7) 
-52.972161071552904

>  <distance_score>  (7) 
1.160155743062384

>  <path>  (7) 
/opt/xchem-fragalysis-2/maxwin/BulkDock/SCRATCH/505733/C365-P50/C365-P50.minimised.mol

>  <scratch_subdir>  (7) 
/opt/xchem-fragalysis-2/maxwin/BulkDock/SCRATCH/505733/C365-P50

>  <fragmenstein_runtime>  (7) 
3.521618604660034

>  <fragmenstein_outcome>  (7) 
too moved

>  <fragmenstein_mode>  (7) 
expansion

>  <fragmenstein_error>  (7) 


$$$$
C365-P66
     RDKit          3D

 43 45  0  0  0  0  0  0  0  0999 V2000
   18.0564   -5.9706   18.4403 C   0  0  0  0  0  0  0  0  0  0  0  0
   17.3363   -4.6337   18.4239 C   0  0  0  0  0  0  0  0  0  0  0  0
   16.5715   -4.3654   16.7941 S   0  0  0  0  0  0  0  0  0  0  0  0
   15.6474   -2.8101   17.1386 C   0  0  0  0  0  0  0  0  0  0  0  0
   16.5950   -1.5974   17.2049 C   0  0  0  0  0  0  0  0  0  0  0  0
   15.8669   -0.3166   17.2970 N   0  0  0  0  0  0  0  0  0  0  0  0
   15.4841   -0.0244   15.9033 O   0  0  0  0  0  0  0  0  0  0  0  0
   14.0747   -0.2439   15.7103 C   0  0  0  0  0  0  0  0  0  0  0  0
   13.5964   -0.1663   14.1867 C   0  0  0  0  0  0  0  0  0  0  0  0
   12.7633   -1.3448   13.8111 N   0  0  0  0  0  0  0  0  0  0  0  0
   14.8037   -0.0586   13.2182 C   0  0  0  0  0  0  0  0  0  0  0  0
   14.2889    0.5739   11.9233 C   0  0  0  0  0  0  0  0  0  0  0  0
   13.1894    1.4484   12.4404 C   0  0  0  0  0  0  0  0  0  0  0  0
   12.5283    2.4605   11.7573 C   0  0  0  0  0  0  0  0  0  0  0  0
   11.4906    3.1362   12.4001 C   0  0  0  0  0  0  0  0  0  0  0  0
   11.1210    2.7832   13.7023 C   0  0  0  0  0  0  0  0  0  0  0  0
   11.7836    1.7469   14.3695 C   0  0  0  0  0  0  0  0  0  0  0  0
   12.8251    1.0782   13.7427 C   0  0  0  0  0  0  0  0  0  0  0  0
   13.6380   -1.5080   16.3791 N   0  0  0  0  0  0  0  0  0  0  0  0
   14.5341   -2.6424   16.0790 C   0  0  0  0  0  0  0  0  0  0  0  0
   17.3668   -6.8018   18.2576 H   0  0  0  0  0  0  0  0  0  0  0  0
   18.8538   -6.0076   17.6903 H   0  0  0  0  0  0  0  0  0  0  0  0
   18.5168   -6.1330   19.4205 H   0  0  0  0  0  0  0  0  0  0  0  0
   16.5606   -4.6260   19.1956 H   0  0  0  0  0  0  0  0  0  0  0  0
   18.0492   -3.8308   18.6312 H   0  0  0  0  0  0  0  0  0  0  0  0
   15.1615   -2.9379   18.1148 H   0  0  0  0  0  0  0  0  0  0  0  0
   17.2758   -1.5760   16.3438 H   0  0  0  0  0  0  0  0  0  0  0  0
   17.2213   -1.6796   18.1003 H   0  0  0  0  0  0  0  0  0  0  0  0
   16.5437    0.4334   17.4600 H   0  0  0  0  0  0  0  0  0  0  0  0
   13.5904    0.5839   16.2296 H   0  0  0  0  0  0  0  0  0  0  0  0
   12.6523   -1.8971   14.6697 H   0  0  0  0  0  0  0  0  0  0  0  0
   11.8075   -1.0476   13.6035 H   0  0  0  0  0  0  0  0  0  0  0  0
   15.2959   -1.0208   13.0362 H   0  0  0  0  0  0  0  0  0  0  0  0
   15.5694    0.6166   13.6247 H   0  0  0  0  0  0  0  0  0  0  0  0
   15.0726    1.1470   11.4196 H   0  0  0  0  0  0  0  0  0  0  0  0
   13.9014   -0.1921   11.2518 H   0  0  0  0  0  0  0  0  0  0  0  0
   12.8188    2.7263   10.7449 H   0  0  0  0  0  0  0  0  0  0  0  0
   10.9863    3.9545   11.8926 H   0  0  0  0  0  0  0  0  0  0  0  0
   10.3232    3.3238   14.2058 H   0  0  0  0  0  0  0  0  0  0  0  0
   11.4686    1.4701   15.3605 H   0  0  0  0  0  0  0  0  0  0  0  0
   13.8040   -1.2966   17.3669 H   0  0  0  0  0  0  0  0  0  0  0  0
   13.9019   -3.5381   16.0981 H   0  0  0  0  0  0  0  0  0  0  0  0
   14.9621   -2.5695   15.0726 H   0  0  0  0  0  0  0  0  0  0  0  0
  1  2  1  0
  2  3  1  0
  3  4  1  0
  4  5  1  0
  5  6  1  0
  6  7  1  0
  7  8  1  0
  8  9  1  0
  9 10  1  0
  9 11  1  0
 11 12  1  0
 12 13  1  0
 13 14  2  0
 14 15  1  0
 15 16  2  0
 16 17  1  0
 17 18  2  0
  8 19  1  0
 19 20  1  0
 20  4  1  0
 18  9  1  0
 18 13  1  0
  1 21  1  0
  1 22  1  0
  1 23  1  0
  2 24  1  0
  2 25  1  0
  4 26  1  0
  5 27  1  0
  5 28  1  0
  6 29  1  0
  8 30  1  0
 10 31  1  0
 10 32  1  0
 11 33  1  0
 11 34  1  0
 12 35  1  0
 12 36  1  0
 14 37  1  0
 15 38  1  0
 16 39  1  0
 17 40  1  0
 19 41  1  0
 20 42  1  0
 20 43  1  0
M  END
>  <Energy>  (8) 
140.61812701005263

>  <compound_id>  (8) 
365

>  <target_id>  (8) 
1

>  <reference_id>  (8) 
66

>  <inspiration_ids>  (8) 
[50, 66]

>  <energy_score>  (8) 
-64.0809145048519

>  <distance_score>  (8) 
1.2573977213944163

>  <path>  (8) 
/opt/xchem-fragalysis-2/maxwin/BulkDock/SCRATCH/505733/C365-P66/C365-P66.minimised.mol

>  <scratch_subdir>  (8) 
/opt/xchem-fragalysis-2/maxwin/BulkDock/SCRATCH/505733/C365-P66

>  <fragmenstein_runtime>  (8) 
3.3776371479034424

>  <fragmenstein_outcome>  (8) 
too moved

>  <fragmenstein_mode>  (8) 
expansion

>  <fragmenstein_error>  (8) 


$$$$
C42-P50
     RDKit          3D

 25 27  0  0  0  0  0  0  0  0999 V2000
   15.3198   -2.5750   15.9210 O   0  0  0  0  0  0  0  0  0  0  0  0
   14.4205   -2.0149   15.3211 C   0  0  0  0  0  0  0  0  0  0  0  0
   13.1792   -2.5143   15.1489 N   0  0  0  0  0  0  0  0  0  0  0  0
   12.3138   -1.4792   15.2009 C   0  0  0  0  0  0  0  0  0  0  0  0
   11.1521   -1.6236   15.5509 O   0  0  0  0  0  0  0  0  0  0  0  0
   13.1223   -0.1688   15.0121 C   0  0  0  0  0  0  0  0  0  0  0  0
   13.0107    0.6321   16.3156 C   0  0  0  0  0  0  0  0  0  0  0  0
   11.7384    1.4671   16.1462 C   0  0  0  0  0  0  0  0  0  0  0  0
   11.7985    1.7791   14.6936 C   0  0  0  0  0  0  0  0  0  0  0  0
   11.1643    2.8355   14.0627 C   0  0  0  0  0  0  0  0  0  0  0  0
   11.4400    3.0461   12.7218 C   0  0  0  0  0  0  0  0  0  0  0  0
   12.3429    2.2080   12.0562 C   0  0  0  0  0  0  0  0  0  0  0  0
   12.9577    1.1292   12.7148 C   0  0  0  0  0  0  0  0  0  0  0  0
   12.6422    0.8750   14.0335 C   0  0  0  0  0  0  0  0  0  0  0  0
   14.4483   -0.7081   14.8622 N   0  0  0  0  0  0  0  0  0  0  0  0
   12.9021   -3.3995   15.5420 H   0  0  0  0  0  0  0  0  0  0  0  0
   13.8748    1.3033   16.4333 H   0  0  0  0  0  0  0  0  0  0  0  0
   12.9740    0.0066   17.2136 H   0  0  0  0  0  0  0  0  0  0  0  0
   11.7669    2.3649   16.7704 H   0  0  0  0  0  0  0  0  0  0  0  0
   10.8255    0.8973   16.3419 H   0  0  0  0  0  0  0  0  0  0  0  0
   10.5178    3.5123   14.6130 H   0  0  0  0  0  0  0  0  0  0  0  0
   11.0073    3.8972   12.2027 H   0  0  0  0  0  0  0  0  0  0  0  0
   12.5996    2.4091   11.0177 H   0  0  0  0  0  0  0  0  0  0  0  0
   13.6929    0.5226   12.1963 H   0  0  0  0  0  0  0  0  0  0  0  0
   15.2683   -0.1671   15.1034 H   0  0  0  0  0  0  0  0  0  0  0  0
  1  2  2  0
  2  3  1  0
  3  4  1  0
  4  5  2  0
  4  6  1  0
  6  7  1  0
  7  8  1  0
  8  9  1  0
  9 10  2  0
 10 11  1  0
 11 12  2  0
 12 13  1  0
 13 14  2  0
  6 15  1  0
 15  2  1  0
 14  6  1  0
 14  9  1  0
  3 16  1  0
  7 17  1  0
  7 18  1  0
  8 19  1  0
  8 20  1  0
 10 21  1  0
 11 22  1  0
 12 23  1  0
 13 24  1  0
 15 25  1  0
M  END
>  <Energy>  (9) 
-28.036199513736744

>  <compound_id>  (9) 
42

>  <target_id>  (9) 
1

>  <reference_id>  (9) 
50

>  <inspiration_ids>  (9) 
[50, 76]

>  <energy_score>  (9) 
-28.23437444242935

>  <distance_score>  (9) 
2.2815159732199177

>  <path>  (9) 
/opt/xchem-fragalysis-2/maxwin/BulkDock/SCRATCH/505733/C42-P50/C42-P50.minimised.mol

>  <scratch_subdir>  (9) 
/opt/xchem-fragalysis-2/maxwin/BulkDock/SCRATCH/505733/C42-P50

>  <fragmenstein_runtime>  (9) 
3.718365430831909

>  <fragmenstein_outcome>  (9) 
too moved

>  <fragmenstein_mode>  (9) 
expansion

>  <fragmenstein_error>  (9) 


$$$$
C42-P76
     RDKit          3D

 25 27  0  0  0  0  0  0  0  0999 V2000
   14.6872   -2.0937   17.1112 O   0  0  0  0  0  0  0  0  0  0  0  0
   14.0549   -1.8813   16.0945 C   0  0  0  0  0  0  0  0  0  0  0  0
   13.1275   -2.7027   15.5770 N   0  0  0  0  0  0  0  0  0  0  0  0
   12.7086   -2.2456   14.3684 C   0  0  0  0  0  0  0  0  0  0  0  0
   11.8723   -2.8600   13.7339 O   0  0  0  0  0  0  0  0  0  0  0  0
   13.5286   -0.9969   13.9950 C   0  0  0  0  0  0  0  0  0  0  0  0
   14.7102   -1.1925   13.0359 C   0  0  0  0  0  0  0  0  0  0  0  0
   15.1922    0.2516   12.7525 C   0  0  0  0  0  0  0  0  0  0  0  0
   13.8922    0.9950   12.7585 C   0  0  0  0  0  0  0  0  0  0  0  0
   13.6152    2.2566   12.2523 C   0  0  0  0  0  0  0  0  0  0  0  0
   12.2980    2.7074   12.2312 C   0  0  0  0  0  0  0  0  0  0  0  0
   11.2845    1.8598   12.6535 C   0  0  0  0  0  0  0  0  0  0  0  0
   11.5860    0.5881   13.1537 C   0  0  0  0  0  0  0  0  0  0  0  0
   12.9014    0.2021   13.3277 C   0  0  0  0  0  0  0  0  0  0  0  0
   14.1141   -0.7503   15.3119 N   0  0  0  0  0  0  0  0  0  0  0  0
   12.8337   -3.5707   15.9926 H   0  0  0  0  0  0  0  0  0  0  0  0
   14.3713   -1.6678   12.1041 H   0  0  0  0  0  0  0  0  0  0  0  0
   15.5185   -1.8136   13.4384 H   0  0  0  0  0  0  0  0  0  0  0  0
   15.6949    0.3078   11.7826 H   0  0  0  0  0  0  0  0  0  0  0  0
   15.8567    0.6245   13.5383 H   0  0  0  0  0  0  0  0  0  0  0  0
   14.4115    2.8795   11.8546 H   0  0  0  0  0  0  0  0  0  0  0  0
   12.0698    3.7017   11.8591 H   0  0  0  0  0  0  0  0  0  0  0  0
   10.2633    2.2029   12.6668 H   0  0  0  0  0  0  0  0  0  0  0  0
   10.7846   -0.0507   13.5110 H   0  0  0  0  0  0  0  0  0  0  0  0
   14.8107   -0.0421   15.4984 H   0  0  0  0  0  0  0  0  0  0  0  0
  1  2  2  0
  2  3  1  0
  3  4  1  0
  4  5  2  0
  4  6  1  0
  6  7  1  0
  7  8  1  0
  8  9  1  0
  9 10  2  0
 10 11  1  0
 11 12  2  0
 12 13  1  0
 13 14  2  0
  6 15  1  0
 15  2  1  0
 14  6  1  0
 14  9  1  0
  3 16  1  0
  7 17  1  0
  7 18  1  0
  8 19  1  0
  8 20  1  0
 10 21  1  0
 11 22  1  0
 12 23  1  0
 13 24  1  0
 15 25  1  0
M  END
>  <Energy>  (10) 
-24.443894162334466

>  <compound_id>  (10) 
42

>  <target_id>  (10) 
1

>  <reference_id>  (10) 
76

>  <inspiration_ids>  (10) 
[50, 76]

>  <energy_score>  (10) 
-24.642069091027807

>  <distance_score>  (10) 
2.514068516370255

>  <path>  (10) 
/opt/xchem-fragalysis-2/maxwin/BulkDock/SCRATCH/505733/C42-P76/C42-P76.minimised.mol

>  <scratch_subdir>  (10) 
/opt/xchem-fragalysis-2/maxwin/BulkDock/SCRATCH/505733/C42-P76

>  <fragmenstein_runtime>  (10) 
3.9280128479003906

>  <fragmenstein_outcome>  (10) 
too moved

>  <fragmenstein_mode>  (10) 
expansion

>  <fragmenstein_error>  (10) 


$$$$
C366-P50
     RDKit          3D

 55 58  0  0  0  0  0  0  0  0999 V2000
   15.1110   -3.8366   19.2954 C   0  0  0  0  0  0  0  0  0  0  0  0
   14.2176   -2.9780   18.3850 C   0  0  0  0  0  0  0  0  0  0  0  0
   13.5253   -3.8763   17.3648 C   0  0  0  0  0  0  0  0  0  0  0  0
   12.7542   -3.1373   16.2780 C   0  0  0  0  0  0  0  0  0  0  0  0
   13.2056   -1.7015   16.0614 C   0  0  0  0  0  0  0  0  0  0  0  0
   12.6622   -1.1781   14.7913 N   0  0  0  0  0  0  0  0  0  0  0  0
   12.2069    0.2266   14.8933 C   0  0  0  0  0  0  0  0  0  0  0  0
   11.1375    0.6990   13.8653 C   0  0  0  0  0  0  0  0  0  0  0  0
   11.2587    2.1952   13.9604 C   0  0  0  0  0  0  0  0  0  0  0  0
   10.3563    3.2057   13.7001 C   0  0  0  0  0  0  0  0  0  0  0  0
   10.7355    4.5356   13.8342 C   0  0  0  0  0  0  0  0  0  0  0  0
   12.0203    4.8544   14.2552 C   0  0  0  0  0  0  0  0  0  0  0  0
   12.9216    3.8516   14.5703 C   0  0  0  0  0  0  0  0  0  0  0  0
   12.5155    2.5353   14.4397 C   0  0  0  0  0  0  0  0  0  0  0  0
   13.2882    1.3199   14.8325 C   0  0  0  0  0  0  0  0  0  0  0  0
   13.9092    1.4924   16.1045 N   0  0  0  0  0  0  0  0  0  0  0  0
   15.2550    1.6104   15.9690 C   0  0  0  0  0  0  0  0  0  0  0  0
   15.9808    1.9603   16.8788 O   0  0  0  0  0  0  0  0  0  0  0  0
   15.5995    1.3466   14.6879 N   0  0  0  0  0  0  0  0  0  0  0  0
   14.4931    1.1590   13.9154 C   0  0  0  0  0  0  0  0  0  0  0  0
   14.4844    0.9926   12.7039 O   0  0  0  0  0  0  0  0  0  0  0  0
   14.6461   -1.5245   16.2987 N   0  0  0  0  0  0  0  0  0  0  0  0
   15.9266   -2.0758   15.3295 S   0  0  0  0  0  0  0  0  0  0  0  0
   15.3681   -2.1325   13.6658 C   0  0  0  0  0  0  0  0  0  0  0  0
   16.9672   -1.0676   15.4087 O   0  0  0  0  0  0  0  0  0  0  0  0
   16.2431   -3.4277   15.7435 O   0  0  0  0  0  0  0  0  0  0  0  0
   15.0168   -1.8123   17.7587 C   0  0  0  0  0  0  0  0  0  0  0  0
   15.0757   -0.5555   18.6386 C   0  0  0  0  0  0  0  0  0  0  0  0
   13.8723    0.2012   18.6360 O   0  0  0  0  0  0  0  0  0  0  0  0
   14.5241   -4.6237   19.7815 H   0  0  0  0  0  0  0  0  0  0  0  0
   15.9140   -4.3188   18.7274 H   0  0  0  0  0  0  0  0  0  0  0  0
   15.5685   -3.2292   20.0829 H   0  0  0  0  0  0  0  0  0  0  0  0
   13.4576   -2.5826   19.0448 H   0  0  0  0  0  0  0  0  0  0  0  0
   12.8455   -4.5570   17.8832 H   0  0  0  0  0  0  0  0  0  0  0  0
   14.2780   -4.5182   16.9071 H   0  0  0  0  0  0  0  0  0  0  0  0
   11.6892   -3.1323   16.5385 H   0  0  0  0  0  0  0  0  0  0  0  0
   12.7906   -3.6946   15.3430 H   0  0  0  0  0  0  0  0  0  0  0  0
   12.7023   -1.1514   16.8659 H   0  0  0  0  0  0  0  0  0  0  0  0
   11.8628   -1.7523   14.5210 H   0  0  0  0  0  0  0  0  0  0  0  0
   11.6780    0.3226   15.8570 H   0  0  0  0  0  0  0  0  0  0  0  0
   11.3872    0.3956   12.8509 H   0  0  0  0  0  0  0  0  0  0  0  0
   10.1444    0.3326   14.1354 H   0  0  0  0  0  0  0  0  0  0  0  0
    9.3259    3.0358   13.4783 H   0  0  0  0  0  0  0  0  0  0  0  0
   10.0219    5.3332   13.6382 H   0  0  0  0  0  0  0  0  0  0  0  0
   12.3113    5.8968   14.3661 H   0  0  0  0  0  0  0  0  0  0  0  0
   13.9105    4.1102   14.9398 H   0  0  0  0  0  0  0  0  0  0  0  0
   13.4522    1.6802   16.9861 H   0  0  0  0  0  0  0  0  0  0  0  0
   16.5542    1.3128   14.3718 H   0  0  0  0  0  0  0  0  0  0  0  0
   15.0713   -1.1507   13.3414 H   0  0  0  0  0  0  0  0  0  0  0  0
   14.5516   -2.8420   13.5985 H   0  0  0  0  0  0  0  0  0  0  0  0
   16.2077   -2.4475   13.0443 H   0  0  0  0  0  0  0  0  0  0  0  0
   16.0665   -2.1385   17.7826 H   0  0  0  0  0  0  0  0  0  0  0  0
   15.8945    0.0843   18.3055 H   0  0  0  0  0  0  0  0  0  0  0  0
   15.2921   -0.8296   19.6769 H   0  0  0  0  0  0  0  0  0  0  0  0
   14.1054    1.0252   19.1069 H   0  0  0  0  0  0  0  0  0  0  0  0
  1  2  1  0
  2  3  1  0
  3  4  1  0
  4  5  1  0
  5  6  1  0
  6  7  1  0
  7  8  1  0
  8  9  1  0
  9 10  2  0
 10 11  1  0
 11 12  2  0
 12 13  1  0
 13 14  2  0
 14 15  1  0
 15 16  1  0
 16 17  1  0
 17 18  2  0
 17 19  1  0
 19 20  1  0
 20 21  2  0
  5 22  1  0
 22 23  1  0
 23 24  1  0
 23 25  2  0
 23 26  2  0
 22 27  1  0
 27 28  1  0
 28 29  1  0
 27  2  1  0
 15  7  1  0
 14  9  1  0
 20 15  1  0
  1 30  1  0
  1 31  1  0
  1 32  1  0
  2 33  1  0
  3 34  1  0
  3 35  1  0
  4 36  1  0
  4 37  1  0
  5 38  1  0
  6 39  1  0
  7 40  1  0
  8 41  1  0
  8 42  1  0
 10 43  1  0
 11 44  1  0
 12 45  1  0
 13 46  1  0
 16 47  1  0
 19 48  1  0
 24 49  1  0
 24 50  1  0
 24 51  1  0
 27 52  1  0
 28 53  1  0
 28 54  1  0
 29 55  1  0
M  END
>  <Energy>  (11) 
-48.287288594844355

>  <compound_id>  (11) 
366

>  <target_id>  (11) 
1

>  <reference_id>  (11) 
50

>  <inspiration_ids>  (11) 
[50, 80]

>  <energy_score>  (11) 
-100.8888371198368

>  <distance_score>  (11) 
2.3543408014149967

>  <path>  (11) 
/opt/xchem-fragalysis-2/maxwin/BulkDock/SCRATCH/505733/C366-P50/C366-P50.minimised.mol

>  <scratch_subdir>  (11) 
/opt/xchem-fragalysis-2/maxwin/BulkDock/SCRATCH/505733/C366-P50

>  <fragmenstein_runtime>  (11) 
3.2684829235076904

>  <fragmenstein_outcome>  (11) 
too moved

>  <fragmenstein_mode>  (11) 
expansion

>  <fragmenstein_error>  (11) 


$$$$
C366-P80
     RDKit          3D

 55 58  0  0  0  0  0  0  0  0999 V2000
   16.5494   -3.7049   15.3947 C   0  0  0  0  0  0  0  0  0  0  0  0
   15.4638   -2.7042   15.7784 C   0  0  0  0  0  0  0  0  0  0  0  0
   14.4988   -3.2961   16.8044 C   0  0  0  0  0  0  0  0  0  0  0  0
   13.5502   -2.2060   17.3051 C   0  0  0  0  0  0  0  0  0  0  0  0
   13.0635   -1.2097   16.2279 C   0  0  0  0  0  0  0  0  0  0  0  0
   13.7098    0.0909   16.2575 N   0  0  0  0  0  0  0  0  0  0  0  0
   12.8724    1.2011   15.7041 C   0  0  0  0  0  0  0  0  0  0  0  0
   12.1841    1.0830   14.3476 C   0  0  0  0  0  0  0  0  0  0  0  0
   11.8257    2.4826   14.0054 C   0  0  0  0  0  0  0  0  0  0  0  0
   10.9435    2.8966   13.0378 C   0  0  0  0  0  0  0  0  0  0  0  0
   10.6651    4.2479   12.9686 C   0  0  0  0  0  0  0  0  0  0  0  0
   11.3271    5.1376   13.8274 C   0  0  0  0  0  0  0  0  0  0  0  0
   12.3045    4.7032   14.7264 C   0  0  0  0  0  0  0  0  0  0  0  0
   12.5521    3.3607   14.7999 C   0  0  0  0  0  0  0  0  0  0  0  0
   13.5710    2.5853   15.5501 C   0  0  0  0  0  0  0  0  0  0  0  0
   13.9945    2.9933   16.8526 N   0  0  0  0  0  0  0  0  0  0  0  0
   15.2451    2.4262   17.0024 C   0  0  0  0  0  0  0  0  0  0  0  0
   15.6015    1.8886   18.0329 O   0  0  0  0  0  0  0  0  0  0  0  0
   15.8558    2.3846   15.7946 N   0  0  0  0  0  0  0  0  0  0  0  0
   14.9087    2.4652   14.8200 C   0  0  0  0  0  0  0  0  0  0  0  0
   15.1062    2.3576   13.6203 O   0  0  0  0  0  0  0  0  0  0  0  0
   13.2669   -1.8408   14.9515 N   0  0  0  0  0  0  0  0  0  0  0  0
   11.9683   -2.2078   13.9810 S   0  0  0  0  0  0  0  0  0  0  0  0
   10.6297   -2.3975   15.1298 C   0  0  0  0  0  0  0  0  0  0  0  0
   12.1110   -3.4830   13.3459 O   0  0  0  0  0  0  0  0  0  0  0  0
   11.7603   -1.0517   13.1598 O   0  0  0  0  0  0  0  0  0  0  0  0
   14.6854   -2.1303   14.5489 C   0  0  0  0  0  0  0  0  0  0  0  0
   15.4336   -0.9580   13.8863 C   0  0  0  0  0  0  0  0  0  0  0  0
   16.0740   -0.1338   14.8539 O   0  0  0  0  0  0  0  0  0  0  0  0
   17.2098   -3.8916   16.2491 H   0  0  0  0  0  0  0  0  0  0  0  0
   16.1273   -4.6685   15.1070 H   0  0  0  0  0  0  0  0  0  0  0  0
   17.1681   -3.3284   14.5747 H   0  0  0  0  0  0  0  0  0  0  0  0
   15.9863   -1.8963   16.3039 H   0  0  0  0  0  0  0  0  0  0  0  0
   13.9222   -4.1169   16.3612 H   0  0  0  0  0  0  0  0  0  0  0  0
   15.0432   -3.7226   17.6553 H   0  0  0  0  0  0  0  0  0  0  0  0
   14.0215   -1.6671   18.1366 H   0  0  0  0  0  0  0  0  0  0  0  0
   12.6861   -2.7229   17.7349 H   0  0  0  0  0  0  0  0  0  0  0  0
   12.0222   -1.0201   16.4792 H   0  0  0  0  0  0  0  0  0  0  0  0
   13.9421    0.3210   17.2313 H   0  0  0  0  0  0  0  0  0  0  0  0
   12.0679    1.3353   16.4455 H   0  0  0  0  0  0  0  0  0  0  0  0
   12.8725    0.7341   13.5789 H   0  0  0  0  0  0  0  0  0  0  0  0
   11.2486    0.5377   14.4722 H   0  0  0  0  0  0  0  0  0  0  0  0
   10.5303    2.1593   12.3687 H   0  0  0  0  0  0  0  0  0  0  0  0
    9.9665    4.6418   12.2373 H   0  0  0  0  0  0  0  0  0  0  0  0
   11.1147    6.2033   13.7527 H   0  0  0  0  0  0  0  0  0  0  0  0
   12.8545    5.4169   15.3323 H   0  0  0  0  0  0  0  0  0  0  0  0
   13.3750    2.9439   17.6524 H   0  0  0  0  0  0  0  0  0  0  0  0
   16.7231    1.9008   15.6089 H   0  0  0  0  0  0  0  0  0  0  0  0
   10.9874   -3.0352   15.9391 H   0  0  0  0  0  0  0  0  0  0  0  0
    9.8017   -2.9097   14.6531 H   0  0  0  0  0  0  0  0  0  0  0  0
   10.2811   -1.4264   15.4806 H   0  0  0  0  0  0  0  0  0  0  0  0
   14.6662   -2.8454   13.7352 H   0  0  0  0  0  0  0  0  0  0  0  0
   14.7730   -0.3504   13.2645 H   0  0  0  0  0  0  0  0  0  0  0  0
   16.2278   -1.3447   13.2388 H   0  0  0  0  0  0  0  0  0  0  0  0
   15.3699    0.0140   15.5209 H   0  0  0  0  0  0  0  0  0  0  0  0
  1  2  1  0
  2  3  1  0
  3  4  1  0
  4  5  1  0
  5  6  1  0
  6  7  1  0
  7  8  1  0
  8  9  1  0
  9 10  2  0
 10 11  1  0
 11 12  2  0
 12 13  1  0
 13 14  2  0
 14 15  1  0
 15 16  1  0
 16 17  1  0
 17 18  2  0
 17 19  1  0
 19 20  1  0
 20 21  2  0
  5 22  1  0
 22 23  1  0
 23 24  1  0
 23 25  2  0
 23 26  2  0
 22 27  1  0
 27 28  1  0
 28 29  1  0
 27  2  1  0
 15  7  1  0
 14  9  1  0
 20 15  1  0
  1 30  1  0
  1 31  1  0
  1 32  1  0
  2 33  1  0
  3 34  1  0
  3 35  1  0
  4 36  1  0
  4 37  1  0
  5 38  1  0
  6 39  1  0
  7 40  1  0
  8 41  1  0
  8 42  1  0
 10 43  1  0
 11 44  1  0
 12 45  1  0
 13 46  1  0
 16 47  1  0
 19 48  1  0
 24 49  1  0
 24 50  1  0
 24 51  1  0
 27 52  1  0
 28 53  1  0
 28 54  1  0
 29 55  1  0
M  END
>  <Energy>  (12) 
-27.364641814909529

>  <compound_id>  (12) 
366

>  <target_id>  (12) 
1

>  <reference_id>  (12) 
80

>  <inspiration_ids>  (12) 
[50, 80]

>  <energy_score>  (12) 
-79.96619033990545

>  <distance_score>  (12) 
2.6690097337039633

>  <path>  (12) 
/opt/xchem-fragalysis-2/maxwin/BulkDock/SCRATCH/505733/C366-P80/C366-P80.minimised.mol

>  <scratch_subdir>  (12) 
/opt/xchem-fragalysis-2/maxwin/BulkDock/SCRATCH/505733/C366-P80

>  <fragmenstein_runtime>  (12) 
3.434879779815674

>  <fragmenstein_outcome>  (12) 
too moved

>  <fragmenstein_mode>  (12) 
expansion

>  <fragmenstein_error>  (12) 


$$$$
C367-P50
     RDKit          3D

 39 41  0  0  0  0  0  0  0  0999 V2000
   12.1377    0.9102   14.6056 C   0  0  0  0  0  0  0  0  0  0  0  0
   11.2872   -0.2383   14.1749 N   0  0  0  0  0  0  0  0  0  0  0  0
   10.5803    0.8321   13.4661 C   0  0  0  0  0  0  0  0  0  0  0  0
   10.8995   -1.0254   15.3119 C   0  0  0  0  0  0  0  0  0  0  0  0
    9.9307   -0.9451   16.0276 O   0  0  0  0  0  0  0  0  0  0  0  0
   11.9065   -2.1895   15.4949 C   0  0  0  0  0  0  0  0  0  0  0  0
   12.6039   -2.1574   16.7374 O   0  0  0  0  0  0  0  0  0  0  0  0
   13.8597   -1.6000   16.5231 N   0  0  0  0  0  0  0  0  0  0  0  0
   15.0132   -2.3129   16.5499 C   0  0  0  0  0  0  0  0  0  0  0  0
   15.1691   -3.5105   16.7151 O   0  0  0  0  0  0  0  0  0  0  0  0
   16.0664   -1.4125   16.4285 N   0  0  0  0  0  0  0  0  0  0  0  0
   15.5812   -0.0659   16.4270 C   0  0  0  0  0  0  0  0  0  0  0  0
   16.3102    0.9518   17.2988 C   0  0  0  0  0  0  0  0  0  0  0  0
   15.9125    2.3295   16.7283 C   0  0  0  0  0  0  0  0  0  0  0  0
   15.6955    2.0103   15.2783 C   0  0  0  0  0  0  0  0  0  0  0  0
   15.5471    2.8995   14.2275 C   0  0  0  0  0  0  0  0  0  0  0  0
   15.3318    2.3852   12.9478 C   0  0  0  0  0  0  0  0  0  0  0  0
   15.2755    0.9997   12.7356 C   0  0  0  0  0  0  0  0  0  0  0  0
   15.4056    0.1080   13.8050 C   0  0  0  0  0  0  0  0  0  0  0  0
   15.5927    0.6266   15.0812 C   0  0  0  0  0  0  0  0  0  0  0  0
   14.1390   -0.3237   16.8908 C   0  0  0  0  0  0  0  0  0  0  0  0
   13.3866    0.4939   17.4017 O   0  0  0  0  0  0  0  0  0  0  0  0
   12.5580    1.5643   13.8259 H   0  0  0  0  0  0  0  0  0  0  0  0
   11.7082    1.4714   15.4499 H   0  0  0  0  0  0  0  0  0  0  0  0
   13.0147    0.4266   14.9993 H   0  0  0  0  0  0  0  0  0  0  0  0
    9.7053    0.3092   13.0763 H   0  0  0  0  0  0  0  0  0  0  0  0
   11.1003    1.1930   12.5667 H   0  0  0  0  0  0  0  0  0  0  0  0
   10.1671    1.6369   14.0925 H   0  0  0  0  0  0  0  0  0  0  0  0
   12.5953   -2.2504   14.6418 H   0  0  0  0  0  0  0  0  0  0  0  0
   11.3200   -3.1156   15.4726 H   0  0  0  0  0  0  0  0  0  0  0  0
   17.0314   -1.7137   16.3957 H   0  0  0  0  0  0  0  0  0  0  0  0
   17.3973    0.8198   17.2052 H   0  0  0  0  0  0  0  0  0  0  0  0
   16.0648    0.8730   18.3634 H   0  0  0  0  0  0  0  0  0  0  0  0
   16.7122    3.0612   16.8748 H   0  0  0  0  0  0  0  0  0  0  0  0
   14.9851    2.6973   17.1786 H   0  0  0  0  0  0  0  0  0  0  0  0
   15.6054    3.9719   14.3892 H   0  0  0  0  0  0  0  0  0  0  0  0
   15.2282    3.0638   12.1042 H   0  0  0  0  0  0  0  0  0  0  0  0
   15.1261    0.6163   11.7289 H   0  0  0  0  0  0  0  0  0  0  0  0
   15.3311   -0.9627   13.6335 H   0  0  0  0  0  0  0  0  0  0  0  0
  1  2  1  0
  2  3  1  0
  2  4  1  0
  4  5  2  0
  4  6  1  0
  6  7  1  0
  7  8  1  0
  8  9  1  0
  9 10  2  0
  9 11  1  0
 11 12  1  0
 12 13  1  0
 13 14  1  0
 14 15  1  0
 15 16  2  0
 16 17  1  0
 17 18  2  0
 18 19  1  0
 19 20  2  0
 12 21  1  0
 21 22  2  0
 21  8  1  0
 20 12  1  0
 20 15  1  0
  1 23  1  0
  1 24  1  0
  1 25  1  0
  3 26  1  0
  3 27  1  0
  3 28  1  0
  6 29  1  0
  6 30  1  0
 11 31  1  0
 13 32  1  0
 13 33  1  0
 14 34  1  0
 14 35  1  0
 16 36  1  0
 17 37  1  0
 18 38  1  0
 19 39  1  0
M  END
>  <Energy>  (13) 
139.72940814088966

>  <compound_id>  (13) 
367

>  <target_id>  (13) 
1

>  <reference_id>  (13) 
50

>  <inspiration_ids>  (13) 
[50, 81]

>  <energy_score>  (13) 
35.03952313771171

>  <distance_score>  (13) 
4.066008227761897

>  <path>  (13) 
/opt/xchem-fragalysis-2/maxwin/BulkDock/SCRATCH/505733/C367-P50/C367-P50.minimised.mol

>  <scratch_subdir>  (13) 
/opt/xchem-fragalysis-2/maxwin/BulkDock/SCRATCH/505733/C367-P50

>  <fragmenstein_runtime>  (13) 
4.306168794631958

>  <fragmenstein_outcome>  (13) 
too moved

>  <fragmenstein_mode>  (13) 
expansion

>  <fragmenstein_error>  (13) 


$$$$
C367-P81
     RDKit          3D

 39 41  0  0  0  0  0  0  0  0999 V2000
   17.0286    0.6284   11.2239 C   0  0  0  0  0  0  0  0  0  0  0  0
   15.9684   -0.1873   10.5277 N   0  0  0  0  0  0  0  0  0  0  0  0
   16.1784    0.8410    9.4695 C   0  0  0  0  0  0  0  0  0  0  0  0
   14.8595   -0.4107   11.4078 C   0  0  0  0  0  0  0  0  0  0  0  0
   13.8535    0.2300   11.5774 O   0  0  0  0  0  0  0  0  0  0  0  0
   15.0933   -1.7498   12.1609 C   0  0  0  0  0  0  0  0  0  0  0  0
   14.0504   -2.2451   12.9858 O   0  0  0  0  0  0  0  0  0  0  0  0
   13.6829   -1.4003   14.0286 N   0  0  0  0  0  0  0  0  0  0  0  0
   12.6828   -1.7993   14.8711 C   0  0  0  0  0  0  0  0  0  0  0  0
   12.0280   -2.8287   14.8799 O   0  0  0  0  0  0  0  0  0  0  0  0
   12.5212   -0.8205   15.8347 N   0  0  0  0  0  0  0  0  0  0  0  0
   13.3698    0.3016   15.5618 C   0  0  0  0  0  0  0  0  0  0  0  0
   14.0938    0.8395   16.7996 C   0  0  0  0  0  0  0  0  0  0  0  0
   14.2208    2.3570   16.6081 C   0  0  0  0  0  0  0  0  0  0  0  0
   13.0855    2.6599   15.6809 C   0  0  0  0  0  0  0  0  0  0  0  0
   12.5701    3.9044   15.3623 C   0  0  0  0  0  0  0  0  0  0  0  0
   11.5800    3.9837   14.3835 C   0  0  0  0  0  0  0  0  0  0  0  0
   11.1320    2.8282   13.7309 C   0  0  0  0  0  0  0  0  0  0  0  0
   11.6445    1.5739   14.0655 C   0  0  0  0  0  0  0  0  0  0  0  0
   12.6190    1.5018   15.0534 C   0  0  0  0  0  0  0  0  0  0  0  0
   14.3059   -0.2887   14.5048 C   0  0  0  0  0  0  0  0  0  0  0  0
   15.3857    0.1923   14.1792 O   0  0  0  0  0  0  0  0  0  0  0  0
   18.0074    0.6501   10.7211 H   0  0  0  0  0  0  0  0  0  0  0  0
   16.6792    1.6146   11.5683 H   0  0  0  0  0  0  0  0  0  0  0  0
   17.2459    0.0964   12.1607 H   0  0  0  0  0  0  0  0  0  0  0  0
   15.4477    0.5591    8.6972 H   0  0  0  0  0  0  0  0  0  0  0  0
   17.1455    0.7778    8.9505 H   0  0  0  0  0  0  0  0  0  0  0  0
   15.8616    1.8601    9.7386 H   0  0  0  0  0  0  0  0  0  0  0  0
   16.0226   -1.7114   12.7385 H   0  0  0  0  0  0  0  0  0  0  0  0
   15.2456   -2.5129   11.3877 H   0  0  0  0  0  0  0  0  0  0  0  0
   11.7282   -0.8395   16.4557 H   0  0  0  0  0  0  0  0  0  0  0  0
   15.0718    0.3750   16.9683 H   0  0  0  0  0  0  0  0  0  0  0  0
   13.4994    0.6486   17.7022 H   0  0  0  0  0  0  0  0  0  0  0  0
   15.1720    2.6134   16.1298 H   0  0  0  0  0  0  0  0  0  0  0  0
   14.1308    2.8866   17.5609 H   0  0  0  0  0  0  0  0  0  0  0  0
   12.9420    4.8038   15.8443 H   0  0  0  0  0  0  0  0  0  0  0  0
   11.1736    4.9542   14.1088 H   0  0  0  0  0  0  0  0  0  0  0  0
   10.3947    2.9207   12.9450 H   0  0  0  0  0  0  0  0  0  0  0  0
   11.3069    0.6835   13.5408 H   0  0  0  0  0  0  0  0  0  0  0  0
  1  2  1  0
  2  3  1  0
  2  4  1  0
  4  5  2  0
  4  6  1  0
  6  7  1  0
  7  8  1  0
  8  9  1  0
  9 10  2  0
  9 11  1  0
 11 12  1  0
 12 13  1  0
 13 14  1  0
 14 15  1  0
 15 16  2  0
 16 17  1  0
 17 18  2  0
 18 19  1  0
 19 20  2  0
 12 21  1  0
 21 22  2  0
 21  8  1  0
 20 12  1  0
 20 15  1  0
  1 23  1  0
  1 24  1  0
  1 25  1  0
  3 26  1  0
  3 27  1  0
  3 28  1  0
  6 29  1  0
  6 30  1  0
 11 31  1  0
 13 32  1  0
 13 33  1  0
 14 34  1  0
 14 35  1  0
 16 36  1  0
 17 37  1  0
 18 38  1  0
 19 39  1  0
M  END
>  <Energy>  (14) 
131.62496507152986

>  <compound_id>  (14) 
367

>  <target_id>  (14) 
1

>  <reference_id>  (14) 
81

>  <inspiration_ids>  (14) 
[50, 81]

>  <energy_score>  (14) 
26.935080068352576

>  <distance_score>  (14) 
2.7432623702376646

>  <path>  (14) 
/opt/xchem-fragalysis-2/maxwin/BulkDock/SCRATCH/505733/C367-P81/C367-P81.minimised.mol

>  <scratch_subdir>  (14) 
/opt/xchem-fragalysis-2/maxwin/BulkDock/SCRATCH/505733/C367-P81

>  <fragmenstein_runtime>  (14) 
4.432542324066162

>  <fragmenstein_outcome>  (14) 
too moved

>  <fragmenstein_mode>  (14) 
expansion

>  <fragmenstein_error>  (14) 


$$$$
C370-P50
     RDKit          3D

 40 42  0  0  0  0  0  0  0  0999 V2000
   16.8311    0.6567   14.3851 C   0  0  0  0  0  0  0  0  0  0  0  0
   15.6376    0.2521   15.3053 C   0  0  0  0  0  0  0  0  0  0  0  0
   16.0326    0.7327   16.6664 N   0  0  0  0  0  0  0  0  0  0  0  0
   17.2327    0.0352   17.1358 O   0  0  0  0  0  0  0  0  0  0  0  0
   14.3479    0.9840   14.8287 C   0  0  0  0  0  0  0  0  0  0  0  0
   13.2423    1.1595   15.6863 C   0  0  0  0  0  0  0  0  0  0  0  0
   12.0228    1.6383   15.2096 C   0  0  0  0  0  0  0  0  0  0  0  0
   11.8809    1.9554   13.8674 C   0  0  0  0  0  0  0  0  0  0  0  0
   12.9631    1.8377   13.0057 C   0  0  0  0  0  0  0  0  0  0  0  0
   14.1835    1.3721   13.4802 C   0  0  0  0  0  0  0  0  0  0  0  0
   15.4344   -1.3515   15.2427 C   0  0  0  0  0  0  0  0  0  0  0  0
   16.7369   -2.0829   15.2660 N   0  0  0  0  0  0  0  0  0  0  0  0
   14.6837   -1.8101   13.9768 C   0  0  0  0  0  0  0  0  0  0  0  0
   13.1921   -2.0036   14.3375 C   0  0  0  0  0  0  0  0  0  0  0  0
   13.3239   -2.4115   15.7520 C   0  0  0  0  0  0  0  0  0  0  0  0
   12.4882   -3.2710   16.4267 C   0  0  0  0  0  0  0  0  0  0  0  0
   12.9275   -3.7282   17.6607 C   0  0  0  0  0  0  0  0  0  0  0  0
   14.0995   -3.2552   18.2527 C   0  0  0  0  0  0  0  0  0  0  0  0
   14.9108   -2.3622   17.5727 C   0  0  0  0  0  0  0  0  0  0  0  0
   14.5397   -1.9799   16.2940 C   0  0  0  0  0  0  0  0  0  0  0  0
   16.9103    1.7480   14.2948 H   0  0  0  0  0  0  0  0  0  0  0  0
   17.8027    0.3096   14.7546 H   0  0  0  0  0  0  0  0  0  0  0  0
   16.7369    0.2431   13.3751 H   0  0  0  0  0  0  0  0  0  0  0  0
   15.3434    0.4243   17.3523 H   0  0  0  0  0  0  0  0  0  0  0  0
   17.3230   -0.7770   16.5836 H   0  0  0  0  0  0  0  0  0  0  0  0
   13.3088    0.8828   16.7356 H   0  0  0  0  0  0  0  0  0  0  0  0
   11.1828    1.7497   15.8889 H   0  0  0  0  0  0  0  0  0  0  0  0
   10.9272    2.3157   13.4952 H   0  0  0  0  0  0  0  0  0  0  0  0
   12.8560    2.1076   11.9586 H   0  0  0  0  0  0  0  0  0  0  0  0
   14.9869    1.2820   12.7554 H   0  0  0  0  0  0  0  0  0  0  0  0
   16.5326   -3.0876   15.2910 H   0  0  0  0  0  0  0  0  0  0  0  0
   17.1942   -1.9601   14.3598 H   0  0  0  0  0  0  0  0  0  0  0  0
   14.8626   -1.1427   13.1319 H   0  0  0  0  0  0  0  0  0  0  0  0
   15.0629   -2.7782   13.6346 H   0  0  0  0  0  0  0  0  0  0  0  0
   12.5875   -1.1050   14.2270 H   0  0  0  0  0  0  0  0  0  0  0  0
   12.7319   -2.8175   13.7682 H   0  0  0  0  0  0  0  0  0  0  0  0
   11.5840   -3.6630   15.9723 H   0  0  0  0  0  0  0  0  0  0  0  0
   12.3613   -4.4720   18.1979 H   0  0  0  0  0  0  0  0  0  0  0  0
   14.3924   -3.6162   19.2359 H   0  0  0  0  0  0  0  0  0  0  0  0
   15.8614   -2.0643   18.0038 H   0  0  0  0  0  0  0  0  0  0  0  0
  1  2  1  0
  2  3  1  0
  3  4  1  0
  2  5  1  0
  5  6  2  0
  6  7  1  0
  7  8  2  0
  8  9  1  0
  9 10  2  0
  2 11  1  0
 11 12  1  0
 11 13  1  0
 13 14  1  0
 14 15  1  0
 15 16  2  0
 16 17  1  0
 17 18  2  0
 18 19  1  0
 19 20  2  0
 10  5  1  0
 20 11  1  0
 20 15  1  0
  1 21  1  0
  1 22  1  0
  1 23  1  0
  3 24  1  0
  4 25  1  0
  6 26  1  0
  7 27  1  0
  8 28  1  0
  9 29  1  0
 10 30  1  0
 12 31  1  0
 12 32  1  0
 13 33  1  0
 13 34  1  0
 14 35  1  0
 14 36  1  0
 16 37  1  0
 17 38  1  0
 18 39  1  0
 19 40  1  0
M  END
>  <Energy>  (15) 
143.76567877266638

>  <compound_id>  (15) 
370

>  <target_id>  (15) 
1

>  <reference_id>  (15) 
50

>  <inspiration_ids>  (15) 
[50, 97]

>  <energy_score>  (15) 
-32.481434603846765

>  <distance_score>  (15) 
2.0385310468579876

>  <path>  (15) 
/opt/xchem-fragalysis-2/maxwin/BulkDock/SCRATCH/505733/C370-P50/C370-P50.minimised.mol

>  <scratch_subdir>  (15) 
/opt/xchem-fragalysis-2/maxwin/BulkDock/SCRATCH/505733/C370-P50

>  <fragmenstein_runtime>  (15) 
5.51702618598938

>  <fragmenstein_outcome>  (15) 
too moved

>  <fragmenstein_mode>  (15) 
expansion

>  <fragmenstein_error>  (15) 


$$$$
C370-P97
     RDKit          3D

 40 42  0  0  0  0  0  0  0  0999 V2000
   16.7656    0.4830   14.1905 C   0  0  0  0  0  0  0  0  0  0  0  0
   15.4753    0.0593   14.9446 C   0  0  0  0  0  0  0  0  0  0  0  0
   15.8631    0.1530   16.3910 N   0  0  0  0  0  0  0  0  0  0  0  0
   16.0599    1.5508   16.7398 O   0  0  0  0  0  0  0  0  0  0  0  0
   14.2798    0.9804   14.5838 C   0  0  0  0  0  0  0  0  0  0  0  0
   13.1553    1.0950   15.4306 C   0  0  0  0  0  0  0  0  0  0  0  0
   12.0022    1.7588   15.0202 C   0  0  0  0  0  0  0  0  0  0  0  0
   11.9513    2.3258   13.7569 C   0  0  0  0  0  0  0  0  0  0  0  0
   13.0580    2.2663   12.9175 C   0  0  0  0  0  0  0  0  0  0  0  0
   14.2142    1.6148   13.3281 C   0  0  0  0  0  0  0  0  0  0  0  0
   15.1301   -1.4821   14.5337 C   0  0  0  0  0  0  0  0  0  0  0  0
   16.3283   -2.3554   14.4220 N   0  0  0  0  0  0  0  0  0  0  0  0
   14.3282   -1.6223   13.1905 C   0  0  0  0  0  0  0  0  0  0  0  0
   12.8337   -1.6911   13.5501 C   0  0  0  0  0  0  0  0  0  0  0  0
   12.8903   -2.3086   14.9013 C   0  0  0  0  0  0  0  0  0  0  0  0
   11.9246   -3.1035   15.4778 C   0  0  0  0  0  0  0  0  0  0  0  0
   12.2804   -3.8132   16.6201 C   0  0  0  0  0  0  0  0  0  0  0  0
   13.5148   -3.6263   17.2511 C   0  0  0  0  0  0  0  0  0  0  0  0
   14.4603   -2.7831   16.6854 C   0  0  0  0  0  0  0  0  0  0  0  0
   14.1539   -2.1629   15.4805 C   0  0  0  0  0  0  0  0  0  0  0  0
   16.9595    1.5591   14.2824 H   0  0  0  0  0  0  0  0  0  0  0  0
   17.6541   -0.0316   14.5780 H   0  0  0  0  0  0  0  0  0  0  0  0
   16.7125    0.2507   13.1207 H   0  0  0  0  0  0  0  0  0  0  0  0
   15.0731   -0.1317   16.9694 H   0  0  0  0  0  0  0  0  0  0  0  0
   16.9801    1.5439   17.0680 H   0  0  0  0  0  0  0  0  0  0  0  0
   13.1534    0.6196   16.4071 H   0  0  0  0  0  0  0  0  0  0  0  0
   11.1406    1.8150   15.6784 H   0  0  0  0  0  0  0  0  0  0  0  0
   11.0478    2.8310   13.4255 H   0  0  0  0  0  0  0  0  0  0  0  0
   13.0154    2.7269   11.9337 H   0  0  0  0  0  0  0  0  0  0  0  0
   15.0405    1.5761   12.6247 H   0  0  0  0  0  0  0  0  0  0  0  0
   16.0328   -3.3149   14.2290 H   0  0  0  0  0  0  0  0  0  0  0  0
   16.8722   -2.0817   13.6071 H   0  0  0  0  0  0  0  0  0  0  0  0
   14.5564   -0.8553   12.4462 H   0  0  0  0  0  0  0  0  0  0  0  0
   14.5862   -2.5645   12.6847 H   0  0  0  0  0  0  0  0  0  0  0  0
   12.3333   -0.7257   13.5611 H   0  0  0  0  0  0  0  0  0  0  0  0
   12.2990   -2.3518   12.8748 H   0  0  0  0  0  0  0  0  0  0  0  0
   10.9712   -3.2727   14.9875 H   0  0  0  0  0  0  0  0  0  0  0  0
   11.5998   -4.5593   17.0112 H   0  0  0  0  0  0  0  0  0  0  0  0
   13.7489   -4.1802   18.1561 H   0  0  0  0  0  0  0  0  0  0  0  0
   15.4546   -2.6983   17.1162 H   0  0  0  0  0  0  0  0  0  0  0  0
  1  2  1  0
  2  3  1  0
  3  4  1  0
  2  5  1  0
  5  6  2  0
  6  7  1  0
  7  8  2  0
  8  9  1  0
  9 10  2  0
  2 11  1  0
 11 12  1  0
 11 13  1  0
 13 14  1  0
 14 15  1  0
 15 16  2  0
 16 17  1  0
 17 18  2  0
 18 19  1  0
 19 20  2  0
 10  5  1  0
 20 11  1  0
 20 15  1  0
  1 21  1  0
  1 22  1  0
  1 23  1  0
  3 24  1  0
  4 25  1  0
  6 26  1  0
  7 27  1  0
  8 28  1  0
  9 29  1  0
 10 30  1  0
 12 31  1  0
 12 32  1  0
 13 33  1  0
 13 34  1  0
 14 35  1  0
 14 36  1  0
 16 37  1  0
 17 38  1  0
 18 39  1  0
 19 40  1  0
M  END
>  <Energy>  (16) 
143.53147952282356

>  <compound_id>  (16) 
370

>  <target_id>  (16) 
1

>  <reference_id>  (16) 
97

>  <inspiration_ids>  (16) 
[50, 97]

>  <energy_score>  (16) 
-32.715633853691855

>  <distance_score>  (16) 
1.850747974248126

>  <path>  (16) 
/opt/xchem-fragalysis-2/maxwin/BulkDock/SCRATCH/505733/C370-P97/C370-P97.minimised.mol

>  <scratch_subdir>  (16) 
/opt/xchem-fragalysis-2/maxwin/BulkDock/SCRATCH/505733/C370-P97

>  <fragmenstein_runtime>  (16) 
5.321305751800537

>  <fragmenstein_outcome>  (16) 
too moved

>  <fragmenstein_mode>  (16) 
expansion

>  <fragmenstein_error>  (16) 


$$$$
C371-P50
     RDKit          3D

 33 35  0  0  0  0  0  0  0  0999 V2000
   12.3256   -3.0355   13.7917 N   0  0  0  0  0  0  0  0  0  0  0  0
   12.5861   -2.4241   15.1076 C   0  0  0  0  0  0  0  0  0  0  0  0
   11.7370   -1.0798   15.2245 C   0  0  0  0  0  0  0  0  0  0  0  0
   11.8896   -0.6211   16.5477 O   0  0  0  0  0  0  0  0  0  0  0  0
   10.3587   -1.4746   15.0973 O   0  0  0  0  0  0  0  0  0  0  0  0
   11.8347    0.1027   14.3712 N   0  0  0  0  0  0  0  0  0  0  0  0
   12.7558    0.5350   13.4630 C   0  0  0  0  0  0  0  0  0  0  0  0
   12.2378    1.6910   12.9114 C   0  0  0  0  0  0  0  0  0  0  0  0
   11.0383    2.0127   13.4778 N   0  0  0  0  0  0  0  0  0  0  0  0
   10.8664    1.0966   14.4029 C   0  0  0  0  0  0  0  0  0  0  0  0
   12.0437   -3.4504   16.1703 C   0  0  0  0  0  0  0  0  0  0  0  0
   13.0032   -3.5816   17.3438 C   0  0  0  0  0  0  0  0  0  0  0  0
   14.2638   -3.0770   16.7612 C   0  0  0  0  0  0  0  0  0  0  0  0
   15.5241   -3.2682   17.3181 C   0  0  0  0  0  0  0  0  0  0  0  0
   16.6296   -2.8254   16.6103 C   0  0  0  0  0  0  0  0  0  0  0  0
   16.4465   -2.1753   15.3870 C   0  0  0  0  0  0  0  0  0  0  0  0
   15.1644   -1.9658   14.8490 C   0  0  0  0  0  0  0  0  0  0  0  0
   14.0501   -2.4089   15.5371 C   0  0  0  0  0  0  0  0  0  0  0  0
   13.1224   -3.6127   13.5238 H   0  0  0  0  0  0  0  0  0  0  0  0
   11.5495   -3.6961   13.8520 H   0  0  0  0  0  0  0  0  0  0  0  0
   12.7653   -0.1945   16.5857 H   0  0  0  0  0  0  0  0  0  0  0  0
   10.2716   -1.7812   14.1709 H   0  0  0  0  0  0  0  0  0  0  0  0
   13.6689    0.0055   13.2518 H   0  0  0  0  0  0  0  0  0  0  0  0
   12.6804    2.3028   12.1349 H   0  0  0  0  0  0  0  0  0  0  0  0
   10.0504    1.0594   15.1146 H   0  0  0  0  0  0  0  0  0  0  0  0
   11.8936   -4.4341   15.7356 H   0  0  0  0  0  0  0  0  0  0  0  0
   11.0484   -3.1934   16.5063 H   0  0  0  0  0  0  0  0  0  0  0  0
   13.0919   -4.6186   17.6734 H   0  0  0  0  0  0  0  0  0  0  0  0
   12.7251   -2.9596   18.1866 H   0  0  0  0  0  0  0  0  0  0  0  0
   15.6473   -3.7818   18.2671 H   0  0  0  0  0  0  0  0  0  0  0  0
   17.6320   -2.9808   17.0003 H   0  0  0  0  0  0  0  0  0  0  0  0
   17.3187   -1.8461   14.8246 H   0  0  0  0  0  0  0  0  0  0  0  0
   15.0841   -1.5178   13.8652 H   0  0  0  0  0  0  0  0  0  0  0  0
  1  2  1  0
  2  3  1  0
  3  4  1  0
  3  5  1  0
  3  6  1  0
  6  7  1  0
  7  8  2  0
  8  9  1  0
  9 10  2  0
  2 11  1  0
 11 12  1  0
 12 13  1  0
 13 14  2  0
 14 15  1  0
 15 16  2  0
 16 17  1  0
 17 18  2  0
 18  2  1  0
 10  6  1  0
 18 13  1  0
  1 19  1  0
  1 20  1  0
  4 21  1  0
  5 22  1  0
  7 23  1  0
  8 24  1  0
 10 25  1  0
 11 26  1  0
 11 27  1  0
 12 28  1  0
 12 29  1  0
 14 30  1  0
 15 31  1  0
 16 32  1  0
 17 33  1  0
M  END
>  <Energy>  (17) 
102.91859706424732

>  <compound_id>  (17) 
371

>  <target_id>  (17) 
1

>  <reference_id>  (17) 
50

>  <inspiration_ids>  (17) 
[50, 98]

>  <energy_score>  (17) 
-9.01921321578132

>  <distance_score>  (17) 
1.9763835050543437

>  <path>  (17) 
/opt/xchem-fragalysis-2/maxwin/BulkDock/SCRATCH/505733/C371-P50/C371-P50.minimised.mol

>  <scratch_subdir>  (17) 
/opt/xchem-fragalysis-2/maxwin/BulkDock/SCRATCH/505733/C371-P50

>  <fragmenstein_runtime>  (17) 
7.022179841995239

>  <fragmenstein_outcome>  (17) 
too moved

>  <fragmenstein_mode>  (17) 
expansion

>  <fragmenstein_error>  (17) 


$$$$
C371-P98
     RDKit          3D

 33 35  0  0  0  0  0  0  0  0999 V2000
   14.5237   -2.5268   14.3675 N   0  0  0  0  0  0  0  0  0  0  0  0
   13.4536   -1.9525   15.2376 C   0  0  0  0  0  0  0  0  0  0  0  0
   12.6737   -0.9197   14.2827 C   0  0  0  0  0  0  0  0  0  0  0  0
   11.9114   -1.7538   13.3928 O   0  0  0  0  0  0  0  0  0  0  0  0
   13.6273   -0.2950   13.4135 O   0  0  0  0  0  0  0  0  0  0  0  0
   11.8382    0.1736   14.7542 N   0  0  0  0  0  0  0  0  0  0  0  0
   12.0583    1.5190   14.4939 C   0  0  0  0  0  0  0  0  0  0  0  0
   10.8887    2.1644   14.8004 C   0  0  0  0  0  0  0  0  0  0  0  0
    9.9566    1.2676   15.2425 N   0  0  0  0  0  0  0  0  0  0  0  0
   10.5379    0.0890   15.1713 C   0  0  0  0  0  0  0  0  0  0  0  0
   12.4655   -3.0494   15.7460 C   0  0  0  0  0  0  0  0  0  0  0  0
   13.2019   -3.9153   16.7670 C   0  0  0  0  0  0  0  0  0  0  0  0
   14.1557   -2.9155   17.3263 C   0  0  0  0  0  0  0  0  0  0  0  0
   15.0345   -3.1472   18.3701 C   0  0  0  0  0  0  0  0  0  0  0  0
   16.0254   -2.2052   18.6001 C   0  0  0  0  0  0  0  0  0  0  0  0
   16.0760   -1.0289   17.8369 C   0  0  0  0  0  0  0  0  0  0  0  0
   15.1590   -0.7801   16.8076 C   0  0  0  0  0  0  0  0  0  0  0  0
   14.2068   -1.7401   16.5302 C   0  0  0  0  0  0  0  0  0  0  0  0
   14.2372   -2.5391   13.3847 H   0  0  0  0  0  0  0  0  0  0  0  0
   15.4435   -2.1134   14.4921 H   0  0  0  0  0  0  0  0  0  0  0  0
   11.1035   -1.2791   13.1198 H   0  0  0  0  0  0  0  0  0  0  0  0
   14.4788   -0.7194   13.5927 H   0  0  0  0  0  0  0  0  0  0  0  0
   12.9978    1.8855   14.1020 H   0  0  0  0  0  0  0  0  0  0  0  0
   10.6740    3.2234   14.7352 H   0  0  0  0  0  0  0  0  0  0  0  0
   10.0488   -0.8591   15.3544 H   0  0  0  0  0  0  0  0  0  0  0  0
   12.0298   -3.6479   14.9447 H   0  0  0  0  0  0  0  0  0  0  0  0
   11.6215   -2.5575   16.2442 H   0  0  0  0  0  0  0  0  0  0  0  0
   13.7532   -4.7308   16.2943 H   0  0  0  0  0  0  0  0  0  0  0  0
   12.5271   -4.3157   17.5236 H   0  0  0  0  0  0  0  0  0  0  0  0
   14.9952   -4.0649   18.9481 H   0  0  0  0  0  0  0  0  0  0  0  0
   16.7565   -2.3693   19.3882 H   0  0  0  0  0  0  0  0  0  0  0  0
   16.8598   -0.3016   18.0415 H   0  0  0  0  0  0  0  0  0  0  0  0
   15.2732    0.1046   16.1889 H   0  0  0  0  0  0  0  0  0  0  0  0
  1  2  1  0
  2  3  1  0
  3  4  1  0
  3  5  1  0
  3  6  1  0
  6  7  1  0
  7  8  2  0
  8  9  1  0
  9 10  2  0
  2 11  1  0
 11 12  1  0
 12 13  1  0
 13 14  2  0
 14 15  1  0
 15 16  2  0
 16 17  1  0
 17 18  2  0
 18  2  1  0
 10  6  1  0
 18 13  1  0
  1 19  1  0
  1 20  1  0
  4 21  1  0
  5 22  1  0
  7 23  1  0
  8 24  1  0
 10 25  1  0
 11 26  1  0
 11 27  1  0
 12 28  1  0
 12 29  1  0
 14 30  1  0
 15 31  1  0
 16 32  1  0
 17 33  1  0
M  END
>  <Energy>  (18) 
105.60907178868197

>  <compound_id>  (18) 
371

>  <target_id>  (18) 
1

>  <reference_id>  (18) 
98

>  <inspiration_ids>  (18) 
[50, 98]

>  <energy_score>  (18) 
-6.328738491348645

>  <distance_score>  (18) 
2.0223931084877824

>  <path>  (18) 
/opt/xchem-fragalysis-2/maxwin/BulkDock/SCRATCH/505733/C371-P98/C371-P98.minimised.mol

>  <scratch_subdir>  (18) 
/opt/xchem-fragalysis-2/maxwin/BulkDock/SCRATCH/505733/C371-P98

>  <fragmenstein_runtime>  (18) 
7.0206921100616455

>  <fragmenstein_outcome>  (18) 
too moved

>  <fragmenstein_mode>  (18) 
expansion

>  <fragmenstein_error>  (18) 


$$$$
C372-P50
     RDKit          3D

 31 33  0  0  0  0  0  0  0  0999 V2000
   13.8502    1.5424   18.8725 O   0  0  0  0  0  0  0  0  0  0  0  0
   13.9439    1.9841   17.7489 C   0  0  0  0  0  0  0  0  0  0  0  0
   14.7736    2.9527   17.3280 N   0  0  0  0  0  0  0  0  0  0  0  0
   14.9998    2.7669   16.0033 C   0  0  0  0  0  0  0  0  0  0  0  0
   15.9165    3.2612   15.3653 O   0  0  0  0  0  0  0  0  0  0  0  0
   13.9086    1.8421   15.4776 C   0  0  0  0  0  0  0  0  0  0  0  0
   14.3326    0.6699   14.5992 C   0  0  0  0  0  0  0  0  0  0  0  0
   13.0300    0.2286   13.8867 C   0  0  0  0  0  0  0  0  0  0  0  0
   12.0284   -0.6579   14.6333 C   0  0  0  0  0  0  0  0  0  0  0  0
   12.7025   -1.9731   15.5913 S   0  0  0  0  0  6  0  0  0  0  0  0
   13.4357   -1.3488   16.6773 O   0  0  0  0  0  0  0  0  0  0  0  0
   11.6214   -2.8885   15.8817 O   0  0  0  0  0  0  0  0  0  0  0  0
   12.4010    1.5841   13.6620 C   0  0  0  0  0  0  0  0  0  0  0  0
   11.4568    1.9792   12.7402 C   0  0  0  0  0  0  0  0  0  0  0  0
   11.0577    3.3176   12.7215 C   0  0  0  0  0  0  0  0  0  0  0  0
   11.5570    4.2339   13.6369 C   0  0  0  0  0  0  0  0  0  0  0  0
   12.4887    3.8250   14.5759 C   0  0  0  0  0  0  0  0  0  0  0  0
   12.9106    2.5057   14.5741 C   0  0  0  0  0  0  0  0  0  0  0  0
   13.3018    1.4067   16.6996 N   0  0  0  0  0  0  0  0  0  0  0  0
   15.4544    3.3698   17.9406 H   0  0  0  0  0  0  0  0  0  0  0  0
   14.8474   -0.1315   15.1337 H   0  0  0  0  0  0  0  0  0  0  0  0
   15.0501    1.0220   13.8415 H   0  0  0  0  0  0  0  0  0  0  0  0
   13.3148   -0.2046   12.9341 H   0  0  0  0  0  0  0  0  0  0  0  0
   11.4069   -0.0805   15.3298 H   0  0  0  0  0  0  0  0  0  0  0  0
   11.3282   -1.1098   13.9257 H   0  0  0  0  0  0  0  0  0  0  0  0
   13.5967   -2.6333   14.8202 H   0  0  0  0  0  0  0  0  0  0  0  0
   11.0693    1.2837   12.0131 H   0  0  0  0  0  0  0  0  0  0  0  0
   10.3846    3.7013   11.9699 H   0  0  0  0  0  0  0  0  0  0  0  0
   11.2360    5.2727   13.6081 H   0  0  0  0  0  0  0  0  0  0  0  0
   12.8815    4.5414   15.2933 H   0  0  0  0  0  0  0  0  0  0  0  0
   13.1064    0.4278   16.9046 H   0  0  0  0  0  0  0  0  0  0  0  0
  1  2  2  0
  2  3  1  0
  3  4  1  0
  4  5  2  0
  4  6  1  0
  6  7  1  0
  7  8  1  0
  8  9  1  0
  9 10  1  0
 10 11  2  0
 10 12  2  0
  8 13  1  0
 13 14  2  0
 14 15  1  0
 15 16  2  0
 16 17  1  0
 17 18  2  0
  6 19  1  0
 19  2  1  0
 18  6  1  0
 18 13  1  0
  3 20  1  0
  7 21  1  0
  7 22  1  0
  8 23  1  0
  9 24  1  0
  9 25  1  0
 10 26  1  0
 14 27  1  0
 15 28  1  0
 16 29  1  0
 17 30  1  0
 19 31  1  0
M  END
>  <Energy>  (19) 
-27.773347075935941

>  <compound_id>  (19) 
372

>  <target_id>  (19) 
1

>  <reference_id>  (19) 
50

>  <inspiration_ids>  (19) 
[50, 103]

>  <energy_score>  (19) 
-42.02562011050918

>  <distance_score>  (19) 
1.7811938460686199

>  <path>  (19) 
/opt/xchem-fragalysis-2/maxwin/BulkDock/SCRATCH/505733/C372-P50/C372-P50.minimised.mol

>  <scratch_subdir>  (19) 
/opt/xchem-fragalysis-2/maxwin/BulkDock/SCRATCH/505733/C372-P50

>  <fragmenstein_runtime>  (19) 
3.8063347339630127

>  <fragmenstein_outcome>  (19) 
too moved

>  <fragmenstein_mode>  (19) 
expansion

>  <fragmenstein_error>  (19) 


$$$$
C372-P103
     RDKit          3D

 31 33  0  0  0  0  0  0  0  0999 V2000
   13.7199    1.6215   18.6940 O   0  0  0  0  0  0  0  0  0  0  0  0
   13.8308    2.0096   17.5519 C   0  0  0  0  0  0  0  0  0  0  0  0
   14.6565    2.9720   17.1093 N   0  0  0  0  0  0  0  0  0  0  0  0
   14.9079    2.7408   15.7971 C   0  0  0  0  0  0  0  0  0  0  0  0
   15.8264    3.2310   15.1581 O   0  0  0  0  0  0  0  0  0  0  0  0
   13.8520    1.7619   15.2864 C   0  0  0  0  0  0  0  0  0  0  0  0
   14.3632    0.5672   14.4767 C   0  0  0  0  0  0  0  0  0  0  0  0
   13.1420    0.0661   13.6649 C   0  0  0  0  0  0  0  0  0  0  0  0
   12.1266   -0.8553   14.3527 C   0  0  0  0  0  0  0  0  0  0  0  0
   12.7558   -2.0192   15.5228 S   0  0  0  0  0  6  0  0  0  0  0  0
   13.2486   -1.2640   16.6587 O   0  0  0  0  0  0  0  0  0  0  0  0
   11.7520   -3.0408   15.7235 O   0  0  0  0  0  0  0  0  0  0  0  0
   12.4840    1.4030   13.3765 C   0  0  0  0  0  0  0  0  0  0  0  0
   11.6186    1.7733   12.3688 C   0  0  0  0  0  0  0  0  0  0  0  0
   11.1596    3.0930   12.3149 C   0  0  0  0  0  0  0  0  0  0  0  0
   11.5078    4.0209   13.2858 C   0  0  0  0  0  0  0  0  0  0  0  0
   12.3717    3.6479   14.3004 C   0  0  0  0  0  0  0  0  0  0  0  0
   12.8710    2.3528   14.3212 C   0  0  0  0  0  0  0  0  0  0  0  0
   13.2177    1.3857   16.5103 N   0  0  0  0  0  0  0  0  0  0  0  0
   15.3140    3.4319   17.7163 H   0  0  0  0  0  0  0  0  0  0  0  0
   14.8500   -0.2045   15.0782 H   0  0  0  0  0  0  0  0  0  0  0  0
   15.1325    0.9126   13.7686 H   0  0  0  0  0  0  0  0  0  0  0  0
   13.5048   -0.3995   12.7414 H   0  0  0  0  0  0  0  0  0  0  0  0
   11.3448   -0.2969   14.8823 H   0  0  0  0  0  0  0  0  0  0  0  0
   11.6241   -1.4489   13.5848 H   0  0  0  0  0  0  0  0  0  0  0  0
   13.8283   -2.6200   14.9608 H   0  0  0  0  0  0  0  0  0  0  0  0
   11.3428    1.0881   11.5832 H   0  0  0  0  0  0  0  0  0  0  0  0
   10.5677    3.4447   11.4818 H   0  0  0  0  0  0  0  0  0  0  0  0
   11.1424    5.0434   13.2311 H   0  0  0  0  0  0  0  0  0  0  0  0
   12.6653    4.3749   15.0539 H   0  0  0  0  0  0  0  0  0  0  0  0
   12.9631    0.4278   16.7440 H   0  0  0  0  0  0  0  0  0  0  0  0
  1  2  2  0
  2  3  1  0
  3  4  1  0
  4  5  2  0
  4  6  1  0
  6  7  1  0
  7  8  1  0
  8  9  1  0
  9 10  1  0
 10 11  2  0
 10 12  2  0
  8 13  1  0
 13 14  2  0
 14 15  1  0
 15 16  2  0
 16 17  1  0
 17 18  2  0
  6 19  1  0
 19  2  1  0
 18  6  1  0
 18 13  1  0
  3 20  1  0
  7 21  1  0
  7 22  1  0
  8 23  1  0
  9 24  1  0
  9 25  1  0
 10 26  1  0
 14 27  1  0
 15 28  1  0
 16 29  1  0
 17 30  1  0
 19 31  1  0
M  END
>  <Energy>  (20) 
-28.3871374239651

>  <compound_id>  (20) 
372

>  <target_id>  (20) 
1

>  <reference_id>  (20) 
103

>  <inspiration_ids>  (20) 
[50, 103]

>  <energy_score>  (20) 
-42.63941045853764

>  <distance_score>  (20) 
1.7295792769122265

>  <path>  (20) 
/opt/xchem-fragalysis-2/maxwin/BulkDock/SCRATCH/505733/C372-P103/C372-P103.minimised.mol

>  <scratch_subdir>  (20) 
/opt/xchem-fragalysis-2/maxwin/BulkDock/SCRATCH/505733/C372-P103

>  <fragmenstein_runtime>  (20) 
3.8653812408447266

>  <fragmenstein_outcome>  (20) 
too moved

>  <fragmenstein_mode>  (20) 
expansion

>  <fragmenstein_error>  (20) 


$$$$
C42-P50
     RDKit          2D

  0  0  0  0  0  0  0  0  0  0999 V2000
M  END
>  <compound_id>  (21) 
42

>  <target_id>  (21) 
1

>  <reference_id>  (21) 
50

>  <inspiration_ids>  (21) 
[50, 114]

>  <energy_score>  (21) 
nan

>  <distance_score>  (21) 
nan

>  <path>  (21) 
/opt/xchem-fragalysis-2/maxwin/BulkDock/SCRATCH/505733/C42-P50/C42-P50.minimised.mol

>  <scratch_subdir>  (21) 
/opt/xchem-fragalysis-2/maxwin/BulkDock/SCRATCH/505733/C42-P50

>  <fragmenstein_runtime>  (21) 
0.31173086166381836

>  <fragmenstein_outcome>  (21) 
crashed

>  <fragmenstein_mode>  (21) 
expansion

>  <fragmenstein_error>  (21) 
PoisonError: None has poison atoms [8, 7, 6, 5]

$$$$
C42-P50
     RDKit          3D

 25 27  0  0  0  0  0  0  0  0999 V2000
   11.5965   -3.6856   15.7820 O   0  0  0  0  0  0  0  0  0  0  0  0
   12.3354   -2.7299   15.6818 C   0  0  0  0  0  0  0  0  0  0  0  0
   12.9642   -2.1187   16.6977 N   0  0  0  0  0  0  0  0  0  0  0  0
   13.1543   -0.8267   16.3269 C   0  0  0  0  0  0  0  0  0  0  0  0
   13.2939    0.1010   17.1033 O   0  0  0  0  0  0  0  0  0  0  0  0
   13.1546   -0.7479   14.7994 C   0  0  0  0  0  0  0  0  0  0  0  0
   14.6141   -0.6318   14.3203 C   0  0  0  0  0  0  0  0  0  0  0  0
   14.8840    0.8710   14.2001 C   0  0  0  0  0  0  0  0  0  0  0  0
   13.5228    1.4125   13.8942 C   0  0  0  0  0  0  0  0  0  0  0  0
   13.2230    2.6955   13.4656 C   0  0  0  0  0  0  0  0  0  0  0  0
   11.8927    3.0726   13.3526 C   0  0  0  0  0  0  0  0  0  0  0  0
   10.8919    2.1579   13.6651 C   0  0  0  0  0  0  0  0  0  0  0  0
   11.1950    0.8487   14.0650 C   0  0  0  0  0  0  0  0  0  0  0  0
   12.5244    0.4863   14.2080 C   0  0  0  0  0  0  0  0  0  0  0  0
   12.5318   -2.0156   14.5342 N   0  0  0  0  0  0  0  0  0  0  0  0
   12.7883   -2.4029   17.6456 H   0  0  0  0  0  0  0  0  0  0  0  0
   14.7542   -1.0936   13.3391 H   0  0  0  0  0  0  0  0  0  0  0  0
   15.3364   -1.1113   14.9914 H   0  0  0  0  0  0  0  0  0  0  0  0
   15.2490    1.2842   15.1464 H   0  0  0  0  0  0  0  0  0  0  0  0
   15.6028    1.0830   13.4032 H   0  0  0  0  0  0  0  0  0  0  0  0
   14.0155    3.4104   13.2609 H   0  0  0  0  0  0  0  0  0  0  0  0
   11.6413    4.0906   13.0663 H   0  0  0  0  0  0  0  0  0  0  0  0
    9.8745    2.5178   13.6702 H   0  0  0  0  0  0  0  0  0  0  0  0
   10.4001    0.1584   14.3359 H   0  0  0  0  0  0  0  0  0  0  0  0
   11.9687   -2.2384   13.7253 H   0  0  0  0  0  0  0  0  0  0  0  0
  1  2  2  0
  2  3  1  0
  3  4  1  0
  4  5  2  0
  4  6  1  0
  6  7  1  0
  7  8  1  0
  8  9  1  0
  9 10  2  0
 10 11  1  0
 11 12  2  0
 12 13  1  0
 13 14  2  0
  6 15  1  0
 15  2  1  0
 14  6  1  0
 14  9  1  0
  3 16  1  0
  7 17  1  0
  7 18  1  0
  8 19  1  0
  8 20  1  0
 10 21  1  0
 11 22  1  0
 12 23  1  0
 13 24  1  0
 15 25  1  0
M  END
>  <Energy>  (22) 
-32.703860002161107

>  <compound_id>  (22) 
42

>  <target_id>  (22) 
1

>  <reference_id>  (22) 
50

>  <inspiration_ids>  (22) 
[50, 118]

>  <energy_score>  (22) 
-32.90203493085322

>  <distance_score>  (22) 
2.1601553019782

>  <path>  (22) 
/opt/xchem-fragalysis-2/maxwin/BulkDock/SCRATCH/505733/C42-P50/C42-P50.minimised.mol

>  <scratch_subdir>  (22) 
/opt/xchem-fragalysis-2/maxwin/BulkDock/SCRATCH/505733/C42-P50

>  <fragmenstein_runtime>  (22) 
5.630102872848511

>  <fragmenstein_outcome>  (22) 
too moved

>  <fragmenstein_mode>  (22) 
expansion

>  <fragmenstein_error>  (22) 


$$$$
C42-P118
     RDKit          3D

 25 27  0  0  0  0  0  0  0  0999 V2000
   11.3163   -3.5690   15.8636 O   0  0  0  0  0  0  0  0  0  0  0  0
   12.0107   -2.6280   15.5439 C   0  0  0  0  0  0  0  0  0  0  0  0
   12.9645   -2.0680   16.3106 N   0  0  0  0  0  0  0  0  0  0  0  0
   13.2046   -0.8184   15.8380 C   0  0  0  0  0  0  0  0  0  0  0  0
   13.7195    0.0742   16.4877 O   0  0  0  0  0  0  0  0  0  0  0  0
   12.7134   -0.7451   14.3886 C   0  0  0  0  0  0  0  0  0  0  0  0
   13.9007   -0.8763   13.4208 C   0  0  0  0  0  0  0  0  0  0  0  0
   14.3427    0.5605   13.1249 C   0  0  0  0  0  0  0  0  0  0  0  0
   13.0551    1.3116   13.2617 C   0  0  0  0  0  0  0  0  0  0  0  0
   12.7939    2.6085   12.8524 C   0  0  0  0  0  0  0  0  0  0  0  0
   11.5678    3.1828   13.1692 C   0  0  0  0  0  0  0  0  0  0  0  0
   10.6281    2.4516   13.8903 C   0  0  0  0  0  0  0  0  0  0  0  0
   10.8836    1.1282   14.2705 C   0  0  0  0  0  0  0  0  0  0  0  0
   12.1127    0.5666   13.9715 C   0  0  0  0  0  0  0  0  0  0  0  0
   11.8577   -1.8977   14.3982 N   0  0  0  0  0  0  0  0  0  0  0  0
   13.1100   -2.3433   17.2669 H   0  0  0  0  0  0  0  0  0  0  0  0
   13.5723   -1.3523   12.4858 H   0  0  0  0  0  0  0  0  0  0  0  0
   14.7278   -1.4789   13.8127 H   0  0  0  0  0  0  0  0  0  0  0  0
   15.0661    0.9145   13.8668 H   0  0  0  0  0  0  0  0  0  0  0  0
   14.7683    0.6457   12.1208 H   0  0  0  0  0  0  0  0  0  0  0  0
   13.5489    3.1850   12.3241 H   0  0  0  0  0  0  0  0  0  0  0  0
   11.3685    4.2162   12.8960 H   0  0  0  0  0  0  0  0  0  0  0  0
    9.7187    2.9490   14.2122 H   0  0  0  0  0  0  0  0  0  0  0  0
   10.1506    0.5754   14.8508 H   0  0  0  0  0  0  0  0  0  0  0  0
   11.1097   -2.0807   13.7333 H   0  0  0  0  0  0  0  0  0  0  0  0
  1  2  2  0
  2  3  1  0
  3  4  1  0
  4  5  2  0
  4  6  1  0
  6  7  1  0
  7  8  1  0
  8  9  1  0
  9 10  2  0
 10 11  1  0
 11 12  2  0
 12 13  1  0
 13 14  2  0
  6 15  1  0
 15  2  1  0
 14  6  1  0
 14  9  1  0
  3 16  1  0
  7 17  1  0
  7 18  1  0
  8 19  1  0
  8 20  1  0
 10 21  1  0
 11 22  1  0
 12 23  1  0
 13 24  1  0
 15 25  1  0
M  END
>  <Energy>  (23) 
-34.260764405105036

>  <compound_id>  (23) 
42

>  <target_id>  (23) 
1

>  <reference_id>  (23) 
118

>  <inspiration_ids>  (23) 
[50, 118]

>  <energy_score>  (23) 
-34.45893933379761

>  <distance_score>  (23) 
2.210138196922183

>  <path>  (23) 
/opt/xchem-fragalysis-2/maxwin/BulkDock/SCRATCH/505733/C42-P118/C42-P118.minimised.mol

>  <scratch_subdir>  (23) 
/opt/xchem-fragalysis-2/maxwin/BulkDock/SCRATCH/505733/C42-P118

>  <fragmenstein_runtime>  (23) 
5.066154956817627

>  <fragmenstein_outcome>  (23) 
too moved

>  <fragmenstein_mode>  (23) 
expansion

>  <fragmenstein_error>  (23) 


$$$$
C377-P50
     RDKit          3D

 59 62  0  0  0  0  0  0  0  0999 V2000
   12.0261   -3.1996   16.0696 C   0  0  0  0  0  0  0  0  0  0  0  0
   13.0112   -2.1647   16.5563 C   0  0  0  0  0  0  0  0  0  0  0  0
   12.6866   -1.1194   16.9819 O   0  0  0  0  0  0  0  0  0  0  0  0
   14.3850   -2.7220   16.2804 N   0  0  0  0  0  0  0  0  0  0  0  0
   14.9372   -3.4456   17.4899 C   0  0  0  0  0  0  0  0  0  0  0  0
   16.2896   -4.1044   17.2229 C   0  0  0  0  0  0  0  0  0  0  0  0
   17.0506   -4.3454   18.5059 C   0  0  0  0  0  0  0  0  0  0  0  0
   18.2580   -4.3329   18.6736 O   0  0  0  0  0  0  0  0  0  0  0  0
   16.2425   -4.6982   19.5271 O   0  0  0  0  0  0  0  0  0  0  0  0
   16.8038   -3.1341   16.1922 C   0  0  0  0  0  0  0  0  0  0  0  0
   18.2768   -2.6637   16.2425 C   0  0  0  0  0  0  0  0  0  0  0  0
   18.7576   -2.0392   14.8889 C   0  0  0  0  0  0  0  0  0  0  0  0
   18.2218   -0.6372   14.7462 C   0  0  0  0  0  0  0  0  0  0  0  0
   17.3936   -0.3324   13.7310 C   0  0  0  0  0  0  0  0  0  0  0  0
   16.5052    0.6852   13.8432 N   0  0  0  0  0  0  0  0  0  0  0  0
   15.2221    1.0095   13.0077 C   0  0  0  0  0  0  0  0  0  0  0  0
   14.7887    0.4904   12.0538 O   0  0  0  0  0  0  0  0  0  0  0  0
   14.5368    2.1385   13.7722 C   0  0  0  0  0  0  0  0  0  0  0  0
   14.1739    1.6624   15.2108 C   0  0  0  0  0  0  0  0  0  0  0  0
   12.7322    1.1635   15.1643 C   0  0  0  0  0  0  0  0  0  0  0  0
   12.1696    2.1109   14.1682 C   0  0  0  0  0  0  0  0  0  0  0  0
   10.8745    2.5861   14.1146 C   0  0  0  0  0  0  0  0  0  0  0  0
   10.5809    3.5547   13.1623 C   0  0  0  0  0  0  0  0  0  0  0  0
   11.5519    3.9536   12.2306 C   0  0  0  0  0  0  0  0  0  0  0  0
   12.8534    3.4489   12.2829 C   0  0  0  0  0  0  0  0  0  0  0  0
   13.1677    2.5671   13.2982 C   0  0  0  0  0  0  0  0  0  0  0  0
   18.4916    0.2289   15.9649 C   0  0  0  0  0  0  0  0  0  0  0  0
   19.1771   -0.5478   17.1049 C   0  0  0  0  0  0  0  0  0  0  0  0
   18.4644   -1.7873   17.4161 N   0  0  0  0  0  0  0  0  0  0  0  0
   15.7276   -2.0825   16.3691 C   0  0  0  0  0  0  0  0  0  0  0  0
   12.2958   -3.5328   15.0652 H   0  0  0  0  0  0  0  0  0  0  0  0
   11.9922   -4.0467   16.7568 H   0  0  0  0  0  0  0  0  0  0  0  0
   11.0369   -2.7425   15.9976 H   0  0  0  0  0  0  0  0  0  0  0  0
   14.2089   -4.2390   17.7124 H   0  0  0  0  0  0  0  0  0  0  0  0
   14.8918   -2.8069   18.3912 H   0  0  0  0  0  0  0  0  0  0  0  0
   16.1604   -5.0850   16.7545 H   0  0  0  0  0  0  0  0  0  0  0  0
   16.8566   -4.8642   20.2754 H   0  0  0  0  0  0  0  0  0  0  0  0
   16.6587   -3.6028   15.2085 H   0  0  0  0  0  0  0  0  0  0  0  0
   18.9053   -3.5544   16.3734 H   0  0  0  0  0  0  0  0  0  0  0  0
   18.4501   -2.6821   14.0550 H   0  0  0  0  0  0  0  0  0  0  0  0
   19.8545   -2.0066   14.8612 H   0  0  0  0  0  0  0  0  0  0  0  0
   17.2087   -1.0120   12.9011 H   0  0  0  0  0  0  0  0  0  0  0  0
   16.5391    1.2838   14.6580 H   0  0  0  0  0  0  0  0  0  0  0  0
   15.2120    3.0013   13.8162 H   0  0  0  0  0  0  0  0  0  0  0  0
   14.2309    2.5294   15.8859 H   0  0  0  0  0  0  0  0  0  0  0  0
   14.8167    0.8928   15.6444 H   0  0  0  0  0  0  0  0  0  0  0  0
   12.6632    0.1430   14.7770 H   0  0  0  0  0  0  0  0  0  0  0  0
   12.2473    1.2498   16.1396 H   0  0  0  0  0  0  0  0  0  0  0  0
   10.1380    2.2708   14.8457 H   0  0  0  0  0  0  0  0  0  0  0  0
    9.6026    4.0294   13.1522 H   0  0  0  0  0  0  0  0  0  0  0  0
   11.3126    4.7151   11.4922 H   0  0  0  0  0  0  0  0  0  0  0  0
   13.6152    3.8153   11.6017 H   0  0  0  0  0  0  0  0  0  0  0  0
   17.5525    0.6385   16.3551 H   0  0  0  0  0  0  0  0  0  0  0  0
   19.1319    1.0703   15.6760 H   0  0  0  0  0  0  0  0  0  0  0  0
   19.2001    0.0823   18.0010 H   0  0  0  0  0  0  0  0  0  0  0  0
   20.2216   -0.7658   16.8496 H   0  0  0  0  0  0  0  0  0  0  0  0
   18.9744   -2.3132   18.1346 H   0  0  0  0  0  0  0  0  0  0  0  0
   15.8232   -1.3926   17.2252 H   0  0  0  0  0  0  0  0  0  0  0  0
   15.7239   -1.4152   15.5054 H   0  0  0  0  0  0  0  0  0  0  0  0
  1  2  1  0
  2  3  2  0
  2  4  1  0
  4  5  1  0
  5  6  1  0
  6  7  1  0
  7  8  2  0
  7  9  1  0
  6 10  1  0
 10 11  1  0
 11 12  1  0
 12 13  1  0
 13 14  2  3
 14 15  1  0
 15 16  1  0
 16 17  2  0
 16 18  1  0
 18 19  1  0
 19 20  1  0
 20 21  1  0
 21 22  2  0
 22 23  1  0
 23 24  2  0
 24 25  1  0
 25 26  2  0
 13 27  1  0
 27 28  1  0
 28 29  1  0
 10 30  1  0
 30  4  1  0
 29 11  1  0
 26 18  1  0
 26 21  1  0
  1 31  1  0
  1 32  1  0
  1 33  1  0
  5 34  1  0
  5 35  1  0
  6 36  1  0
  9 37  1  0
 10 38  1  0
 11 39  1  0
 12 40  1  0
 12 41  1  0
 14 42  1  0
 15 43  1  0
 18 44  1  0
 19 45  1  0
 19 46  1  0
 20 47  1  0
 20 48  1  0
 22 49  1  0
 23 50  1  0
 24 51  1  0
 25 52  1  0
 27 53  1  0
 27 54  1  0
 28 55  1  0
 28 56  1  0
 29 57  1  0
 30 58  1  0
 30 59  1  0
M  END
>  <Energy>  (24) 
129.83094204679111

>  <compound_id>  (24) 
377

>  <target_id>  (24) 
1

>  <reference_id>  (24) 
50

>  <inspiration_ids>  (24) 
[50, 120]

>  <energy_score>  (24) 
15.930343770262766

>  <distance_score>  (24) 
3.39310835724651

>  <path>  (24) 
/opt/xchem-fragalysis-2/maxwin/BulkDock/SCRATCH/505733/C377-P50/C377-P50.minimised.mol

>  <scratch_subdir>  (24) 
/opt/xchem-fragalysis-2/maxwin/BulkDock/SCRATCH/505733/C377-P50

>  <fragmenstein_runtime>  (24) 
7.217713832855225

>  <fragmenstein_outcome>  (24) 
too moved

>  <fragmenstein_mode>  (24) 
expansion

>  <fragmenstein_error>  (24) 


$$$$
C377-P120
     RDKit          3D

 59 62  0  0  0  0  0  0  0  0999 V2000
   13.1169   -3.5926   17.2825 C   0  0  0  0  0  0  0  0  0  0  0  0
   14.4794   -3.1595   16.7983 C   0  0  0  0  0  0  0  0  0  0  0  0
   14.9521   -3.5606   15.8025 O   0  0  0  0  0  0  0  0  0  0  0  0
   14.9849   -2.1229   17.7701 N   0  0  0  0  0  0  0  0  0  0  0  0
   14.4970   -0.7496   17.4044 C   0  0  0  0  0  0  0  0  0  0  0  0
   14.8110    0.2542   18.4861 C   0  0  0  0  0  0  0  0  0  0  0  0
   14.4260    1.6700   18.1538 C   0  0  0  0  0  0  0  0  0  0  0  0
   14.9189    2.6756   18.6355 O   0  0  0  0  0  0  0  0  0  0  0  0
   13.4065    1.7518   17.2809 O   0  0  0  0  0  0  0  0  0  0  0  0
   16.2591   -0.0953   18.6299 C   0  0  0  0  0  0  0  0  0  0  0  0
   17.3461    0.9300   18.1968 C   0  0  0  0  0  0  0  0  0  0  0  0
   17.2330    1.4625   16.7285 C   0  0  0  0  0  0  0  0  0  0  0  0
   18.1250    0.7806   15.7219 C   0  0  0  0  0  0  0  0  0  0  0  0
   17.7907    0.2894   14.5157 C   0  0  0  0  0  0  0  0  0  0  0  0
   16.6250    0.3515   13.8032 N   0  0  0  0  0  0  0  0  0  0  0  0
   15.3927    1.3205   13.9434 C   0  0  0  0  0  0  0  0  0  0  0  0
   15.2343    2.2529   14.6390 O   0  0  0  0  0  0  0  0  0  0  0  0
   14.3218    0.7777   12.9705 C   0  0  0  0  0  0  0  0  0  0  0  0
   13.7785   -0.5761   13.4730 C   0  0  0  0  0  0  0  0  0  0  0  0
   12.5253   -0.2811   14.3111 C   0  0  0  0  0  0  0  0  0  0  0  0
   12.0735    1.0274   13.7558 C   0  0  0  0  0  0  0  0  0  0  0  0
   10.8967    1.6979   14.0383 C   0  0  0  0  0  0  0  0  0  0  0  0
   10.6853    2.9435   13.4469 C   0  0  0  0  0  0  0  0  0  0  0  0
   11.6266    3.4767   12.5570 C   0  0  0  0  0  0  0  0  0  0  0  0
   12.8262    2.8060   12.3056 C   0  0  0  0  0  0  0  0  0  0  0  0
   13.0545    1.5968   12.9418 C   0  0  0  0  0  0  0  0  0  0  0  0
   19.5441    0.5647   16.2234 C   0  0  0  0  0  0  0  0  0  0  0  0
   19.7312    0.9132   17.7065 C   0  0  0  0  0  0  0  0  0  0  0  0
   18.6621    0.3338   18.5172 N   0  0  0  0  0  0  0  0  0  0  0  0
   16.2813   -1.3721   17.8094 C   0  0  0  0  0  0  0  0  0  0  0  0
   12.3803   -2.8262   17.0336 H   0  0  0  0  0  0  0  0  0  0  0  0
   13.1359   -3.7725   18.3602 H   0  0  0  0  0  0  0  0  0  0  0  0
   12.8224   -4.5154   16.7778 H   0  0  0  0  0  0  0  0  0  0  0  0
   13.4052   -0.8386   17.3459 H   0  0  0  0  0  0  0  0  0  0  0  0
   14.7852   -0.4605   16.3802 H   0  0  0  0  0  0  0  0  0  0  0  0
   14.2683   -0.0143   19.4019 H   0  0  0  0  0  0  0  0  0  0  0  0
   13.3185    2.7136   17.0910 H   0  0  0  0  0  0  0  0  0  0  0  0
   16.4337   -0.3465   19.6867 H   0  0  0  0  0  0  0  0  0  0  0  0
   17.2391    1.8062   18.8496 H   0  0  0  0  0  0  0  0  0  0  0  0
   17.4944    2.5290   16.7263 H   0  0  0  0  0  0  0  0  0  0  0  0
   16.1990    1.3886   16.4244 H   0  0  0  0  0  0  0  0  0  0  0  0
   18.5431   -0.3031   13.9931 H   0  0  0  0  0  0  0  0  0  0  0  0
   16.4587   -0.3028   13.0451 H   0  0  0  0  0  0  0  0  0  0  0  0
   14.7481    0.6878   11.9654 H   0  0  0  0  0  0  0  0  0  0  0  0
   14.4975   -1.1727   14.0425 H   0  0  0  0  0  0  0  0  0  0  0  0
   13.4948   -1.1869   12.6073 H   0  0  0  0  0  0  0  0  0  0  0  0
   11.7739   -1.0665   14.1894 H   0  0  0  0  0  0  0  0  0  0  0  0
   12.7616   -0.1603   15.3661 H   0  0  0  0  0  0  0  0  0  0  0  0
   10.1738    1.2744   14.7277 H   0  0  0  0  0  0  0  0  0  0  0  0
    9.7979    3.5216   13.6911 H   0  0  0  0  0  0  0  0  0  0  0  0
   11.4542    4.4509   12.1045 H   0  0  0  0  0  0  0  0  0  0  0  0
   13.5855    3.2578   11.6740 H   0  0  0  0  0  0  0  0  0  0  0  0
   20.2360    1.1755   15.6309 H   0  0  0  0  0  0  0  0  0  0  0  0
   19.8208   -0.4877   16.0752 H   0  0  0  0  0  0  0  0  0  0  0  0
   19.7743    2.0002   17.8498 H   0  0  0  0  0  0  0  0  0  0  0  0
   20.6941    0.5136   18.0441 H   0  0  0  0  0  0  0  0  0  0  0  0
   18.8641    0.4817   19.5068 H   0  0  0  0  0  0  0  0  0  0  0  0
   16.9848   -2.0764   18.2760 H   0  0  0  0  0  0  0  0  0  0  0  0
   16.6744   -1.2759   16.7866 H   0  0  0  0  0  0  0  0  0  0  0  0
  1  2  1  0
  2  3  2  0
  2  4  1  0
  4  5  1  0
  5  6  1  0
  6  7  1  0
  7  8  2  0
  7  9  1  0
  6 10  1  0
 10 11  1  0
 11 12  1  0
 12 13  1  0
 13 14  2  3
 14 15  1  0
 15 16  1  0
 16 17  2  0
 16 18  1  0
 18 19  1  0
 19 20  1  0
 20 21  1  0
 21 22  2  0
 22 23  1  0
 23 24  2  0
 24 25  1  0
 25 26  2  0
 13 27  1  0
 27 28  1  0
 28 29  1  0
 10 30  1  0
 30  4  1  0
 29 11  1  0
 26 18  1  0
 26 21  1  0
  1 31  1  0
  1 32  1  0
  1 33  1  0
  5 34  1  0
  5 35  1  0
  6 36  1  0
  9 37  1  0
 10 38  1  0
 11 39  1  0
 12 40  1  0
 12 41  1  0
 14 42  1  0
 15 43  1  0
 18 44  1  0
 19 45  1  0
 19 46  1  0
 20 47  1  0
 20 48  1  0
 22 49  1  0
 23 50  1  0
 24 51  1  0
 25 52  1  0
 27 53  1  0
 27 54  1  0
 28 55  1  0
 28 56  1  0
 29 57  1  0
 30 58  1  0
 30 59  1  0
M  END
>  <Energy>  (25) 
128.96870091585981

>  <compound_id>  (25) 
377

>  <target_id>  (25) 
1

>  <reference_id>  (25) 
120

>  <inspiration_ids>  (25) 
[50, 120]

>  <energy_score>  (25) 
15.068102639334086

>  <distance_score>  (25) 
2.471227180833124

>  <path>  (25) 
/opt/xchem-fragalysis-2/maxwin/BulkDock/SCRATCH/505733/C377-P120/C377-P120.minimised.mol

>  <scratch_subdir>  (25) 
/opt/xchem-fragalysis-2/maxwin/BulkDock/SCRATCH/505733/C377-P120

>  <fragmenstein_runtime>  (25) 
4.785830974578857

>  <fragmenstein_outcome>  (25) 
too moved

>  <fragmenstein_mode>  (25) 
expansion

>  <fragmenstein_error>  (25) 


$$$$
C378-P50
     RDKit          3D

 53 57  0  0  0  0  0  0  0  0999 V2000
   14.3443    0.1059   18.4415 O   0  0  0  0  0  0  0  0  0  0  0  0
   15.2677   -0.6099   18.4513 C   0  0  0  0  0  0  0  0  0  0  0  0
   16.4199   -0.4541   19.4518 C   0  0  0  0  0  0  0  0  0  0  0  0
   16.3970   -1.5509   20.4590 C   0  0  0  0  0  0  0  0  0  0  0  0
   15.3811   -2.0706   21.2344 C   0  0  0  0  0  0  0  0  0  0  0  0
   15.9850   -3.0971   21.9804 C   0  0  0  0  0  0  0  0  0  0  0  0
   17.2855   -3.2214   21.7078 N   0  0  0  0  0  0  0  0  0  0  0  0
   17.5198   -2.2489   20.8144 N   0  0  0  0  0  0  0  0  0  0  0  0
   15.5956   -1.8413   17.5632 N   0  0  0  0  0  0  0  0  0  0  0  0
   14.8962   -2.3880   16.4150 C   0  0  0  0  0  0  0  0  0  0  0  0
   13.5177   -2.9422   16.8051 C   0  0  0  0  0  0  0  0  0  0  0  0
   12.3916   -2.4538   15.9135 C   0  0  0  0  0  0  0  0  0  0  0  0
   12.4381   -0.9395   15.8643 C   0  0  0  0  0  0  0  0  0  0  0  0
   13.7104   -0.4303   15.1681 C   0  0  0  0  0  0  0  0  0  0  0  0
   14.8551   -1.4672   15.1864 C   0  0  0  0  0  0  0  0  0  0  0  0
   14.1538    0.8139   15.7013 N   0  0  0  0  0  0  0  0  0  0  0  0
   14.4859    1.7268   14.7264 C   0  0  0  0  0  0  0  0  0  0  0  0
   15.1976    2.7040   14.8726 O   0  0  0  0  0  0  0  0  0  0  0  0
   13.6888    1.2960   13.5122 C   0  0  0  0  0  0  0  0  0  0  0  0
   14.3521    1.5885   12.1600 C   0  0  0  0  0  0  0  0  0  0  0  0
   13.7999    2.9372   11.6696 C   0  0  0  0  0  0  0  0  0  0  0  0
   12.4803    3.0186   12.3740 C   0  0  0  0  0  0  0  0  0  0  0  0
   11.4893    3.9695   12.2051 C   0  0  0  0  0  0  0  0  0  0  0  0
   10.4327    4.0102   13.1181 C   0  0  0  0  0  0  0  0  0  0  0  0
   10.3778    3.1091   14.1838 C   0  0  0  0  0  0  0  0  0  0  0  0
   11.3697    2.1489   14.3381 C   0  0  0  0  0  0  0  0  0  0  0  0
   12.4167    2.1058   13.4253 C   0  0  0  0  0  0  0  0  0  0  0  0
   13.4499   -0.1331   13.7493 N   0  0  0  0  0  0  0  0  0  0  0  0
   16.3099    0.5132   19.9554 H   0  0  0  0  0  0  0  0  0  0  0  0
   17.3667   -0.4243   18.9005 H   0  0  0  0  0  0  0  0  0  0  0  0
   14.3451   -1.7585   21.2603 H   0  0  0  0  0  0  0  0  0  0  0  0
   15.5303   -3.7575   22.7079 H   0  0  0  0  0  0  0  0  0  0  0  0
   18.4731   -2.1241   20.4887 H   0  0  0  0  0  0  0  0  0  0  0  0
   16.5235   -2.1843   17.7882 H   0  0  0  0  0  0  0  0  0  0  0  0
   15.5292   -3.2409   16.1425 H   0  0  0  0  0  0  0  0  0  0  0  0
   13.2863   -2.6871   17.8458 H   0  0  0  0  0  0  0  0  0  0  0  0
   13.5401   -4.0378   16.7886 H   0  0  0  0  0  0  0  0  0  0  0  0
   11.4314   -2.7917   16.3116 H   0  0  0  0  0  0  0  0  0  0  0  0
   12.4748   -2.8794   14.9066 H   0  0  0  0  0  0  0  0  0  0  0  0
   11.5280   -0.5922   15.3644 H   0  0  0  0  0  0  0  0  0  0  0  0
   12.3770   -0.5409   16.8816 H   0  0  0  0  0  0  0  0  0  0  0  0
   14.7410   -2.1334   14.3178 H   0  0  0  0  0  0  0  0  0  0  0  0
   15.8308   -0.9799   15.0524 H   0  0  0  0  0  0  0  0  0  0  0  0
   14.5311    0.9041   16.6384 H   0  0  0  0  0  0  0  0  0  0  0  0
   14.0700    0.8278   11.4232 H   0  0  0  0  0  0  0  0  0  0  0  0
   15.4467    1.5927   12.2059 H   0  0  0  0  0  0  0  0  0  0  0  0
   13.6894    2.9535   10.5816 H   0  0  0  0  0  0  0  0  0  0  0  0
   14.4462    3.7610   11.9905 H   0  0  0  0  0  0  0  0  0  0  0  0
   11.5698    4.7201   11.4237 H   0  0  0  0  0  0  0  0  0  0  0  0
    9.6766    4.7886   13.0314 H   0  0  0  0  0  0  0  0  0  0  0  0
    9.5872    3.1964   14.9255 H   0  0  0  0  0  0  0  0  0  0  0  0
   11.3579    1.5233   15.2214 H   0  0  0  0  0  0  0  0  0  0  0  0
   12.4909   -0.3588   13.5015 H   0  0  0  0  0  0  0  0  0  0  0  0
  1  2  2  0
  2  3  1  0
  3  4  1  0
  4  5  2  0
  5  6  1  0
  6  7  2  0
  7  8  1  0
  2  9  1  0
  9 10  1  0
 10 11  1  0
 11 12  1  0
 12 13  1  0
 13 14  1  0
 14 15  1  0
 14 16  1  0
 16 17  1  0
 17 18  2  0
 17 19  1  0
 19 20  1  0
 20 21  1  0
 21 22  1  0
 22 23  2  0
 23 24  1  0
 24 25  2  0
 25 26  1  0
 26 27  2  0
 19 28  1  0
  8  4  1  0
 15 10  1  0
 27 19  1  0
 28 14  1  0
 27 22  1  0
  3 29  1  0
  3 30  1  0
  5 31  1  0
  6 32  1  0
  8 33  1  0
  9 34  1  0
 10 35  1  0
 11 36  1  0
 11 37  1  0
 12 38  1  0
 12 39  1  0
 13 40  1  0
 13 41  1  0
 15 42  1  0
 15 43  1  0
 16 44  1  0
 20 45  1  0
 20 46  1  0
 21 47  1  0
 21 48  1  0
 23 49  1  0
 24 50  1  0
 25 51  1  0
 26 52  1  0
 28 53  1  0
M  END
>  <Energy>  (26) 
58.199650158704536

>  <compound_id>  (26) 
378

>  <target_id>  (26) 
1

>  <reference_id>  (26) 
50

>  <inspiration_ids>  (26) 
[50, 122]

>  <energy_score>  (26) 
-15.74563654131282

>  <distance_score>  (26) 
2.2967959901847492

>  <path>  (26) 
/opt/xchem-fragalysis-2/maxwin/BulkDock/SCRATCH/505733/C378-P50/C378-P50.minimised.mol

>  <scratch_subdir>  (26) 
/opt/xchem-fragalysis-2/maxwin/BulkDock/SCRATCH/505733/C378-P50

>  <fragmenstein_runtime>  (26) 
4.544971227645874

>  <fragmenstein_outcome>  (26) 
too moved

>  <fragmenstein_mode>  (26) 
expansion

>  <fragmenstein_error>  (26) 


$$$$
C378-P122
     RDKit          3D

 53 57  0  0  0  0  0  0  0  0999 V2000
   16.4557   -1.9937   17.1579 O   0  0  0  0  0  0  0  0  0  0  0  0
   15.7964   -2.9538   17.2641 C   0  0  0  0  0  0  0  0  0  0  0  0
   16.2112   -4.1213   18.1664 C   0  0  0  0  0  0  0  0  0  0  0  0
   15.2871   -4.3350   19.3133 C   0  0  0  0  0  0  0  0  0  0  0  0
   14.3858   -3.5196   19.9630 C   0  0  0  0  0  0  0  0  0  0  0  0
   13.8134   -4.3274   20.9612 C   0  0  0  0  0  0  0  0  0  0  0  0
   14.3267   -5.5596   20.9644 N   0  0  0  0  0  0  0  0  0  0  0  0
   15.2686   -5.5164   20.0084 N   0  0  0  0  0  0  0  0  0  0  0  0
   14.4890   -3.3671   16.5240 N   0  0  0  0  0  0  0  0  0  0  0  0
   13.6719   -2.6332   15.5654 C   0  0  0  0  0  0  0  0  0  0  0  0
   12.5650   -1.8220   16.2052 C   0  0  0  0  0  0  0  0  0  0  0  0
   12.9912   -0.4687   16.7152 C   0  0  0  0  0  0  0  0  0  0  0  0
   14.2108    0.0978   16.0470 C   0  0  0  0  0  0  0  0  0  0  0  0
   14.3750   -0.3481   14.5936 C   0  0  0  0  0  0  0  0  0  0  0  0
   14.5160   -1.8720   14.5259 C   0  0  0  0  0  0  0  0  0  0  0  0
   15.5030    0.3435   14.0687 N   0  0  0  0  0  0  0  0  0  0  0  0
   15.1062    1.5740   13.5833 C   0  0  0  0  0  0  0  0  0  0  0  0
   15.8138    2.5621   13.5056 O   0  0  0  0  0  0  0  0  0  0  0  0
   13.6686    1.3897   13.1501 C   0  0  0  0  0  0  0  0  0  0  0  0
   13.6379    1.4722   11.6093 C   0  0  0  0  0  0  0  0  0  0  0  0
   12.3167    2.1192   11.2047 C   0  0  0  0  0  0  0  0  0  0  0  0
   11.9013    2.8368   12.4393 C   0  0  0  0  0  0  0  0  0  0  0  0
   10.8443    3.7219   12.5646 C   0  0  0  0  0  0  0  0  0  0  0  0
   10.4753    4.1377   13.8391 C   0  0  0  0  0  0  0  0  0  0  0  0
   11.1928    3.7016   14.9564 C   0  0  0  0  0  0  0  0  0  0  0  0
   12.2969    2.8627   14.8092 C   0  0  0  0  0  0  0  0  0  0  0  0
   12.6467    2.4196   13.5443 C   0  0  0  0  0  0  0  0  0  0  0  0
   13.2944    0.0620   13.6822 N   0  0  0  0  0  0  0  0  0  0  0  0
   16.2860   -5.0222   17.5469 H   0  0  0  0  0  0  0  0  0  0  0  0
   17.2174   -3.9113   18.5489 H   0  0  0  0  0  0  0  0  0  0  0  0
   14.1681   -2.4832   19.7521 H   0  0  0  0  0  0  0  0  0  0  0  0
   13.0475   -4.0656   21.6819 H   0  0  0  0  0  0  0  0  0  0  0  0
   15.8436   -6.3426   19.8668 H   0  0  0  0  0  0  0  0  0  0  0  0
   14.1333   -4.2310   16.9201 H   0  0  0  0  0  0  0  0  0  0  0  0
   13.1118   -3.4197   15.0642 H   0  0  0  0  0  0  0  0  0  0  0  0
   11.7677   -1.6752   15.4638 H   0  0  0  0  0  0  0  0  0  0  0  0
   12.1107   -2.4019   17.0116 H   0  0  0  0  0  0  0  0  0  0  0  0
   12.1601    0.2266   16.5701 H   0  0  0  0  0  0  0  0  0  0  0  0
   13.2106   -0.5112   17.7830 H   0  0  0  0  0  0  0  0  0  0  0  0
   14.2216    1.1847   16.1585 H   0  0  0  0  0  0  0  0  0  0  0  0
   15.0972   -0.2007   16.6138 H   0  0  0  0  0  0  0  0  0  0  0  0
   15.5733   -2.1556   14.6115 H   0  0  0  0  0  0  0  0  0  0  0  0
   14.2372   -2.2126   13.5185 H   0  0  0  0  0  0  0  0  0  0  0  0
   16.4034    0.3046   14.5309 H   0  0  0  0  0  0  0  0  0  0  0  0
   13.7856    0.4981   11.1324 H   0  0  0  0  0  0  0  0  0  0  0  0
   14.4573    2.1050   11.2386 H   0  0  0  0  0  0  0  0  0  0  0  0
   11.5567    1.3668   11.0052 H   0  0  0  0  0  0  0  0  0  0  0  0
   12.4334    2.7835   10.3444 H   0  0  0  0  0  0  0  0  0  0  0  0
   10.3168    4.0902   11.6934 H   0  0  0  0  0  0  0  0  0  0  0  0
    9.6488    4.8325   13.9690 H   0  0  0  0  0  0  0  0  0  0  0  0
   10.9163    4.0544   15.9485 H   0  0  0  0  0  0  0  0  0  0  0  0
   12.8504    2.5839   15.6947 H   0  0  0  0  0  0  0  0  0  0  0  0
   12.4088    0.1251   14.1744 H   0  0  0  0  0  0  0  0  0  0  0  0
  1  2  2  0
  2  3  1  0
  3  4  1  0
  4  5  2  0
  5  6  1  0
  6  7  2  0
  7  8  1  0
  2  9  1  0
  9 10  1  0
 10 11  1  0
 11 12  1  0
 12 13  1  0
 13 14  1  0
 14 15  1  0
 14 16  1  0
 16 17  1  0
 17 18  2  0
 17 19  1  0
 19 20  1  0
 20 21  1  0
 21 22  1  0
 22 23  2  0
 23 24  1  0
 24 25  2  0
 25 26  1  0
 26 27  2  0
 19 28  1  0
  8  4  1  0
 15 10  1  0
 27 19  1  0
 28 14  1  0
 27 22  1  0
  3 29  1  0
  3 30  1  0
  5 31  1  0
  6 32  1  0
  8 33  1  0
  9 34  1  0
 10 35  1  0
 11 36  1  0
 11 37  1  0
 12 38  1  0
 12 39  1  0
 13 40  1  0
 13 41  1  0
 15 42  1  0
 15 43  1  0
 16 44  1  0
 20 45  1  0
 20 46  1  0
 21 47  1  0
 21 48  1  0
 23 49  1  0
 24 50  1  0
 25 51  1  0
 26 52  1  0
 28 53  1  0
M  END
>  <Energy>  (27) 
63.761851567579299

>  <compound_id>  (27) 
378

>  <target_id>  (27) 
1

>  <reference_id>  (27) 
122

>  <inspiration_ids>  (27) 
[50, 122]

>  <energy_score>  (27) 
-10.18343513243913

>  <distance_score>  (27) 
1.9003333090512986

>  <path>  (27) 
/opt/xchem-fragalysis-2/maxwin/BulkDock/SCRATCH/505733/C378-P122/C378-P122.minimised.mol

>  <scratch_subdir>  (27) 
/opt/xchem-fragalysis-2/maxwin/BulkDock/SCRATCH/505733/C378-P122

>  <fragmenstein_runtime>  (27) 
4.314230680465698

>  <fragmenstein_outcome>  (27) 
too moved

>  <fragmenstein_mode>  (27) 
expansion

>  <fragmenstein_error>  (27) 


$$$$
C380-P50
     RDKit          3D

 50 53  0  0  0  0  0  0  0  0999 V2000
   10.8250   -2.4708   14.5540 C   0  0  0  0  0  0  0  0  0  0  0  0
   11.5654   -1.1300   14.6114 C   0  0  0  0  0  0  0  0  0  0  0  0
   10.7278   -0.0807   14.1795 O   0  0  0  0  0  0  0  0  0  0  0  0
   11.9855   -0.8898   15.9727 N   0  0  0  0  0  0  0  0  0  0  0  0
   13.3852   -1.3771   15.9993 C   0  0  0  0  0  0  0  0  0  0  0  0
   14.3479   -0.2203   16.3675 C   0  0  0  0  0  0  0  0  0  0  0  0
   15.6494   -0.9057   16.7778 C   0  0  0  0  0  0  0  0  0  0  0  0
   15.0874   -2.1271   17.4335 C   0  0  0  0  0  0  0  0  0  0  0  0
   15.7231   -2.9285   18.3542 C   0  0  0  0  0  0  0  0  0  0  0  0
   14.9967   -3.9718   18.9122 C   0  0  0  0  0  0  0  0  0  0  0  0
   13.6814   -4.2221   18.5038 C   0  0  0  0  0  0  0  0  0  0  0  0
   13.0799   -3.4724   17.4984 C   0  0  0  0  0  0  0  0  0  0  0  0
   13.7748   -2.3922   17.0068 C   0  0  0  0  0  0  0  0  0  0  0  0
   13.7299   -1.7924   14.5998 C   0  0  0  0  0  0  0  0  0  0  0  0
   14.7342   -2.3598   14.2147 O   0  0  0  0  0  0  0  0  0  0  0  0
   12.7667   -1.1407   13.8343 N   0  0  0  0  0  0  0  0  0  0  0  0
   13.2699    0.0921   13.4023 N   0  0  0  0  0  0  0  0  0  0  0  0
   14.6769    0.4685   12.8153 C   0  0  0  0  0  0  0  0  0  0  0  0
   15.5907   -0.2128   12.5364 O   0  0  0  0  0  0  0  0  0  0  0  0
   14.8743    1.9492   12.7011 C   0  0  0  0  0  0  0  0  0  0  0  0
   13.6304    2.8380   11.8902 S   0  0  0  0  0  0  0  0  0  0  0  0
   14.1811    4.1295   11.5262 O   0  0  0  0  0  0  0  0  0  0  0  0
   13.0027    1.9938   10.8944 O   0  0  0  0  0  0  0  0  0  0  0  0
   12.3576    3.2100   13.0723 C   0  0  0  0  0  0  0  0  0  0  0  0
   12.4688    2.9709   14.4452 C   0  0  0  0  0  0  0  0  0  0  0  0
   11.3589    3.1672   15.2654 C   0  0  0  0  0  0  0  0  0  0  0  0
   10.1750    3.6692   14.7291 C   0  0  0  0  0  0  0  0  0  0  0  0
   10.1011    3.9968   13.3786 C   0  0  0  0  0  0  0  0  0  0  0  0
   11.1876    3.7530   12.5469 C   0  0  0  0  0  0  0  0  0  0  0  0
   11.3583   -3.2822   15.0571 H   0  0  0  0  0  0  0  0  0  0  0  0
   10.7040   -2.8014   13.5215 H   0  0  0  0  0  0  0  0  0  0  0  0
    9.8238   -2.3826   14.9850 H   0  0  0  0  0  0  0  0  0  0  0  0
   10.1434   -0.4945   13.5120 H   0  0  0  0  0  0  0  0  0  0  0  0
   11.9944    0.1207   16.0615 H   0  0  0  0  0  0  0  0  0  0  0  0
   13.9551    0.3361   17.2332 H   0  0  0  0  0  0  0  0  0  0  0  0
   14.5303    0.5168   15.5836 H   0  0  0  0  0  0  0  0  0  0  0  0
   16.2777   -1.1700   15.9224 H   0  0  0  0  0  0  0  0  0  0  0  0
   16.2178   -0.2841   17.4759 H   0  0  0  0  0  0  0  0  0  0  0  0
   16.7406   -2.7284   18.6737 H   0  0  0  0  0  0  0  0  0  0  0  0
   15.4452   -4.5861   19.6895 H   0  0  0  0  0  0  0  0  0  0  0  0
   13.1124   -4.9967   19.0043 H   0  0  0  0  0  0  0  0  0  0  0  0
   12.0797   -3.7130   17.1658 H   0  0  0  0  0  0  0  0  0  0  0  0
   12.7530    0.9287   13.5992 H   0  0  0  0  0  0  0  0  0  0  0  0
   15.7712    2.1052   12.0858 H   0  0  0  0  0  0  0  0  0  0  0  0
   15.1026    2.3859   13.6741 H   0  0  0  0  0  0  0  0  0  0  0  0
   13.3884    2.6410   14.9158 H   0  0  0  0  0  0  0  0  0  0  0  0
   11.4253    2.9767   16.3357 H   0  0  0  0  0  0  0  0  0  0  0  0
    9.3255    3.8622   15.3818 H   0  0  0  0  0  0  0  0  0  0  0  0
    9.2010    4.4679   12.9880 H   0  0  0  0  0  0  0  0  0  0  0  0
   11.1461    4.0320   11.4979 H   0  0  0  0  0  0  0  0  0  0  0  0
  1  2  1  0
  2  3  1  0
  2  4  1  0
  4  5  1  0
  5  6  1  0
  6  7  1  0
  7  8  1  0
  8  9  2  0
  9 10  1  0
 10 11  2  0
 11 12  1  0
 12 13  2  0
  5 14  1  0
 14 15  2  0
 14 16  1  0
 16 17  1  0
 17 18  1  0
 18 19  2  0
 18 20  1  0
 20 21  1  0
 21 22  2  0
 21 23  2  0
 21 24  1  0
 24 25  2  0
 25 26  1  0
 26 27  2  0
 27 28  1  0
 28 29  2  0
 16  2  1  0
 29 24  1  0
 13  5  1  0
 13  8  1  0
  1 30  1  0
  1 31  1  0
  1 32  1  0
  3 33  1  0
  4 34  1  0
  6 35  1  0
  6 36  1  0
  7 37  1  0
  7 38  1  0
  9 39  1  0
 10 40  1  0
 11 41  1  0
 12 42  1  0
 17 43  1  0
 20 44  1  0
 20 45  1  0
 25 46  1  0
 26 47  1  0
 27 48  1  0
 28 49  1  0
 29 50  1  0
M  END
>  <Energy>  (28) 
94.259208648280222

>  <compound_id>  (28) 
380

>  <target_id>  (28) 
1

>  <reference_id>  (28) 
50

>  <inspiration_ids>  (28) 
[50, 146]

>  <energy_score>  (28) 
12.315004597932301

>  <distance_score>  (28) 
2.119346418273906

>  <path>  (28) 
/opt/xchem-fragalysis-2/maxwin/BulkDock/SCRATCH/505733/C380-P50/C380-P50.minimised.mol

>  <scratch_subdir>  (28) 
/opt/xchem-fragalysis-2/maxwin/BulkDock/SCRATCH/505733/C380-P50

>  <fragmenstein_runtime>  (28) 
4.644180059432983

>  <fragmenstein_outcome>  (28) 
too moved

>  <fragmenstein_mode>  (28) 
expansion

>  <fragmenstein_error>  (28) 


$$$$
C380-P146
     RDKit          3D

 50 53  0  0  0  0  0  0  0  0999 V2000
   10.6414    0.1939   13.8108 C   0  0  0  0  0  0  0  0  0  0  0  0
   12.1406   -0.1054   13.9458 C   0  0  0  0  0  0  0  0  0  0  0  0
   12.7919    1.1285   14.0860 O   0  0  0  0  0  0  0  0  0  0  0  0
   12.4483   -0.7924   15.1828 N   0  0  0  0  0  0  0  0  0  0  0  0
   13.6055   -1.6063   14.8508 C   0  0  0  0  0  0  0  0  0  0  0  0
   14.9691   -0.8387   14.7779 C   0  0  0  0  0  0  0  0  0  0  0  0
   15.6769   -0.9456   16.1256 C   0  0  0  0  0  0  0  0  0  0  0  0
   15.0209   -2.1756   16.6755 C   0  0  0  0  0  0  0  0  0  0  0  0
   15.3925   -2.8121   17.8478 C   0  0  0  0  0  0  0  0  0  0  0  0
   14.5858   -3.8265   18.3653 C   0  0  0  0  0  0  0  0  0  0  0  0
   13.4208   -4.1784   17.6783 C   0  0  0  0  0  0  0  0  0  0  0  0
   13.0291   -3.5330   16.4957 C   0  0  0  0  0  0  0  0  0  0  0  0
   13.8672   -2.5493   15.9723 C   0  0  0  0  0  0  0  0  0  0  0  0
   13.3315   -2.0538   13.4433 C   0  0  0  0  0  0  0  0  0  0  0  0
   13.8848   -2.9754   12.8867 O   0  0  0  0  0  0  0  0  0  0  0  0
   12.7110   -0.9302   12.8347 N   0  0  0  0  0  0  0  0  0  0  0  0
   13.7430   -0.1908   12.2838 N   0  0  0  0  0  0  0  0  0  0  0  0
   13.7557    1.1936   11.7298 C   0  0  0  0  0  0  0  0  0  0  0  0
   12.8974    1.9369   11.5613 O   0  0  0  0  0  0  0  0  0  0  0  0
   15.1763    1.7262   11.4383 C   0  0  0  0  0  0  0  0  0  0  0  0
   15.1215    3.5008   11.3270 S   0  0  0  0  0  0  0  0  0  0  0  0
   16.3611    3.9834   11.9167 O   0  0  0  0  0  0  0  0  0  0  0  0
   14.7870    3.8448    9.9557 O   0  0  0  0  0  0  0  0  0  0  0  0
   13.7800    4.1068   12.3638 C   0  0  0  0  0  0  0  0  0  0  0  0
   13.9022    4.0070   13.7406 C   0  0  0  0  0  0  0  0  0  0  0  0
   12.7948    4.2322   14.5551 C   0  0  0  0  0  0  0  0  0  0  0  0
   11.5743    4.5385   13.9671 C   0  0  0  0  0  0  0  0  0  0  0  0
   11.4427    4.7018   12.5820 C   0  0  0  0  0  0  0  0  0  0  0  0
   12.5500    4.4901   11.7843 C   0  0  0  0  0  0  0  0  0  0  0  0
   10.3702    0.4343   12.7788 H   0  0  0  0  0  0  0  0  0  0  0  0
   10.0191   -0.6496   14.1115 H   0  0  0  0  0  0  0  0  0  0  0  0
   10.3278    1.0360   14.4366 H   0  0  0  0  0  0  0  0  0  0  0  0
   12.3375    1.7554   13.5079 H   0  0  0  0  0  0  0  0  0  0  0  0
   11.6845   -1.4165   15.4072 H   0  0  0  0  0  0  0  0  0  0  0  0
   14.9233    0.1938   14.4316 H   0  0  0  0  0  0  0  0  0  0  0  0
   15.6201   -1.3337   14.0347 H   0  0  0  0  0  0  0  0  0  0  0  0
   15.5147   -0.1041   16.7964 H   0  0  0  0  0  0  0  0  0  0  0  0
   16.7518   -1.0610   16.0091 H   0  0  0  0  0  0  0  0  0  0  0  0
   16.2650   -2.5016   18.4300 H   0  0  0  0  0  0  0  0  0  0  0  0
   14.8361   -4.3314   19.2945 H   0  0  0  0  0  0  0  0  0  0  0  0
   12.7693   -4.9167   18.0985 H   0  0  0  0  0  0  0  0  0  0  0  0
   12.0745   -3.7828   16.0332 H   0  0  0  0  0  0  0  0  0  0  0  0
   14.6756   -0.5595   12.2777 H   0  0  0  0  0  0  0  0  0  0  0  0
   15.6470    1.2735   10.5551 H   0  0  0  0  0  0  0  0  0  0  0  0
   15.8222    1.4919   12.3113 H   0  0  0  0  0  0  0  0  0  0  0  0
   14.8824    3.7545   14.1695 H   0  0  0  0  0  0  0  0  0  0  0  0
   12.8573    4.1560   15.6415 H   0  0  0  0  0  0  0  0  0  0  0  0
   10.6893    4.7167   14.5587 H   0  0  0  0  0  0  0  0  0  0  0  0
   10.4887    4.9571   12.1490 H   0  0  0  0  0  0  0  0  0  0  0  0
   12.4183    4.5397   10.7151 H   0  0  0  0  0  0  0  0  0  0  0  0
  1  2  1  0
  2  3  1  0
  2  4  1  0
  4  5  1  0
  5  6  1  0
  6  7  1  0
  7  8  1  0
  8  9  2  0
  9 10  1  0
 10 11  2  0
 11 12  1  0
 12 13  2  0
  5 14  1  0
 14 15  2  0
 14 16  1  0
 16 17  1  0
 17 18  1  0
 18 19  2  0
 18 20  1  0
 20 21  1  0
 21 22  2  0
 21 23  2  0
 21 24  1  0
 24 25  2  0
 25 26  1  0
 26 27  2  0
 27 28  1  0
 28 29  2  0
 16  2  1  0
 29 24  1  0
 13  5  1  0
 13  8  1  0
  1 30  1  0
  1 31  1  0
  1 32  1  0
  3 33  1  0
  4 34  1  0
  6 35  1  0
  6 36  1  0
  7 37  1  0
  7 38  1  0
  9 39  1  0
 10 40  1  0
 11 41  1  0
 12 42  1  0
 17 43  1  0
 20 44  1  0
 20 45  1  0
 25 46  1  0
 26 47  1  0
 27 48  1  0
 28 49  1  0
 29 50  1  0
M  END
>  <Energy>  (29) 
104.69669491555796

>  <compound_id>  (29) 
380

>  <target_id>  (29) 
1

>  <reference_id>  (29) 
146

>  <inspiration_ids>  (29) 
[50, 146]

>  <energy_score>  (29) 
22.75249086521069

>  <distance_score>  (29) 
2.2541200879066925

>  <path>  (29) 
/opt/xchem-fragalysis-2/maxwin/BulkDock/SCRATCH/505733/C380-P146/C380-P146.minimised.mol

>  <scratch_subdir>  (29) 
/opt/xchem-fragalysis-2/maxwin/BulkDock/SCRATCH/505733/C380-P146

>  <fragmenstein_runtime>  (29) 
2.6031625270843506

>  <fragmenstein_outcome>  (29) 
too moved

>  <fragmenstein_mode>  (29) 
expansion

>  <fragmenstein_error>  (29) 


$$$$
C383-P51
     RDKit          3D

 44 47  0  0  0  0  0  0  0  0999 V2000
   -8.1065   -4.4400    7.4900 O   0  0  0  0  0  0  0  0  0  0  0  0
   -8.3343   -3.2487    7.3873 C   0  0  0  0  0  0  0  0  0  0  0  0
   -9.5362   -2.6439    7.5035 N   0  0  0  0  0  0  0  0  0  0  0  0
   -9.4151   -1.2952    7.4163 C   0  0  0  0  0  0  0  0  0  0  0  0
  -10.3206   -0.4969    7.5979 O   0  0  0  0  0  0  0  0  0  0  0  0
   -7.9493   -0.9658    7.1369 C   0  0  0  0  0  0  0  0  0  0  0  0
   -7.3888   -0.0258    8.2232 C   0  0  0  0  0  0  0  0  0  0  0  0
   -7.5176    1.4129    7.6559 C   0  0  0  0  0  0  0  0  0  0  0  0
   -8.8814    2.1180    7.9276 C   0  0  0  0  0  0  0  0  0  0  0  0
   -9.5323    2.5130    7.0041 O   0  0  0  0  0  0  0  0  0  0  0  0
   -9.1322    2.1691    9.3404 N   0  0  0  0  0  0  0  0  0  0  0  0
  -10.2934    2.6273   10.0883 C   0  0  0  0  0  0  0  0  0  0  0  0
  -10.8732    3.9492    9.5630 C   0  0  0  0  0  0  0  0  0  0  0  0
  -12.3188    3.8074    9.0864 C   0  0  0  0  0  0  0  0  0  0  0  0
  -12.5325    2.5311    8.2759 C   0  0  0  0  0  0  0  0  0  0  0  0
  -12.1339    1.3008    8.9619 N   0  0  0  0  0  0  0  0  0  0  0  0
  -11.3642    1.5236   10.1826 C   0  0  0  0  0  0  0  0  0  0  0  0
   -7.3260    1.1259    6.1850 C   0  0  0  0  0  0  0  0  0  0  0  0
   -7.0020    2.0335    5.1889 C   0  0  0  0  0  0  0  0  0  0  0  0
   -7.0409    1.5982    3.8668 C   0  0  0  0  0  0  0  0  0  0  0  0
   -7.4029    0.2775    3.5613 C   0  0  0  0  0  0  0  0  0  0  0  0
   -7.7075   -0.6365    4.5714 C   0  0  0  0  0  0  0  0  0  0  0  0
   -7.6582   -0.2036    5.8850 C   0  0  0  0  0  0  0  0  0  0  0  0
   -7.3785   -2.2853    7.1587 N   0  0  0  0  0  0  0  0  0  0  0  0
  -10.3664   -3.0972    7.8610 H   0  0  0  0  0  0  0  0  0  0  0  0
   -7.8855   -0.1616    9.1890 H   0  0  0  0  0  0  0  0  0  0  0  0
   -6.3223   -0.2429    8.3843 H   0  0  0  0  0  0  0  0  0  0  0  0
   -6.7129    2.0537    8.0300 H   0  0  0  0  0  0  0  0  0  0  0  0
   -8.3231    1.8112    9.8326 H   0  0  0  0  0  0  0  0  0  0  0  0
   -9.9156    2.8074   11.1012 H   0  0  0  0  0  0  0  0  0  0  0  0
  -10.8497    4.6984   10.3646 H   0  0  0  0  0  0  0  0  0  0  0  0
  -10.2583    4.3648    8.7566 H   0  0  0  0  0  0  0  0  0  0  0  0
  -12.9902    3.8053    9.9549 H   0  0  0  0  0  0  0  0  0  0  0  0
  -12.5949    4.6819    8.4861 H   0  0  0  0  0  0  0  0  0  0  0  0
  -11.9938    2.6111    7.3263 H   0  0  0  0  0  0  0  0  0  0  0  0
  -13.5927    2.4466    8.0127 H   0  0  0  0  0  0  0  0  0  0  0  0
  -11.5584    0.7433    8.3096 H   0  0  0  0  0  0  0  0  0  0  0  0
  -10.9012    0.5737   10.4730 H   0  0  0  0  0  0  0  0  0  0  0  0
  -12.0644    1.7742   10.9896 H   0  0  0  0  0  0  0  0  0  0  0  0
   -6.7877    3.0722    5.4191 H   0  0  0  0  0  0  0  0  0  0  0  0
   -6.8179    2.2913    3.0595 H   0  0  0  0  0  0  0  0  0  0  0  0
   -7.4323   -0.0427    2.5219 H   0  0  0  0  0  0  0  0  0  0  0  0
   -7.9815   -1.6572    4.3214 H   0  0  0  0  0  0  0  0  0  0  0  0
   -6.4181   -2.5317    6.9651 H   0  0  0  0  0  0  0  0  0  0  0  0
  1  2  2  0
  2  3  1  0
  3  4  1  0
  4  5  2  0
  4  6  1  0
  6  7  1  0
  7  8  1  0
  8  9  1  0
  9 10  2  0
  9 11  1  0
 11 12  1  0
 12 13  1  0
 13 14  1  0
 14 15  1  0
 15 16  1  0
 16 17  1  0
  8 18  1  0
 18 19  2  0
 19 20  1  0
 20 21  2  0
 21 22  1  0
 22 23  2  0
  6 24  1  0
 24  2  1  0
 23  6  1  0
 17 12  1  0
 23 18  1  0
  3 25  1  0
  7 26  1  0
  7 27  1  0
  8 28  1  0
 11 29  1  0
 12 30  1  0
 13 31  1  0
 13 32  1  0
 14 33  1  0
 14 34  1  0
 15 35  1  0
 15 36  1  0
 16 37  1  0
 17 38  1  0
 17 39  1  0
 19 40  1  0
 20 41  1  0
 21 42  1  0
 22 43  1  0
 24 44  1  0
M  END
>  <Energy>  (30) 
-7.8665980016495052

>  <compound_id>  (30) 
383

>  <target_id>  (30) 
1

>  <reference_id>  (30) 
51

>  <inspiration_ids>  (30) 
[51, 17]

>  <energy_score>  (30) 
-42.404694506870555

>  <distance_score>  (30) 
2.4906387856679437

>  <path>  (30) 
/opt/xchem-fragalysis-2/maxwin/BulkDock/SCRATCH/505733/C383-P51/C383-P51.minimised.mol

>  <scratch_subdir>  (30) 
/opt/xchem-fragalysis-2/maxwin/BulkDock/SCRATCH/505733/C383-P51

>  <fragmenstein_runtime>  (30) 
8.346199750900269

>  <fragmenstein_outcome>  (30) 
too moved

>  <fragmenstein_mode>  (30) 
expansion

>  <fragmenstein_error>  (30) 


$$$$
C383-P17
     RDKit          3D

 44 47  0  0  0  0  0  0  0  0999 V2000
   -8.6707   -4.9014    6.9723 O   0  0  0  0  0  0  0  0  0  0  0  0
   -8.3349   -3.7509    7.1718 C   0  0  0  0  0  0  0  0  0  0  0  0
   -9.0301   -2.8342    7.8743 N   0  0  0  0  0  0  0  0  0  0  0  0
   -8.3071   -1.6952    7.9830 C   0  0  0  0  0  0  0  0  0  0  0  0
   -8.5516   -0.7792    8.7508 O   0  0  0  0  0  0  0  0  0  0  0  0
   -7.1193   -1.7744    7.0202 C   0  0  0  0  0  0  0  0  0  0  0  0
   -5.8167   -1.2351    7.6607 C   0  0  0  0  0  0  0  0  0  0  0  0
   -5.3516    0.0017    6.8546 C   0  0  0  0  0  0  0  0  0  0  0  0
   -5.5741    1.4383    7.4256 C   0  0  0  0  0  0  0  0  0  0  0  0
   -4.6893    2.1945    7.5021 O   0  0  0  0  0  0  0  0  0  0  0  0
   -7.0778    1.6256    7.7185 N   0  0  0  0  0  0  0  0  0  0  0  0
   -7.8228    2.8079    8.0755 C   0  0  0  0  0  0  0  0  0  0  0  0
   -8.1169    3.6797    6.8477 C   0  0  0  0  0  0  0  0  0  0  0  0
   -9.1381    3.0334    5.9117 C   0  0  0  0  0  0  0  0  0  0  0  0
  -10.3531    2.4894    6.6585 C   0  0  0  0  0  0  0  0  0  0  0  0
   -9.9452    1.6129    7.7523 N   0  0  0  0  0  0  0  0  0  0  0  0
   -9.1316    2.3499    8.7315 C   0  0  0  0  0  0  0  0  0  0  0  0
   -6.1617   -0.1024    5.6014 C   0  0  0  0  0  0  0  0  0  0  0  0
   -6.0309    0.7363    4.5060 C   0  0  0  0  0  0  0  0  0  0  0  0
   -7.0412    0.7209    3.5572 C   0  0  0  0  0  0  0  0  0  0  0  0
   -8.1457   -0.1297    3.7115 C   0  0  0  0  0  0  0  0  0  0  0  0
   -8.2449   -0.9964    4.8032 C   0  0  0  0  0  0  0  0  0  0  0  0
   -7.2375   -0.9813    5.7515 C   0  0  0  0  0  0  0  0  0  0  0  0
   -7.1522   -3.1882    6.7460 N   0  0  0  0  0  0  0  0  0  0  0  0
   -9.8467   -3.0451    8.4405 H   0  0  0  0  0  0  0  0  0  0  0  0
   -5.9283   -0.9879    8.7217 H   0  0  0  0  0  0  0  0  0  0  0  0
   -5.0341   -2.0037    7.5988 H   0  0  0  0  0  0  0  0  0  0  0  0
   -4.2839   -0.1026    6.6258 H   0  0  0  0  0  0  0  0  0  0  0  0
   -7.5537    0.7363    7.6267 H   0  0  0  0  0  0  0  0  0  0  0  0
   -7.2052    3.3966    8.7535 H   0  0  0  0  0  0  0  0  0  0  0  0
   -8.5174    4.6429    7.1886 H   0  0  0  0  0  0  0  0  0  0  0  0
   -7.1952    3.8944    6.2939 H   0  0  0  0  0  0  0  0  0  0  0  0
   -9.4596    3.7602    5.1572 H   0  0  0  0  0  0  0  0  0  0  0  0
   -8.6572    2.2145    5.3719 H   0  0  0  0  0  0  0  0  0  0  0  0
  -10.9674    3.3142    7.0392 H   0  0  0  0  0  0  0  0  0  0  0  0
  -10.9777    1.9217    5.9602 H   0  0  0  0  0  0  0  0  0  0  0  0
  -10.7614    1.2243    8.2227 H   0  0  0  0  0  0  0  0  0  0  0  0
   -8.9227    1.6880    9.5785 H   0  0  0  0  0  0  0  0  0  0  0  0
   -9.6897    3.2077    9.1258 H   0  0  0  0  0  0  0  0  0  0  0  0
   -5.2046    1.4380    4.4208 H   0  0  0  0  0  0  0  0  0  0  0  0
   -6.9895    1.3874    2.6999 H   0  0  0  0  0  0  0  0  0  0  0  0
   -8.9372   -0.1190    2.9652 H   0  0  0  0  0  0  0  0  0  0  0  0
   -9.1076   -1.6503    4.9019 H   0  0  0  0  0  0  0  0  0  0  0  0
   -6.6011   -3.6672    6.0460 H   0  0  0  0  0  0  0  0  0  0  0  0
  1  2  2  0
  2  3  1  0
  3  4  1  0
  4  5  2  0
  4  6  1  0
  6  7  1  0
  7  8  1  0
  8  9  1  0
  9 10  2  0
  9 11  1  0
 11 12  1  0
 12 13  1  0
 13 14  1  0
 14 15  1  0
 15 16  1  0
 16 17  1  0
  8 18  1  0
 18 19  2  0
 19 20  1  0
 20 21  2  0
 21 22  1  0
 22 23  2  0
  6 24  1  0
 24  2  1  0
 23  6  1  0
 17 12  1  0
 23 18  1  0
  3 25  1  0
  7 26  1  0
  7 27  1  0
  8 28  1  0
 11 29  1  0
 12 30  1  0
 13 31  1  0
 13 32  1  0
 14 33  1  0
 14 34  1  0
 15 35  1  0
 15 36  1  0
 16 37  1  0
 17 38  1  0
 17 39  1  0
 19 40  1  0
 20 41  1  0
 21 42  1  0
 22 43  1  0
 24 44  1  0
M  END
>  <Energy>  (31) 
-1.9514407712926287

>  <compound_id>  (31) 
383

>  <target_id>  (31) 
1

>  <reference_id>  (31) 
17

>  <inspiration_ids>  (31) 
[51, 17]

>  <energy_score>  (31) 
-29.592919336631553

>  <distance_score>  (31) 
1.6413934448766556

>  <path>  (31) 
/opt/xchem-fragalysis-2/maxwin/BulkDock/SCRATCH/505733/C383-P17/C383-P17.minimised.mol

>  <scratch_subdir>  (31) 
/opt/xchem-fragalysis-2/maxwin/BulkDock/SCRATCH/505733/C383-P17

>  <fragmenstein_runtime>  (31) 
6.545984983444214

>  <fragmenstein_outcome>  (31) 
too moved

>  <fragmenstein_mode>  (31) 
expansion

>  <fragmenstein_error>  (31) 


$$$$
C384-P51
     RDKit          3D

 50 53  0  0  0  0  0  0  0  0999 V2000
   -5.6534    3.5604    6.9583 C   0  0  0  0  0  0  0  0  0  0  0  0
   -5.5160    2.1147    7.1729 N   0  0  0  0  0  0  0  0  0  0  0  0
   -6.0919    1.2413    6.2174 C   0  0  0  0  0  0  0  0  0  0  0  0
   -6.6889    1.7031    5.0311 C   0  0  0  0  0  0  0  0  0  0  0  0
   -7.4102    0.8490    4.1750 C   0  0  0  0  0  0  0  0  0  0  0  0
   -7.5113   -0.5069    4.4540 C   0  0  0  0  0  0  0  0  0  0  0  0
   -8.3017   -1.4860    3.6414 C   0  0  0  0  0  0  0  0  0  0  0  0
   -9.7462   -1.3650    3.6270 N   0  0  0  0  0  0  0  0  0  0  0  0
  -10.5478   -1.2629    4.6163 C   0  0  0  0  0  0  0  0  0  0  0  0
  -11.8819   -1.2555    4.3185 N   0  0  0  0  0  0  0  0  0  0  0  0
  -12.6362   -1.2746    5.4417 C   0  0  0  0  0  0  0  0  0  0  0  0
  -13.8493   -1.3597    5.5181 O   0  0  0  0  0  0  0  0  0  0  0  0
  -11.8094   -1.1902    6.5169 N   0  0  0  0  0  0  0  0  0  0  0  0
  -10.4165   -1.1114    6.1327 C   0  0  0  0  0  0  0  0  0  0  0  0
   -9.6243   -2.1481    6.9194 C   0  0  0  0  0  0  0  0  0  0  0  0
   -9.2074   -1.4367    8.2175 C   0  0  0  0  0  0  0  0  0  0  0  0
   -9.2440    0.0136    7.8501 C   0  0  0  0  0  0  0  0  0  0  0  0
   -8.8310    1.0923    8.6095 C   0  0  0  0  0  0  0  0  0  0  0  0
   -9.0256    2.3796    8.1082 C   0  0  0  0  0  0  0  0  0  0  0  0
   -9.6426    2.5745    6.8666 C   0  0  0  0  0  0  0  0  0  0  0  0
  -10.0941    1.4821    6.1259 C   0  0  0  0  0  0  0  0  0  0  0  0
   -9.8892    0.2042    6.6299 C   0  0  0  0  0  0  0  0  0  0  0  0
   -6.8055   -0.9891    5.5419 C   0  0  0  0  0  0  0  0  0  0  0  0
   -6.1205   -0.1447    6.4248 C   0  0  0  0  0  0  0  0  0  0  0  0
   -5.5383   -0.9635    7.8793 S   0  0  0  0  0  0  0  0  0  0  0  0
   -3.7994   -0.8868    7.9972 C   0  0  0  0  0  0  0  0  0  0  0  0
   -6.0981   -0.2481    9.0062 O   0  0  0  0  0  0  0  0  0  0  0  0
   -5.8341   -2.3705    7.6756 O   0  0  0  0  0  0  0  0  0  0  0  0
   -5.1066    3.8779    6.0645 H   0  0  0  0  0  0  0  0  0  0  0  0
   -6.7011    3.8662    6.8870 H   0  0  0  0  0  0  0  0  0  0  0  0
   -5.2124    4.0839    7.8125 H   0  0  0  0  0  0  0  0  0  0  0  0
   -6.0059    1.8713    8.0493 H   0  0  0  0  0  0  0  0  0  0  0  0
   -6.6792    2.7564    4.7661 H   0  0  0  0  0  0  0  0  0  0  0  0
   -7.9131    1.2614    3.3029 H   0  0  0  0  0  0  0  0  0  0  0  0
   -8.0472   -2.5179    3.9152 H   0  0  0  0  0  0  0  0  0  0  0  0
   -7.9531   -1.3895    2.6048 H   0  0  0  0  0  0  0  0  0  0  0  0
  -12.2455   -1.4414    3.4016 H   0  0  0  0  0  0  0  0  0  0  0  0
  -12.1421   -1.1820    7.4689 H   0  0  0  0  0  0  0  0  0  0  0  0
   -8.7517   -2.4965    6.3706 H   0  0  0  0  0  0  0  0  0  0  0  0
  -10.2021   -3.0538    7.1307 H   0  0  0  0  0  0  0  0  0  0  0  0
   -9.9299   -1.5894    9.0190 H   0  0  0  0  0  0  0  0  0  0  0  0
   -8.2266   -1.7734    8.5416 H   0  0  0  0  0  0  0  0  0  0  0  0
   -8.3778    0.9381    9.5839 H   0  0  0  0  0  0  0  0  0  0  0  0
   -8.7102    3.2375    8.6966 H   0  0  0  0  0  0  0  0  0  0  0  0
   -9.7996    3.5828    6.4936 H   0  0  0  0  0  0  0  0  0  0  0  0
  -10.6191    1.6360    5.1882 H   0  0  0  0  0  0  0  0  0  0  0  0
   -6.8191   -2.0638    5.7143 H   0  0  0  0  0  0  0  0  0  0  0  0
   -3.4435   -1.8028    8.4672 H   0  0  0  0  0  0  0  0  0  0  0  0
   -3.3805   -0.8454    7.0014 H   0  0  0  0  0  0  0  0  0  0  0  0
   -3.5132   -0.0371    8.6150 H   0  0  0  0  0  0  0  0  0  0  0  0
  1  2  1  0
  2  3  1  0
  3  4  2  0
  4  5  1  0
  5  6  2  0
  6  7  1  0
  7  8  1  0
  8  9  2  3
  9 10  1  0
 10 11  1  0
 11 12  2  0
 11 13  1  0
 13 14  1  0
 14 15  1  0
 15 16  1  0
 16 17  1  0
 17 18  2  0
 18 19  1  0
 19 20  2  0
 20 21  1  0
 21 22  2  0
  6 23  1  0
 23 24  2  0
 24 25  1  0
 25 26  1  0
 25 27  2  0
 25 28  2  0
 24  3  1  0
 14  9  1  0
 22 17  1  0
 22 14  1  0
  1 29  1  0
  1 30  1  0
  1 31  1  0
  2 32  1  0
  4 33  1  0
  5 34  1  0
  7 35  1  0
  7 36  1  0
 10 37  1  0
 13 38  1  0
 15 39  1  0
 15 40  1  0
 16 41  1  0
 16 42  1  0
 18 43  1  0
 19 44  1  0
 20 45  1  0
 21 46  1  0
 23 47  1  0
 26 48  1  0
 26 49  1  0
 26 50  1  0
M  END
>  <Energy>  (32) 
39.837969565477117

>  <compound_id>  (32) 
384

>  <target_id>  (32) 
1

>  <reference_id>  (32) 
51

>  <inspiration_ids>  (32) 
[51, 24]

>  <energy_score>  (32) 
-48.894762503056654

>  <distance_score>  (32) 
4.065994815710909

>  <path>  (32) 
/opt/xchem-fragalysis-2/maxwin/BulkDock/SCRATCH/505733/C384-P51/C384-P51.minimised.mol

>  <scratch_subdir>  (32) 
/opt/xchem-fragalysis-2/maxwin/BulkDock/SCRATCH/505733/C384-P51

>  <fragmenstein_runtime>  (32) 
6.295652866363525

>  <fragmenstein_outcome>  (32) 
too moved

>  <fragmenstein_mode>  (32) 
expansion

>  <fragmenstein_error>  (32) 


$$$$
C384-P24
     RDKit          3D

 50 53  0  0  0  0  0  0  0  0999 V2000
   -4.3157    2.4969    2.3068 C   0  0  0  0  0  0  0  0  0  0  0  0
   -4.0399    2.5298    3.7344 N   0  0  0  0  0  0  0  0  0  0  0  0
   -4.3974    1.4546    4.5542 C   0  0  0  0  0  0  0  0  0  0  0  0
   -4.7936    0.2202    4.0286 C   0  0  0  0  0  0  0  0  0  0  0  0
   -5.0740   -0.8990    4.8134 C   0  0  0  0  0  0  0  0  0  0  0  0
   -4.9570   -0.8493    6.1857 C   0  0  0  0  0  0  0  0  0  0  0  0
   -5.2328   -2.0996    6.9686 C   0  0  0  0  0  0  0  0  0  0  0  0
   -6.4417   -2.8640    6.6440 N   0  0  0  0  0  0  0  0  0  0  0  0
   -7.6002   -2.3812    6.9097 C   0  0  0  0  0  0  0  0  0  0  0  0
   -8.7040   -3.1492    6.7027 N   0  0  0  0  0  0  0  0  0  0  0  0
   -9.8150   -2.4380    6.9949 C   0  0  0  0  0  0  0  0  0  0  0  0
  -10.9665   -2.7007    6.7097 O   0  0  0  0  0  0  0  0  0  0  0  0
   -9.4604   -1.2669    7.5929 N   0  0  0  0  0  0  0  0  0  0  0  0
   -8.0659   -1.0001    7.3807 C   0  0  0  0  0  0  0  0  0  0  0  0
   -7.4648   -0.3403    8.6115 C   0  0  0  0  0  0  0  0  0  0  0  0
   -7.7120    1.1563    8.4370 C   0  0  0  0  0  0  0  0  0  0  0  0
   -7.7914    1.3067    6.9583 C   0  0  0  0  0  0  0  0  0  0  0  0
   -7.7807    2.4803    6.2329 C   0  0  0  0  0  0  0  0  0  0  0  0
   -7.9069    2.4151    4.8499 C   0  0  0  0  0  0  0  0  0  0  0  0
   -8.0652    1.1820    4.2181 C   0  0  0  0  0  0  0  0  0  0  0  0
   -8.1102    0.0047    4.9641 C   0  0  0  0  0  0  0  0  0  0  0  0
   -7.9597    0.0772    6.3381 C   0  0  0  0  0  0  0  0  0  0  0  0
   -4.5621    0.3748    6.7536 C   0  0  0  0  0  0  0  0  0  0  0  0
   -4.3324    1.5254    5.9476 C   0  0  0  0  0  0  0  0  0  0  0  0
   -3.9919    3.0549    6.8026 S   0  0  0  0  0  0  0  0  0  0  0  0
   -4.4368    4.4411    5.8036 C   0  0  0  0  0  0  0  0  0  0  0  0
   -4.9095    3.0862    7.9250 O   0  0  0  0  0  0  0  0  0  0  0  0
   -2.5566    3.0960    7.0200 O   0  0  0  0  0  0  0  0  0  0  0  0
   -4.0601    3.4691    1.8737 H   0  0  0  0  0  0  0  0  0  0  0  0
   -3.7087    1.7392    1.8007 H   0  0  0  0  0  0  0  0  0  0  0  0
   -5.3776    2.3180    2.1088 H   0  0  0  0  0  0  0  0  0  0  0  0
   -3.0595    2.7958    3.9015 H   0  0  0  0  0  0  0  0  0  0  0  0
   -4.8943    0.0869    2.9543 H   0  0  0  0  0  0  0  0  0  0  0  0
   -5.4045   -1.8132    4.3292 H   0  0  0  0  0  0  0  0  0  0  0  0
   -5.1874   -1.8842    8.0342 H   0  0  0  0  0  0  0  0  0  0  0  0
   -4.3802   -2.7708    6.7971 H   0  0  0  0  0  0  0  0  0  0  0  0
   -8.7060   -4.0626    6.2775 H   0  0  0  0  0  0  0  0  0  0  0  0
  -10.1639   -0.5453    7.6549 H   0  0  0  0  0  0  0  0  0  0  0  0
   -6.4003   -0.5113    8.7431 H   0  0  0  0  0  0  0  0  0  0  0  0
   -7.9411   -0.6464    9.5372 H   0  0  0  0  0  0  0  0  0  0  0  0
   -8.6602    1.4570    8.8960 H   0  0  0  0  0  0  0  0  0  0  0  0
   -6.9008    1.7420    8.8669 H   0  0  0  0  0  0  0  0  0  0  0  0
   -7.6689    3.4375    6.7346 H   0  0  0  0  0  0  0  0  0  0  0  0
   -7.8871    3.3275    4.2601 H   0  0  0  0  0  0  0  0  0  0  0  0
   -8.1746    1.1403    3.1377 H   0  0  0  0  0  0  0  0  0  0  0  0
   -8.2740   -0.9462    4.4660 H   0  0  0  0  0  0  0  0  0  0  0  0
   -4.4559    0.4613    7.8345 H   0  0  0  0  0  0  0  0  0  0  0  0
   -5.4230    4.2859    5.3663 H   0  0  0  0  0  0  0  0  0  0  0  0
   -3.6758    4.6234    5.0451 H   0  0  0  0  0  0  0  0  0  0  0  0
   -4.4766    5.3164    6.4584 H   0  0  0  0  0  0  0  0  0  0  0  0
  1  2  1  0
  2  3  1  0
  3  4  2  0
  4  5  1  0
  5  6  2  0
  6  7  1  0
  7  8  1  0
  8  9  2  3
  9 10  1  0
 10 11  1  0
 11 12  2  0
 11 13  1  0
 13 14  1  0
 14 15  1  0
 15 16  1  0
 16 17  1  0
 17 18  2  0
 18 19  1  0
 19 20  2  0
 20 21  1  0
 21 22  2  0
  6 23  1  0
 23 24  2  0
 24 25  1  0
 25 26  1  0
 25 27  2  0
 25 28  2  0
 24  3  1  0
 14  9  1  0
 22 17  1  0
 22 14  1  0
  1 29  1  0
  1 30  1  0
  1 31  1  0
  2 32  1  0
  4 33  1  0
  5 34  1  0
  7 35  1  0
  7 36  1  0
 10 37  1  0
 13 38  1  0
 15 39  1  0
 15 40  1  0
 16 41  1  0
 16 42  1  0
 18 43  1  0
 19 44  1  0
 20 45  1  0
 21 46  1  0
 23 47  1  0
 26 48  1  0
 26 49  1  0
 26 50  1  0
M  END
>  <Energy>  (33) 
34.69530823680936

>  <compound_id>  (33) 
384

>  <target_id>  (33) 
1

>  <reference_id>  (33) 
24

>  <inspiration_ids>  (33) 
[51, 24]

>  <energy_score>  (33) 
-63.74272646863966

>  <distance_score>  (33) 
3.0861437908754037

>  <path>  (33) 
/opt/xchem-fragalysis-2/maxwin/BulkDock/SCRATCH/505733/C384-P24/C384-P24.minimised.mol

>  <scratch_subdir>  (33) 
/opt/xchem-fragalysis-2/maxwin/BulkDock/SCRATCH/505733/C384-P24

>  <fragmenstein_runtime>  (33) 
4.188526630401611

>  <fragmenstein_outcome>  (33) 
too moved

>  <fragmenstein_mode>  (33) 
expansion

>  <fragmenstein_error>  (33) 


$$$$
C386-P51
     RDKit          3D

 34 36  0  0  0  0  0  0  0  0999 V2000
   -4.3617   -1.1251    7.4842 C   0  0  0  0  0  0  0  0  0  0  0  0
   -5.4794   -0.1183    7.7070 C   0  0  0  0  0  0  0  0  0  0  0  0
   -6.1871    0.4572    6.4963 C   0  0  0  0  0  0  0  0  0  0  0  0
   -5.8412    1.4973    5.6493 C   0  0  0  0  0  0  0  0  0  0  0  0
   -6.7398    1.9161    4.6642 C   0  0  0  0  0  0  0  0  0  0  0  0
   -7.9811    1.2989    4.5188 C   0  0  0  0  0  0  0  0  0  0  0  0
   -8.3365    0.2510    5.3553 C   0  0  0  0  0  0  0  0  0  0  0  0
   -7.4364   -0.1517    6.3356 C   0  0  0  0  0  0  0  0  0  0  0  0
   -7.5709   -1.2810    7.3208 C   0  0  0  0  0  0  0  0  0  0  0  0
   -7.1306   -2.5073    6.6421 N   0  0  0  0  0  0  0  0  0  0  0  0
   -8.2705   -3.0061    6.1051 C   0  0  0  0  0  0  0  0  0  0  0  0
   -8.2475   -3.4938    4.9205 N   0  0  0  0  0  0  0  0  0  0  0  0
   -9.6238   -3.6590    4.1354 S   0  0  0  0  0  0  0  0  0  0  0  0
  -10.4782   -4.5788    5.2014 N   0  0  0  0  0  0  0  0  0  0  0  0
   -9.4070   -4.4877    2.9664 O   0  0  0  0  0  0  0  0  0  0  0  0
  -10.2878   -2.3812    4.0312 O   0  0  0  0  0  0  0  0  0  0  0  0
   -9.3169   -2.7117    6.9165 N   0  0  0  0  0  0  0  0  0  0  0  0
   -8.9944   -1.6334    7.7100 C   0  0  0  0  0  0  0  0  0  0  0  0
   -9.7358   -1.0137    8.4508 O   0  0  0  0  0  0  0  0  0  0  0  0
   -6.6498   -0.8177    8.4162 C   0  0  0  0  0  0  0  0  0  0  0  0
   -7.2530    0.0928    9.2286 F   0  0  0  0  0  0  0  0  0  0  0  0
   -3.9046   -1.3860    8.4440 H   0  0  0  0  0  0  0  0  0  0  0  0
   -3.5699   -0.7325    6.8590 H   0  0  0  0  0  0  0  0  0  0  0  0
   -4.6975   -2.0614    7.0373 H   0  0  0  0  0  0  0  0  0  0  0  0
   -5.1158    0.7019    8.3273 H   0  0  0  0  0  0  0  0  0  0  0  0
   -4.9129    2.0387    5.7017 H   0  0  0  0  0  0  0  0  0  0  0  0
   -6.4729    2.7363    4.0009 H   0  0  0  0  0  0  0  0  0  0  0  0
   -8.6694    1.6315    3.7455 H   0  0  0  0  0  0  0  0  0  0  0  0
   -9.3047   -0.2270    5.2311 H   0  0  0  0  0  0  0  0  0  0  0  0
   -6.4407   -2.3681    5.9105 H   0  0  0  0  0  0  0  0  0  0  0  0
  -11.4674   -4.5198    4.9330 H   0  0  0  0  0  0  0  0  0  0  0  0
  -10.1901   -5.5616    5.1264 H   0  0  0  0  0  0  0  0  0  0  0  0
  -10.2779   -2.9916    6.7689 H   0  0  0  0  0  0  0  0  0  0  0  0
   -6.3337   -1.6405    9.0316 H   0  0  0  0  0  0  0  0  0  0  0  0
  1  2  1  0
  2  3  1  0
  3  4  2  0
  4  5  1  0
  5  6  2  0
  6  7  1  0
  7  8  2  0
  8  9  1  0
  9 10  1  0
 10 11  1  0
 11 12  2  3
 12 13  1  0
 13 14  1  0
 13 15  2  0
 13 16  2  0
 11 17  1  0
 17 18  1  0
 18 19  2  0
  9 20  1  0
 20 21  1  0
 20  2  1  0
  8  3  1  0
 18  9  1  0
  1 22  1  0
  1 23  1  0
  1 24  1  0
  2 25  1  0
  4 26  1  0
  5 27  1  0
  6 28  1  0
  7 29  1  0
 10 30  1  0
 14 31  1  0
 14 32  1  0
 17 33  1  0
 20 34  1  0
M  END
>  <Energy>  (34) 
-127.4985853483543

>  <compound_id>  (34) 
386

>  <target_id>  (34) 
1

>  <reference_id>  (34) 
51

>  <inspiration_ids>  (34) 
[51, 65]

>  <energy_score>  (34) 
-21.1902536038615

>  <distance_score>  (34) 
1.4331759672945978

>  <path>  (34) 
/opt/xchem-fragalysis-2/maxwin/BulkDock/SCRATCH/505733/C386-P51/C386-P51.minimised.mol

>  <scratch_subdir>  (34) 
/opt/xchem-fragalysis-2/maxwin/BulkDock/SCRATCH/505733/C386-P51

>  <fragmenstein_runtime>  (34) 
2.6868810653686523

>  <fragmenstein_outcome>  (34) 
too moved

>  <fragmenstein_mode>  (34) 
expansion

>  <fragmenstein_error>  (34) 


$$$$
C386-P65
     RDKit          3D

 34 36  0  0  0  0  0  0  0  0999 V2000
   -3.5231   -0.5818    6.5268 C   0  0  0  0  0  0  0  0  0  0  0  0
   -4.6430   -0.1164    7.4122 C   0  0  0  0  0  0  0  0  0  0  0  0
   -5.4753    0.9720    6.7928 C   0  0  0  0  0  0  0  0  0  0  0  0
   -5.1518    2.2946    6.5893 C   0  0  0  0  0  0  0  0  0  0  0  0
   -6.0799    3.1219    5.9476 C   0  0  0  0  0  0  0  0  0  0  0  0
   -7.3283    2.6314    5.5390 C   0  0  0  0  0  0  0  0  0  0  0  0
   -7.6779    1.3162    5.8041 C   0  0  0  0  0  0  0  0  0  0  0  0
   -6.7433    0.5186    6.4484 C   0  0  0  0  0  0  0  0  0  0  0  0
   -6.9076   -0.8679    6.9142 C   0  0  0  0  0  0  0  0  0  0  0  0
   -7.1332   -1.7689    5.8055 N   0  0  0  0  0  0  0  0  0  0  0  0
   -8.2009   -2.5196    6.1406 C   0  0  0  0  0  0  0  0  0  0  0  0
   -8.7580   -3.2840    5.2868 N   0  0  0  0  0  0  0  0  0  0  0  0
   -9.9333   -4.1451    5.8809 S   0  0  0  0  0  0  0  0  0  0  0  0
   -9.1172   -5.2191    6.8495 N   0  0  0  0  0  0  0  0  0  0  0  0
  -10.4556   -5.0054    4.8630 O   0  0  0  0  0  0  0  0  0  0  0  0
  -10.7346   -3.3537    6.7796 O   0  0  0  0  0  0  0  0  0  0  0  0
   -8.5812   -2.3091    7.4313 N   0  0  0  0  0  0  0  0  0  0  0  0
   -8.0917   -1.1132    7.8291 C   0  0  0  0  0  0  0  0  0  0  0  0
   -8.6055   -0.3795    8.6544 O   0  0  0  0  0  0  0  0  0  0  0  0
   -5.6210   -1.2547    7.6128 C   0  0  0  0  0  0  0  0  0  0  0  0
   -5.8459   -1.3622    8.9332 F   0  0  0  0  0  0  0  0  0  0  0  0
   -2.7778    0.2013    6.5712 H   0  0  0  0  0  0  0  0  0  0  0  0
   -3.8264   -0.7412    5.4873 H   0  0  0  0  0  0  0  0  0  0  0  0
   -3.0547   -1.4952    6.9070 H   0  0  0  0  0  0  0  0  0  0  0  0
   -4.2236    0.2153    8.3654 H   0  0  0  0  0  0  0  0  0  0  0  0
   -4.2071    2.6934    6.9471 H   0  0  0  0  0  0  0  0  0  0  0  0
   -5.8452    4.1719    5.7862 H   0  0  0  0  0  0  0  0  0  0  0  0
   -8.0406    3.2969    5.0570 H   0  0  0  0  0  0  0  0  0  0  0  0
   -8.6670    0.9451    5.5508 H   0  0  0  0  0  0  0  0  0  0  0  0
   -7.1560   -1.3794    4.8705 H   0  0  0  0  0  0  0  0  0  0  0  0
   -9.6199   -6.0684    6.5697 H   0  0  0  0  0  0  0  0  0  0  0  0
   -8.1842   -5.2895    6.4290 H   0  0  0  0  0  0  0  0  0  0  0  0
   -9.4912   -2.5903    7.8062 H   0  0  0  0  0  0  0  0  0  0  0  0
   -5.2265   -2.2241    7.2863 H   0  0  0  0  0  0  0  0  0  0  0  0
  1  2  1  0
  2  3  1  0
  3  4  2  0
  4  5  1  0
  5  6  2  0
  6  7  1  0
  7  8  2  0
  8  9  1  0
  9 10  1  0
 10 11  1  0
 11 12  2  3
 12 13  1  0
 13 14  1  0
 13 15  2  0
 13 16  2  0
 11 17  1  0
 17 18  1  0
 18 19  2  0
  9 20  1  0
 20 21  1  0
 20  2  1  0
  8  3  1  0
 18  9  1  0
  1 22  1  0
  1 23  1  0
  1 24  1  0
  2 25  1  0
  4 26  1  0
  5 27  1  0
  6 28  1  0
  7 29  1  0
 10 30  1  0
 14 31  1  0
 14 32  1  0
 17 33  1  0
 20 34  1  0
M  END
>  <Energy>  (35) 
-128.95089074087568

>  <compound_id>  (35) 
386

>  <target_id>  (35) 
1

>  <reference_id>  (35) 
65

>  <inspiration_ids>  (35) 
[51, 65]

>  <energy_score>  (35) 
-22.642558996385002

>  <distance_score>  (35) 
1.5345255764514165

>  <path>  (35) 
/opt/xchem-fragalysis-2/maxwin/BulkDock/SCRATCH/505733/C386-P65/C386-P65.minimised.mol

>  <scratch_subdir>  (35) 
/opt/xchem-fragalysis-2/maxwin/BulkDock/SCRATCH/505733/C386-P65

>  <fragmenstein_runtime>  (35) 
2.318713903427124

>  <fragmenstein_outcome>  (35) 
too moved

>  <fragmenstein_mode>  (35) 
expansion

>  <fragmenstein_error>  (35) 


$$$$
C387-P51
     RDKit          3D

 31 32  0  0  0  0  0  0  0  0999 V2000
   -8.3797    0.0748    4.4455 C   0  0  0  0  0  0  0  0  0  0  0  0
   -8.9607    0.1803    5.8309 C   0  0  0  0  0  0  0  0  0  0  0  0
   -9.6930   -0.6905    6.4402 N   0  0  0  0  0  0  0  0  0  0  0  0
   -9.8537   -2.0584    5.9908 C   0  0  0  0  0  0  0  0  0  0  0  0
  -10.3027   -2.2285    4.6223 N   0  0  0  0  0  0  0  0  0  0  0  0
   -9.3043   -3.0593    3.9313 C   0  0  0  0  0  0  0  0  0  0  0  0
   -8.1997   -3.3022    4.9285 C   0  0  0  0  0  0  0  0  0  0  0  0
   -7.1356   -3.8562    4.7030 O   0  0  0  0  0  0  0  0  0  0  0  0
   -8.6204   -2.7678    6.1172 N   0  0  0  0  0  0  0  0  0  0  0  0
   -7.9126   -2.9204    7.3764 C   0  0  0  0  0  0  0  0  0  0  0  0
   -7.3010   -1.6312    7.9439 C   0  0  0  0  0  0  0  0  0  0  0  0
   -6.3284   -1.0099    7.0692 N   0  0  0  0  0  0  0  0  0  0  0  0
   -6.3127    0.2827    6.6415 C   0  0  0  0  0  0  0  0  0  0  0  0
   -5.5175    0.6095    5.7640 O   0  0  0  0  0  0  0  0  0  0  0  0
   -7.2903    1.3077    7.2139 C   0  0  0  0  0  0  0  0  0  0  0  0
   -8.6145    1.3063    6.5541 N   0  0  0  0  0  0  0  0  0  0  0  0
   -7.6544   -0.7353    4.3768 H   0  0  0  0  0  0  0  0  0  0  0  0
   -7.8702    1.0061    4.1766 H   0  0  0  0  0  0  0  0  0  0  0  0
   -9.1791   -0.0694    3.7154 H   0  0  0  0  0  0  0  0  0  0  0  0
  -10.5694   -2.5513    6.6600 H   0  0  0  0  0  0  0  0  0  0  0  0
  -11.1766   -2.7661    4.6573 H   0  0  0  0  0  0  0  0  0  0  0  0
   -8.9095   -2.5363    3.0568 H   0  0  0  0  0  0  0  0  0  0  0  0
   -9.7440   -4.0127    3.6278 H   0  0  0  0  0  0  0  0  0  0  0  0
   -7.1140   -3.6567    7.2292 H   0  0  0  0  0  0  0  0  0  0  0  0
   -8.6154   -3.3476    8.0998 H   0  0  0  0  0  0  0  0  0  0  0  0
   -8.0818   -0.9311    8.2409 H   0  0  0  0  0  0  0  0  0  0  0  0
   -6.7530   -1.8383    8.8562 H   0  0  0  0  0  0  0  0  0  0  0  0
   -5.6874   -1.6213    6.5755 H   0  0  0  0  0  0  0  0  0  0  0  0
   -6.8471    2.3033    7.1008 H   0  0  0  0  0  0  0  0  0  0  0  0
   -7.4049    1.1441    8.2907 H   0  0  0  0  0  0  0  0  0  0  0  0
   -9.3105    1.4050    7.2906 H   0  0  0  0  0  0  0  0  0  0  0  0
  1  2  1  0
  2  3  2  3
  3  4  1  0
  4  5  1  0
  5  6  1  0
  6  7  1  0
  7  8  2  0
  7  9  1  0
  9 10  1  0
 10 11  1  0
 11 12  1  0
 12 13  1  0
 13 14  2  0
 13 15  1  0
 15 16  1  0
 16  2  1  0
  9  4  1  0
  1 17  1  0
  1 18  1  0
  1 19  1  0
  4 20  1  0
  5 21  1  0
  6 22  1  0
  6 23  1  0
 10 24  1  0
 10 25  1  0
 11 26  1  0
 11 27  1  0
 12 28  1  0
 15 29  1  0
 15 30  1  0
 16 31  1  0
M  END
>  <Energy>  (36) 
-54.715636147049381

>  <compound_id>  (36) 
387

>  <target_id>  (36) 
1

>  <reference_id>  (36) 
51

>  <inspiration_ids>  (36) 
[51, 73]

>  <energy_score>  (36) 
-65.58873527519475

>  <distance_score>  (36) 
1.6394321496379758

>  <path>  (36) 
/opt/xchem-fragalysis-2/maxwin/BulkDock/SCRATCH/505733/C387-P51/C387-P51.minimised.mol

>  <scratch_subdir>  (36) 
/opt/xchem-fragalysis-2/maxwin/BulkDock/SCRATCH/505733/C387-P51

>  <fragmenstein_runtime>  (36) 
5.014528751373291

>  <fragmenstein_outcome>  (36) 
too moved

>  <fragmenstein_mode>  (36) 
expansion

>  <fragmenstein_error>  (36) 


$$$$
C387-P73
     RDKit          3D

 31 32  0  0  0  0  0  0  0  0999 V2000
   -8.5563    0.3347    4.9786 C   0  0  0  0  0  0  0  0  0  0  0  0
   -8.3576    0.2262    6.4659 C   0  0  0  0  0  0  0  0  0  0  0  0
   -8.6686   -0.7685    7.2275 N   0  0  0  0  0  0  0  0  0  0  0  0
   -9.0954   -2.0685    6.7682 C   0  0  0  0  0  0  0  0  0  0  0  0
  -10.4710   -2.0585    6.3297 N   0  0  0  0  0  0  0  0  0  0  0  0
  -10.5348   -2.7721    5.0598 C   0  0  0  0  0  0  0  0  0  0  0  0
   -9.1066   -3.0054    4.6565 C   0  0  0  0  0  0  0  0  0  0  0  0
   -8.7133   -3.4834    3.6045 O   0  0  0  0  0  0  0  0  0  0  0  0
   -8.3163   -2.5799    5.6902 N   0  0  0  0  0  0  0  0  0  0  0  0
   -6.8784   -2.8217    5.6356 C   0  0  0  0  0  0  0  0  0  0  0  0
   -6.0053   -2.5521    6.8590 C   0  0  0  0  0  0  0  0  0  0  0  0
   -6.0032   -1.1930    7.3582 N   0  0  0  0  0  0  0  0  0  0  0  0
   -5.6607   -0.1762    6.4885 C   0  0  0  0  0  0  0  0  0  0  0  0
   -5.0668   -0.3837    5.4373 O   0  0  0  0  0  0  0  0  0  0  0  0
   -6.1731    1.2226    6.8642 C   0  0  0  0  0  0  0  0  0  0  0  0
   -7.6396    1.2306    7.0887 N   0  0  0  0  0  0  0  0  0  0  0  0
   -7.8006   -0.2422    4.4435 H   0  0  0  0  0  0  0  0  0  0  0  0
   -8.4601    1.3809    4.6706 H   0  0  0  0  0  0  0  0  0  0  0  0
   -9.5524   -0.0015    4.6894 H   0  0  0  0  0  0  0  0  0  0  0  0
   -8.9936   -2.7813    7.5942 H   0  0  0  0  0  0  0  0  0  0  0  0
  -10.7289   -1.0864    6.2024 H   0  0  0  0  0  0  0  0  0  0  0  0
  -11.0470   -2.1718    4.3048 H   0  0  0  0  0  0  0  0  0  0  0  0
  -11.0290   -3.7351    5.1978 H   0  0  0  0  0  0  0  0  0  0  0  0
   -6.5044   -2.2741    4.7635 H   0  0  0  0  0  0  0  0  0  0  0  0
   -6.7538   -3.8810    5.3757 H   0  0  0  0  0  0  0  0  0  0  0  0
   -6.3755   -3.1939    7.6448 H   0  0  0  0  0  0  0  0  0  0  0  0
   -4.9680   -2.8293    6.6414 H   0  0  0  0  0  0  0  0  0  0  0  0
   -6.7965   -0.9755    7.9576 H   0  0  0  0  0  0  0  0  0  0  0  0
   -5.9359    1.9134    6.0487 H   0  0  0  0  0  0  0  0  0  0  0  0
   -5.6538    1.5621    7.7651 H   0  0  0  0  0  0  0  0  0  0  0  0
   -7.7998    1.1469    8.0918 H   0  0  0  0  0  0  0  0  0  0  0  0
  1  2  1  0
  2  3  2  3
  3  4  1  0
  4  5  1  0
  5  6  1  0
  6  7  1  0
  7  8  2  0
  7  9  1  0
  9 10  1  0
 10 11  1  0
 11 12  1  0
 12 13  1  0
 13 14  2  0
 13 15  1  0
 15 16  1  0
 16  2  1  0
  9  4  1  0
  1 17  1  0
  1 18  1  0
  1 19  1  0
  4 20  1  0
  5 21  1  0
  6 22  1  0
  6 23  1  0
 10 24  1  0
 10 25  1  0
 11 26  1  0
 11 27  1  0
 12 28  1  0
 15 29  1  0
 15 30  1  0
 16 31  1  0
M  END
>  <Energy>  (37) 
-59.426446707167187

>  <compound_id>  (37) 
387

>  <target_id>  (37) 
1

>  <reference_id>  (37) 
73

>  <inspiration_ids>  (37) 
[51, 73]

>  <energy_score>  (37) 
-70.29954583531247

>  <distance_score>  (37) 
1.981417765529395

>  <path>  (37) 
/opt/xchem-fragalysis-2/maxwin/BulkDock/SCRATCH/505733/C387-P73/C387-P73.minimised.mol

>  <scratch_subdir>  (37) 
/opt/xchem-fragalysis-2/maxwin/BulkDock/SCRATCH/505733/C387-P73

>  <fragmenstein_runtime>  (37) 
5.238310098648071

>  <fragmenstein_outcome>  (37) 
too moved

>  <fragmenstein_mode>  (37) 
expansion

>  <fragmenstein_error>  (37) 


$$$$
C388-P51
     RDKit          3D

 27 27  0  0  0  0  0  0  0  0999 V2000
   -9.3652    0.4214    4.0336 C   0  0  0  0  0  0  0  0  0  0  0  0
   -9.3095    0.5439    5.5521 C   0  0  0  0  0  0  0  0  0  0  0  0
   -8.5423   -0.5922    6.2625 C   0  0  0  0  0  0  0  0  0  0  0  0
   -9.1782   -1.8835    5.9758 N   0  0  0  0  0  0  0  0  0  0  0  0
   -8.7634   -3.2801    6.3362 C   0  0  0  0  0  0  0  0  0  0  0  0
   -9.9519   -4.0755    5.8264 N   0  0  0  0  0  0  0  0  0  0  0  0
   -7.7914   -3.6623    6.8647 O   0  0  0  0  0  0  0  0  0  0  0  0
   -8.5506   -0.3531    7.7965 C   0  0  0  0  0  0  0  0  0  0  0  0
   -7.1545   -0.7199    8.2732 C   0  0  0  0  0  0  0  0  0  0  0  0
   -6.2986   -0.2439    7.1334 C   0  0  0  0  0  0  0  0  0  0  0  0
   -5.0630   -0.7674    7.1661 F   0  0  0  0  0  0  0  0  0  0  0  0
   -6.1574    1.1076    7.1966 F   0  0  0  0  0  0  0  0  0  0  0  0
   -7.0437   -0.6175    5.8712 C   0  0  0  0  0  0  0  0  0  0  0  0
   -9.9327    1.2603    3.6168 H   0  0  0  0  0  0  0  0  0  0  0  0
   -8.3703    0.4431    3.5814 H   0  0  0  0  0  0  0  0  0  0  0  0
   -9.8645   -0.4999    3.7195 H   0  0  0  0  0  0  0  0  0  0  0  0
  -10.3400    0.5766    5.9293 H   0  0  0  0  0  0  0  0  0  0  0  0
   -8.8536    1.5106    5.8018 H   0  0  0  0  0  0  0  0  0  0  0  0
  -10.0284   -1.9144    5.4606 H   0  0  0  0  0  0  0  0  0  0  0  0
  -10.6871   -3.4267    5.5206 H   0  0  0  0  0  0  0  0  0  0  0  0
  -10.5815   -3.4499    5.3110 H   0  0  0  0  0  0  0  0  0  0  0  0
   -9.3187   -0.9324    8.3204 H   0  0  0  0  0  0  0  0  0  0  0  0
   -8.7307    0.7055    8.0243 H   0  0  0  0  0  0  0  0  0  0  0  0
   -6.9103   -0.2217    9.2145 H   0  0  0  0  0  0  0  0  0  0  0  0
   -7.0507   -1.7962    8.4177 H   0  0  0  0  0  0  0  0  0  0  0  0
   -6.7969    0.0947    5.0787 H   0  0  0  0  0  0  0  0  0  0  0  0
   -6.7290   -1.6070    5.5261 H   0  0  0  0  0  0  0  0  0  0  0  0
  1  2  1  0
  2  3  1  0
  3  4  1  0
  4  5  1  0
  5  6  1  0
  5  7  2  0
  3  8  1  0
  8  9  1  0
  9 10  1  0
 10 11  1  0
 10 12  1  0
 10 13  1  0
 13  3  1  0
  1 14  1  0
  1 15  1  0
  1 16  1  0
  2 17  1  0
  2 18  1  0
  4 19  1  0
  6 20  1  0
  6 21  1  0
  8 22  1  0
  8 23  1  0
  9 24  1  0
  9 25  1  0
 13 26  1  0
 13 27  1  0
M  END
>  <Energy>  (38) 
117.29855835699874

>  <compound_id>  (38) 
388

>  <target_id>  (38) 
1

>  <reference_id>  (38) 
51

>  <inspiration_ids>  (38) 
[51, 74]

>  <energy_score>  (38) 
158.13066199439348

>  <distance_score>  (38) 
2.383635181119409

>  <path>  (38) 
/opt/xchem-fragalysis-2/maxwin/BulkDock/SCRATCH/505733/C388-P51/C388-P51.minimised.mol

>  <scratch_subdir>  (38) 
/opt/xchem-fragalysis-2/maxwin/BulkDock/SCRATCH/505733/C388-P51

>  <fragmenstein_runtime>  (38) 
20.351937294006348

>  <fragmenstein_outcome>  (38) 
too moved

>  <fragmenstein_mode>  (38) 
expansion

>  <fragmenstein_error>  (38) 


$$$$
C388-P74
     RDKit          3D

 27 27  0  0  0  0  0  0  0  0999 V2000
   -9.7289    0.0194    5.3319 C   0  0  0  0  0  0  0  0  0  0  0  0
   -8.2589    0.2795    5.0512 C   0  0  0  0  0  0  0  0  0  0  0  0
   -7.3032   -0.9080    5.2775 C   0  0  0  0  0  0  0  0  0  0  0  0
   -7.4863   -1.9847    4.2929 N   0  0  0  0  0  0  0  0  0  0  0  0
   -8.6265   -2.9430    4.0878 C   0  0  0  0  0  0  0  0  0  0  0  0
   -8.0572   -3.8282    2.9907 N   0  0  0  0  0  0  0  0  0  0  0  0
   -9.6692   -2.9995    4.6198 O   0  0  0  0  0  0  0  0  0  0  0  0
   -7.3370   -1.4836    6.7092 C   0  0  0  0  0  0  0  0  0  0  0  0
   -5.9182   -2.0008    6.9902 C   0  0  0  0  0  0  0  0  0  0  0  0
   -5.0832   -1.5385    5.8163 C   0  0  0  0  0  0  0  0  0  0  0  0
   -4.9724   -2.5355    4.8980 F   0  0  0  0  0  0  0  0  0  0  0  0
   -3.8372   -1.1873    6.1689 F   0  0  0  0  0  0  0  0  0  0  0  0
   -5.8490   -0.3965    5.1909 C   0  0  0  0  0  0  0  0  0  0  0  0
  -10.2743    0.9693    5.3529 H   0  0  0  0  0  0  0  0  0  0  0  0
  -10.1831   -0.5845    4.5434 H   0  0  0  0  0  0  0  0  0  0  0  0
   -9.8845   -0.4734    6.2954 H   0  0  0  0  0  0  0  0  0  0  0  0
   -7.9510    1.1113    5.6989 H   0  0  0  0  0  0  0  0  0  0  0  0
   -8.1585    0.6416    4.0200 H   0  0  0  0  0  0  0  0  0  0  0  0
   -6.7119   -2.2671    3.7337 H   0  0  0  0  0  0  0  0  0  0  0  0
   -7.0737   -3.5794    2.8314 H   0  0  0  0  0  0  0  0  0  0  0  0
   -7.1647   -3.4355    2.6681 H   0  0  0  0  0  0  0  0  0  0  0  0
   -7.5686   -0.6948    7.4362 H   0  0  0  0  0  0  0  0  0  0  0  0
   -8.0813   -2.2755    6.8424 H   0  0  0  0  0  0  0  0  0  0  0  0
   -5.5448   -1.5863    7.9318 H   0  0  0  0  0  0  0  0  0  0  0  0
   -5.9125   -3.0926    7.0593 H   0  0  0  0  0  0  0  0  0  0  0  0
   -5.6983    0.5221    5.7702 H   0  0  0  0  0  0  0  0  0  0  0  0
   -5.5303   -0.2117    4.1595 H   0  0  0  0  0  0  0  0  0  0  0  0
  1  2  1  0
  2  3  1  0
  3  4  1  0
  4  5  1  0
  5  6  1  0
  5  7  2  0
  3  8  1  0
  8  9  1  0
  9 10  1  0
 10 11  1  0
 10 12  1  0
 10 13  1  0
 13  3  1  0
  1 14  1  0
  1 15  1  0
  1 16  1  0
  2 17  1  0
  2 18  1  0
  4 19  1  0
  6 20  1  0
  6 21  1  0
  8 22  1  0
  8 23  1  0
  9 24  1  0
  9 25  1  0
 13 26  1  0
 13 27  1  0
M  END
>  <Energy>  (39) 
118.63311078514187

>  <compound_id>  (39) 
388

>  <target_id>  (39) 
1

>  <reference_id>  (39) 
74

>  <inspiration_ids>  (39) 
[51, 74]

>  <energy_score>  (39) 
159.46521442253635

>  <distance_score>  (39) 
2.9572207779265276

>  <path>  (39) 
/opt/xchem-fragalysis-2/maxwin/BulkDock/SCRATCH/505733/C388-P74/C388-P74.minimised.mol

>  <scratch_subdir>  (39) 
/opt/xchem-fragalysis-2/maxwin/BulkDock/SCRATCH/505733/C388-P74

>  <fragmenstein_runtime>  (39) 
19.843334197998047

>  <fragmenstein_outcome>  (39) 
too moved

>  <fragmenstein_mode>  (39) 
expansion

>  <fragmenstein_error>  (39) 


$$$$
C389-P51
     RDKit          3D

 35 37  0  0  0  0  0  0  0  0999 V2000
   -4.8175   -0.5317    8.1610 C   0  0  0  0  0  0  0  0  0  0  0  0
   -5.8380    0.4694    8.0576 O   0  0  0  0  0  0  0  0  0  0  0  0
   -6.8815    0.2783    8.9248 C   0  0  0  0  0  0  0  0  0  0  0  0
   -6.7830   -0.3927    9.8702 O   0  0  0  0  0  0  0  0  0  0  0  0
   -8.0564    0.9703    8.3642 N   0  0  0  0  0  0  0  0  0  0  0  0
   -9.4269    1.1040    8.8783 C   0  0  0  0  0  0  0  0  0  0  0  0
   -9.7304    0.9704   10.0577 O   0  0  0  0  0  0  0  0  0  0  0  0
  -10.3275    1.5412    7.9978 N   0  0  0  0  0  0  0  0  0  0  0  0
  -10.1782    0.5523    7.1403 C   0  0  0  0  0  0  0  0  0  0  0  0
  -11.0425    0.0688    6.4331 O   0  0  0  0  0  0  0  0  0  0  0  0
   -8.7760    0.1101    7.3968 C   0  0  0  0  0  0  0  0  0  0  0  0
   -8.7110   -1.4432    7.6526 C   0  0  0  0  0  0  0  0  0  0  0  0
   -8.4272   -2.1332    6.3078 C   0  0  0  0  0  0  0  0  0  0  0  0
   -9.6330   -2.9028    5.8209 C   0  0  0  0  0  0  0  0  0  0  0  0
   -7.3344   -3.0369    6.4429 O   0  0  0  0  0  0  0  0  0  0  0  0
   -7.9916   -1.0036    5.4271 C   0  0  0  0  0  0  0  0  0  0  0  0
   -7.6254   -1.0295    4.1004 C   0  0  0  0  0  0  0  0  0  0  0  0
   -7.2529    0.1661    3.4722 C   0  0  0  0  0  0  0  0  0  0  0  0
   -7.1852    1.3726    4.1717 C   0  0  0  0  0  0  0  0  0  0  0  0
   -7.5879    1.4079    5.4920 C   0  0  0  0  0  0  0  0  0  0  0  0
   -8.0341    0.2217    6.0791 C   0  0  0  0  0  0  0  0  0  0  0  0
   -4.0719   -0.2211    8.8948 H   0  0  0  0  0  0  0  0  0  0  0  0
   -5.2291   -1.5131    8.4072 H   0  0  0  0  0  0  0  0  0  0  0  0
   -4.3430   -0.6345    7.1842 H   0  0  0  0  0  0  0  0  0  0  0  0
  -11.2743    1.6816    8.3183 H   0  0  0  0  0  0  0  0  0  0  0  0
   -9.6536   -1.7890    8.0944 H   0  0  0  0  0  0  0  0  0  0  0  0
   -7.9437   -1.7526    8.3626 H   0  0  0  0  0  0  0  0  0  0  0  0
   -9.9139   -3.6842    6.5333 H   0  0  0  0  0  0  0  0  0  0  0  0
   -9.4138   -3.4174    4.8776 H   0  0  0  0  0  0  0  0  0  0  0  0
  -10.5035   -2.2643    5.6499 H   0  0  0  0  0  0  0  0  0  0  0  0
   -7.6336   -3.7875    6.9848 H   0  0  0  0  0  0  0  0  0  0  0  0
   -7.6098   -1.9623    3.5443 H   0  0  0  0  0  0  0  0  0  0  0  0
   -6.9605    0.1394    2.4235 H   0  0  0  0  0  0  0  0  0  0  0  0
   -6.8600    2.2766    3.6651 H   0  0  0  0  0  0  0  0  0  0  0  0
   -7.6146    2.3532    6.0261 H   0  0  0  0  0  0  0  0  0  0  0  0
  1  2  1  0
  2  3  1  0
  3  4  2  0
  3  5  1  0
  5  6  1  0
  6  7  2  0
  6  8  1  0
  8  9  1  0
  9 10  2  0
  9 11  1  0
 11 12  1  0
 12 13  1  0
 13 14  1  0
 13 15  1  0
 13 16  1  0
 16 17  2  0
 17 18  1  0
 18 19  2  0
 19 20  1  0
 20 21  2  0
 11  5  1  0
 21 16  1  0
 21 11  1  0
  1 22  1  0
  1 23  1  0
  1 24  1  0
  8 25  1  0
 12 26  1  0
 12 27  1  0
 14 28  1  0
 14 29  1  0
 14 30  1  0
 15 31  1  0
 17 32  1  0
 18 33  1  0
 19 34  1  0
 20 35  1  0
M  END
>  <Energy>  (40) 
-0.9370938071990782

>  <compound_id>  (40) 
389

>  <target_id>  (40) 
1

>  <reference_id>  (40) 
51

>  <inspiration_ids>  (40) 
[51, 84]

>  <energy_score>  (40) 
40.30904242382201

>  <distance_score>  (40) 
3.328937817358079

>  <path>  (40) 
/opt/xchem-fragalysis-2/maxwin/BulkDock/SCRATCH/505733/C389-P51/C389-P51.minimised.mol

>  <scratch_subdir>  (40) 
/opt/xchem-fragalysis-2/maxwin/BulkDock/SCRATCH/505733/C389-P51

>  <fragmenstein_runtime>  (40) 
2.4088175296783447

>  <fragmenstein_outcome>  (40) 
too moved

>  <fragmenstein_mode>  (40) 
expansion

>  <fragmenstein_error>  (40) 


$$$$
C389-P84
     RDKit          3D

 35 37  0  0  0  0  0  0  0  0999 V2000
   -7.6116    3.8399    4.7981 C   0  0  0  0  0  0  0  0  0  0  0  0
   -7.6120    2.8970    5.8719 O   0  0  0  0  0  0  0  0  0  0  0  0
   -6.5345    2.0576    5.9090 C   0  0  0  0  0  0  0  0  0  0  0  0
   -5.6288    2.1645    5.1236 O   0  0  0  0  0  0  0  0  0  0  0  0
   -6.6858    1.1995    7.0362 N   0  0  0  0  0  0  0  0  0  0  0  0
   -5.7559    0.2619    7.6537 C   0  0  0  0  0  0  0  0  0  0  0  0
   -4.5468    0.2586    7.4693 O   0  0  0  0  0  0  0  0  0  0  0  0
   -6.3428   -0.5233    8.5632 N   0  0  0  0  0  0  0  0  0  0  0  0
   -7.3688   -0.9805    7.8610 C   0  0  0  0  0  0  0  0  0  0  0  0
   -7.9687   -2.0166    8.0637 O   0  0  0  0  0  0  0  0  0  0  0  0
   -7.3607   -0.1029    6.6351 C   0  0  0  0  0  0  0  0  0  0  0  0
   -6.7215   -0.9203    5.4476 C   0  0  0  0  0  0  0  0  0  0  0  0
   -7.8760   -1.6175    4.7009 C   0  0  0  0  0  0  0  0  0  0  0  0
   -8.1657   -3.0503    5.1319 C   0  0  0  0  0  0  0  0  0  0  0  0
   -7.5908   -1.6242    3.3087 O   0  0  0  0  0  0  0  0  0  0  0  0
   -9.0209   -0.6940    4.9921 C   0  0  0  0  0  0  0  0  0  0  0  0
  -10.2289   -0.6049    4.3195 C   0  0  0  0  0  0  0  0  0  0  0  0
  -11.1869    0.2959    4.7841 C   0  0  0  0  0  0  0  0  0  0  0  0
  -10.9436    1.0720    5.9252 C   0  0  0  0  0  0  0  0  0  0  0  0
   -9.7325    0.9724    6.6057 C   0  0  0  0  0  0  0  0  0  0  0  0
   -8.7637    0.1106    6.1095 C   0  0  0  0  0  0  0  0  0  0  0  0
   -6.7650    4.5266    4.8939 H   0  0  0  0  0  0  0  0  0  0  0  0
   -7.5879    3.3230    3.8337 H   0  0  0  0  0  0  0  0  0  0  0  0
   -8.5371    4.4192    4.8571 H   0  0  0  0  0  0  0  0  0  0  0  0
   -5.7883   -1.2078    9.0484 H   0  0  0  0  0  0  0  0  0  0  0  0
   -5.9732   -1.6514    5.7808 H   0  0  0  0  0  0  0  0  0  0  0  0
   -6.1942   -0.2558    4.7522 H   0  0  0  0  0  0  0  0  0  0  0  0
   -8.8946   -3.5065    4.4508 H   0  0  0  0  0  0  0  0  0  0  0  0
   -8.5797   -3.1376    6.1363 H   0  0  0  0  0  0  0  0  0  0  0  0
   -7.2591   -3.6627    5.0714 H   0  0  0  0  0  0  0  0  0  0  0  0
   -6.7743   -2.1351    3.1773 H   0  0  0  0  0  0  0  0  0  0  0  0
  -10.4189   -1.2191    3.4439 H   0  0  0  0  0  0  0  0  0  0  0  0
  -12.1350    0.3927    4.2614 H   0  0  0  0  0  0  0  0  0  0  0  0
  -11.7063    1.7607    6.2811 H   0  0  0  0  0  0  0  0  0  0  0  0
   -9.5501    1.5859    7.4842 H   0  0  0  0  0  0  0  0  0  0  0  0
  1  2  1  0
  2  3  1  0
  3  4  2  0
  3  5  1  0
  5  6  1  0
  6  7  2  0
  6  8  1  0
  8  9  1  0
  9 10  2  0
  9 11  1  0
 11 12  1  0
 12 13  1  0
 13 14  1  0
 13 15  1  0
 13 16  1  0
 16 17  2  0
 17 18  1  0
 18 19  2  0
 19 20  1  0
 20 21  2  0
 11  5  1  0
 21 16  1  0
 21 11  1  0
  1 22  1  0
  1 23  1  0
  1 24  1  0
  8 25  1  0
 12 26  1  0
 12 27  1  0
 14 28  1  0
 14 29  1  0
 14 30  1  0
 15 31  1  0
 17 32  1  0
 18 33  1  0
 19 34  1  0
 20 35  1  0
M  END
>  <Energy>  (41) 
-15.705679560347242

>  <compound_id>  (41) 
389

>  <target_id>  (41) 
1

>  <reference_id>  (41) 
84

>  <inspiration_ids>  (41) 
[51, 84]

>  <energy_score>  (41) 
6.172756454075383

>  <distance_score>  (41) 
3.355717786390595

>  <path>  (41) 
/opt/xchem-fragalysis-2/maxwin/BulkDock/SCRATCH/505733/C389-P84/C389-P84.minimised.mol

>  <scratch_subdir>  (41) 
/opt/xchem-fragalysis-2/maxwin/BulkDock/SCRATCH/505733/C389-P84

>  <fragmenstein_runtime>  (41) 
4.099441289901733

>  <fragmenstein_outcome>  (41) 
too moved

>  <fragmenstein_mode>  (41) 
expansion

>  <fragmenstein_error>  (41) 


$$$$
C42-P51
     RDKit          3D

 25 27  0  0  0  0  0  0  0  0999 V2000
   -3.9847   -3.6750    7.2928 O   0  0  0  0  0  0  0  0  0  0  0  0
   -4.5430   -2.5980    7.3362 C   0  0  0  0  0  0  0  0  0  0  0  0
   -4.1265   -1.5284    8.0424 N   0  0  0  0  0  0  0  0  0  0  0  0
   -5.0589   -0.5553    7.9771 C   0  0  0  0  0  0  0  0  0  0  0  0
   -4.9453    0.5504    8.4767 O   0  0  0  0  0  0  0  0  0  0  0  0
   -6.2472   -1.0792    7.1903 C   0  0  0  0  0  0  0  0  0  0  0  0
   -7.4771   -1.3564    8.0560 C   0  0  0  0  0  0  0  0  0  0  0  0
   -8.6783   -1.2595    7.1132 C   0  0  0  0  0  0  0  0  0  0  0  0
   -8.1920   -0.2330    6.1442 C   0  0  0  0  0  0  0  0  0  0  0  0
   -8.9506    0.5701    5.3159 C   0  0  0  0  0  0  0  0  0  0  0  0
   -8.2967    1.5415    4.5592 C   0  0  0  0  0  0  0  0  0  0  0  0
   -6.9065    1.6913    4.6339 C   0  0  0  0  0  0  0  0  0  0  0  0
   -6.1510    0.8538    5.4506 C   0  0  0  0  0  0  0  0  0  0  0  0
   -6.7999   -0.1208    6.1896 C   0  0  0  0  0  0  0  0  0  0  0  0
   -5.7014   -2.2991    6.6774 N   0  0  0  0  0  0  0  0  0  0  0  0
   -3.2789   -1.4711    8.5837 H   0  0  0  0  0  0  0  0  0  0  0  0
   -7.4713   -2.3332    8.5347 H   0  0  0  0  0  0  0  0  0  0  0  0
   -7.5695   -0.5982    8.8465 H   0  0  0  0  0  0  0  0  0  0  0  0
   -8.8656   -2.2081    6.5991 H   0  0  0  0  0  0  0  0  0  0  0  0
   -9.5776   -0.9412    7.6482 H   0  0  0  0  0  0  0  0  0  0  0  0
  -10.0312    0.4769    5.2768 H   0  0  0  0  0  0  0  0  0  0  0  0
   -8.8725    2.1984    3.9112 H   0  0  0  0  0  0  0  0  0  0  0  0
   -6.4174    2.4621    4.0429 H   0  0  0  0  0  0  0  0  0  0  0  0
   -5.0787    0.9820    5.5048 H   0  0  0  0  0  0  0  0  0  0  0  0
   -6.2313   -3.0185    6.2028 H   0  0  0  0  0  0  0  0  0  0  0  0
  1  2  2  0
  2  3  1  0
  3  4  1  0
  4  5  2  0
  4  6  1  0
  6  7  1  0
  7  8  1  0
  8  9  1  0
  9 10  2  0
 10 11  1  0
 11 12  2  0
 12 13  1  0
 13 14  2  0
  6 15  1  0
 15  2  1  0
 14  6  1  0
 14  9  1  0
  3 16  1  0
  7 17  1  0
  7 18  1  0
  8 19  1  0
  8 20  1  0
 10 21  1  0
 11 22  1  0
 12 23  1  0
 13 24  1  0
 15 25  1  0
M  END
>  <Energy>  (42) 
-33.103221675192863

>  <compound_id>  (42) 
42

>  <target_id>  (42) 
1

>  <reference_id>  (42) 
51

>  <inspiration_ids>  (42) 
[51, 91]

>  <energy_score>  (42) 
-13.290483190985157

>  <distance_score>  (42) 
1.800280975798402

>  <path>  (42) 
/opt/xchem-fragalysis-2/maxwin/BulkDock/SCRATCH/505733/C42-P51/C42-P51.minimised.mol

>  <scratch_subdir>  (42) 
/opt/xchem-fragalysis-2/maxwin/BulkDock/SCRATCH/505733/C42-P51

>  <fragmenstein_runtime>  (42) 
1.489119529724121

>  <fragmenstein_outcome>  (42) 
too moved

>  <fragmenstein_mode>  (42) 
expansion

>  <fragmenstein_error>  (42) 


$$$$
C391-P51
     RDKit          3D

 61 63  0  0  0  0  0  0  0  0999 V2000
   -6.3739    2.9046    3.5490 C   0  0  0  0  0  0  0  0  0  0  0  0
   -7.5076    2.4837    4.4706 C   0  0  0  0  0  0  0  0  0  0  0  0
   -7.8458    3.5811    5.4796 C   0  0  0  0  0  0  0  0  0  0  0  0
   -8.9958    3.1947    6.4129 C   0  0  0  0  0  0  0  0  0  0  0  0
   -8.5613    2.3006    7.5847 C   0  0  0  0  0  0  0  0  0  0  0  0
   -9.5587    1.1512    7.8859 C   0  0  0  0  0  0  0  0  0  0  0  0
   -9.5248    0.1055    6.7587 C   0  0  0  0  0  0  0  0  0  0  0  0
  -10.8144   -0.5614    6.2812 C   0  0  0  0  0  0  0  0  0  0  0  0
  -10.6758   -1.3135    4.9713 C   0  0  0  0  0  0  0  0  0  0  0  0
  -10.2934   -2.7413    5.4048 C   0  0  0  0  0  0  0  0  0  0  0  0
   -8.8231   -3.1137    5.6299 C   0  0  0  0  0  0  0  0  0  0  0  0
   -7.8334   -2.7567    4.5978 N   0  0  0  0  0  0  0  0  0  0  0  0
   -8.3228   -2.9667    3.2305 C   0  0  0  0  0  0  0  0  0  0  0  0
   -7.2032   -3.2249    2.2296 C   0  0  0  0  0  0  0  0  0  0  0  0
   -7.2702   -1.4271    4.8267 C   0  0  0  0  0  0  0  0  0  0  0  0
   -6.3842   -1.4146    6.0427 C   0  0  0  0  0  0  0  0  0  0  0  0
   -5.7777   -2.5239    6.6824 C   0  0  0  0  0  0  0  0  0  0  0  0
   -4.9187   -2.1648    7.6329 N   0  0  0  0  0  0  0  0  0  0  0  0
   -5.0366   -0.8393    7.6946 N   0  0  0  0  0  0  0  0  0  0  0  0
   -5.8684   -0.3352    6.7379 C   0  0  0  0  0  0  0  0  0  0  0  0
  -11.0244   -2.9439    6.6837 N   0  0  0  0  0  0  0  0  0  0  0  0
  -11.3138   -1.7432    7.0474 C   0  0  0  0  0  0  0  0  0  0  0  0
  -12.2375   -1.4049    7.9463 N   0  0  0  0  0  0  0  0  0  0  0  0
  -12.8425   -0.3405    7.3817 C   0  0  0  0  0  0  0  0  0  0  0  0
  -14.0062   -0.0167    7.5294 O   0  0  0  0  0  0  0  0  0  0  0  0
  -11.9893    0.2385    6.4557 N   0  0  0  0  0  0  0  0  0  0  0  0
   -9.1940    0.5220    9.2236 C   0  0  0  0  0  0  0  0  0  0  0  0
   -9.9763   -0.5324    9.5110 F   0  0  0  0  0  0  0  0  0  0  0  0
   -9.3671    1.4274   10.2111 F   0  0  0  0  0  0  0  0  0  0  0  0
   -7.9062    0.1182    9.2543 F   0  0  0  0  0  0  0  0  0  0  0  0
   -6.6339    3.8118    2.9945 H   0  0  0  0  0  0  0  0  0  0  0  0
   -5.4585    3.0981    4.1176 H   0  0  0  0  0  0  0  0  0  0  0  0
   -6.1623    2.1129    2.8238 H   0  0  0  0  0  0  0  0  0  0  0  0
   -7.2155    1.5703    4.9868 H   0  0  0  0  0  0  0  0  0  0  0  0
   -8.3917    2.2473    3.8672 H   0  0  0  0  0  0  0  0  0  0  0  0
   -8.1420    4.4808    4.9255 H   0  0  0  0  0  0  0  0  0  0  0  0
   -6.9586    3.8508    6.0652 H   0  0  0  0  0  0  0  0  0  0  0  0
   -9.8099    2.7472    5.8318 H   0  0  0  0  0  0  0  0  0  0  0  0
   -9.4126    4.1168    6.8387 H   0  0  0  0  0  0  0  0  0  0  0  0
   -7.5654    1.8890    7.4144 H   0  0  0  0  0  0  0  0  0  0  0  0
   -8.4692    2.9398    8.4722 H   0  0  0  0  0  0  0  0  0  0  0  0
  -10.5550    1.5953    7.9803 H   0  0  0  0  0  0  0  0  0  0  0  0
   -8.8048   -0.6619    7.0422 H   0  0  0  0  0  0  0  0  0  0  0  0
   -9.1369    0.6205    5.8795 H   0  0  0  0  0  0  0  0  0  0  0  0
  -11.6505   -1.3562    4.4618 H   0  0  0  0  0  0  0  0  0  0  0  0
  -10.0037   -0.8378    4.2584 H   0  0  0  0  0  0  0  0  0  0  0  0
  -10.6744   -3.4316    4.6520 H   0  0  0  0  0  0  0  0  0  0  0  0
   -8.7882   -4.2045    5.7380 H   0  0  0  0  0  0  0  0  0  0  0  0
   -8.5083   -2.7771    6.6238 H   0  0  0  0  0  0  0  0  0  0  0  0
   -8.9296   -2.1271    2.8765 H   0  0  0  0  0  0  0  0  0  0  0  0
   -8.9665   -3.8522    3.1982 H   0  0  0  0  0  0  0  0  0  0  0  0
   -6.5325   -4.0170    2.5787 H   0  0  0  0  0  0  0  0  0  0  0  0
   -6.6170   -2.3234    2.0353 H   0  0  0  0  0  0  0  0  0  0  0  0
   -7.6277   -3.5471    1.2726 H   0  0  0  0  0  0  0  0  0  0  0  0
   -8.0398   -0.6741    4.9030 H   0  0  0  0  0  0  0  0  0  0  0  0
   -6.7011   -1.0866    3.9630 H   0  0  0  0  0  0  0  0  0  0  0  0
   -5.8990   -3.5736    6.4478 H   0  0  0  0  0  0  0  0  0  0  0  0
   -4.4731   -0.3445    8.3789 H   0  0  0  0  0  0  0  0  0  0  0  0
   -5.9738    0.7271    6.6117 H   0  0  0  0  0  0  0  0  0  0  0  0
  -12.7977   -2.1194    8.3798 H   0  0  0  0  0  0  0  0  0  0  0  0
  -12.3492    0.9180    5.7989 H   0  0  0  0  0  0  0  0  0  0  0  0
  1  2  1  0
  2  3  1  0
  3  4  1  0
  4  5  1  0
  5  6  1  0
  6  7  1  0
  7  8  1  0
  8  9  1  0
  9 10  1  0
 10 11  1  0
 11 12  1  0
 12 13  1  0
 13 14  1  0
 12 15  1  0
 15 16  1  0
 16 17  1  0
 17 18  2  0
 18 19  1  0
 19 20  1  0
 10 21  1  0
 21 22  2  0
 22 23  1  0
 23 24  1  0
 24 25  2  0
 24 26  1  0
  6 27  1  0
 27 28  1  0
 27 29  1  0
 27 30  1  0
 22  8  1  0
 26  8  1  0
 20 16  2  0
  1 31  1  0
  1 32  1  0
  1 33  1  0
  2 34  1  0
  2 35  1  0
  3 36  1  0
  3 37  1  0
  4 38  1  0
  4 39  1  0
  5 40  1  0
  5 41  1  0
  6 42  1  0
  7 43  1  0
  7 44  1  0
  9 45  1  0
  9 46  1  0
 10 47  1  0
 11 48  1  0
 11 49  1  0
 13 50  1  0
 13 51  1  0
 14 52  1  0
 14 53  1  0
 14 54  1  0
 15 55  1  0
 15 56  1  0
 17 57  1  0
 19 58  1  0
 20 59  1  0
 23 60  1  0
 26 61  1  0
M  END
>  <Energy>  (43) 
7.0303676100404093

>  <compound_id>  (43) 
391

>  <target_id>  (43) 
1

>  <reference_id>  (43) 
51

>  <inspiration_ids>  (43) 
[51, 99]

>  <energy_score>  (43) 
-130.1571163201255

>  <distance_score>  (43) 
3.9767576239587115

>  <path>  (43) 
/opt/xchem-fragalysis-2/maxwin/BulkDock/SCRATCH/505733/C391-P51/C391-P51.minimised.mol

>  <scratch_subdir>  (43) 
/opt/xchem-fragalysis-2/maxwin/BulkDock/SCRATCH/505733/C391-P51

>  <fragmenstein_runtime>  (43) 
7.024419784545898

>  <fragmenstein_outcome>  (43) 
too moved

>  <fragmenstein_mode>  (43) 
expansion

>  <fragmenstein_error>  (43) 


$$$$
C391-P99
     RDKit          3D

 61 63  0  0  0  0  0  0  0  0999 V2000
  -10.1088    2.6443    5.7931 C   0  0  0  0  0  0  0  0  0  0  0  0
   -9.3214    1.8814    4.7378 C   0  0  0  0  0  0  0  0  0  0  0  0
   -7.8927    2.3774    4.5558 C   0  0  0  0  0  0  0  0  0  0  0  0
   -6.9921    2.3847    5.7878 C   0  0  0  0  0  0  0  0  0  0  0  0
   -6.4186    1.0153    6.1440 C   0  0  0  0  0  0  0  0  0  0  0  0
   -7.0190    0.3657    7.3913 C   0  0  0  0  0  0  0  0  0  0  0  0
   -8.3045   -0.4749    7.2189 C   0  0  0  0  0  0  0  0  0  0  0  0
   -8.2241   -1.8617    6.5916 C   0  0  0  0  0  0  0  0  0  0  0  0
   -7.3944   -2.0820    5.3821 C   0  0  0  0  0  0  0  0  0  0  0  0
   -8.2585   -1.6529    4.2126 C   0  0  0  0  0  0  0  0  0  0  0  0
   -7.9395   -2.4122    2.9014 C   0  0  0  0  0  0  0  0  0  0  0  0
   -6.5431   -2.7007    2.4712 N   0  0  0  0  0  0  0  0  0  0  0  0
   -6.5683   -3.1920    1.0756 C   0  0  0  0  0  0  0  0  0  0  0  0
   -7.2119   -4.5688    0.9316 C   0  0  0  0  0  0  0  0  0  0  0  0
   -5.5835   -1.5897    2.6188 C   0  0  0  0  0  0  0  0  0  0  0  0
   -4.7999   -1.7070    3.9021 C   0  0  0  0  0  0  0  0  0  0  0  0
   -4.0952   -0.6899    4.5640 C   0  0  0  0  0  0  0  0  0  0  0  0
   -3.7263   -1.0200    5.8047 N   0  0  0  0  0  0  0  0  0  0  0  0
   -4.1181   -2.2871    5.9244 N   0  0  0  0  0  0  0  0  0  0  0  0
   -4.6501   -2.7693    4.7701 C   0  0  0  0  0  0  0  0  0  0  0  0
   -9.6455   -2.0144    4.6487 N   0  0  0  0  0  0  0  0  0  0  0  0
   -9.4805   -2.2908    5.9057 C   0  0  0  0  0  0  0  0  0  0  0  0
  -10.1609   -3.2048    6.6143 N   0  0  0  0  0  0  0  0  0  0  0  0
   -9.1054   -3.8449    7.1824 C   0  0  0  0  0  0  0  0  0  0  0  0
   -8.8537   -5.0375    7.1777 O   0  0  0  0  0  0  0  0  0  0  0  0
   -8.1278   -2.9358    7.5167 N   0  0  0  0  0  0  0  0  0  0  0  0
   -6.0101   -0.3873    8.2343 C   0  0  0  0  0  0  0  0  0  0  0  0
   -4.8590    0.2894    8.3933 F   0  0  0  0  0  0  0  0  0  0  0  0
   -5.7315   -1.6273    7.8052 F   0  0  0  0  0  0  0  0  0  0  0  0
   -6.5738   -0.5003    9.4589 F   0  0  0  0  0  0  0  0  0  0  0  0
  -10.0904    3.7206    5.5950 H   0  0  0  0  0  0  0  0  0  0  0  0
   -9.7144    2.4709    6.7982 H   0  0  0  0  0  0  0  0  0  0  0  0
  -11.1540    2.3184    5.7881 H   0  0  0  0  0  0  0  0  0  0  0  0
   -9.8393    2.0127    3.7786 H   0  0  0  0  0  0  0  0  0  0  0  0
   -9.3672    0.8180    4.9357 H   0  0  0  0  0  0  0  0  0  0  0  0
   -7.9512    3.4116    4.1895 H   0  0  0  0  0  0  0  0  0  0  0  0
   -7.4155    1.8107    3.7467 H   0  0  0  0  0  0  0  0  0  0  0  0
   -7.4776    2.8690    6.6403 H   0  0  0  0  0  0  0  0  0  0  0  0
   -6.1397    3.0323    5.5383 H   0  0  0  0  0  0  0  0  0  0  0  0
   -6.4690    0.3912    5.2607 H   0  0  0  0  0  0  0  0  0  0  0  0
   -5.3619    1.1813    6.3467 H   0  0  0  0  0  0  0  0  0  0  0  0
   -7.3217    1.2059    8.0339 H   0  0  0  0  0  0  0  0  0  0  0  0
   -9.0558    0.1263    6.7149 H   0  0  0  0  0  0  0  0  0  0  0  0
   -8.7389   -0.5970    8.2237 H   0  0  0  0  0  0  0  0  0  0  0  0
   -7.1253   -3.1413    5.2783 H   0  0  0  0  0  0  0  0  0  0  0  0
   -6.5126   -1.4928    5.4877 H   0  0  0  0  0  0  0  0  0  0  0  0
   -8.1823   -0.5820    4.0275 H   0  0  0  0  0  0  0  0  0  0  0  0
   -8.4615   -1.8659    2.1026 H   0  0  0  0  0  0  0  0  0  0  0  0
   -8.4493   -3.3813    2.9777 H   0  0  0  0  0  0  0  0  0  0  0  0
   -5.5526   -3.2958    0.6929 H   0  0  0  0  0  0  0  0  0  0  0  0
   -7.0676   -2.4730    0.4137 H   0  0  0  0  0  0  0  0  0  0  0  0
   -8.2900   -4.5403    1.1124 H   0  0  0  0  0  0  0  0  0  0  0  0
   -6.7592   -5.2893    1.6211 H   0  0  0  0  0  0  0  0  0  0  0  0
   -7.0635   -4.9433   -0.0868 H   0  0  0  0  0  0  0  0  0  0  0  0
   -6.0945   -0.6204    2.5670 H   0  0  0  0  0  0  0  0  0  0  0  0
   -4.8431   -1.5839    1.8093 H   0  0  0  0  0  0  0  0  0  0  0  0
   -3.9107    0.3109    4.2002 H   0  0  0  0  0  0  0  0  0  0  0  0
   -3.9752   -2.7631    6.8106 H   0  0  0  0  0  0  0  0  0  0  0  0
   -5.0231   -3.7755    4.6827 H   0  0  0  0  0  0  0  0  0  0  0  0
  -10.6237   -2.7500    7.3944 H   0  0  0  0  0  0  0  0  0  0  0  0
   -7.2312   -3.3861    7.6345 H   0  0  0  0  0  0  0  0  0  0  0  0
  1  2  1  0
  2  3  1  0
  3  4  1  0
  4  5  1  0
  5  6  1  0
  6  7  1  0
  7  8  1  0
  8  9  1  0
  9 10  1  0
 10 11  1  0
 11 12  1  0
 12 13  1  0
 13 14  1  0
 12 15  1  0
 15 16  1  0
 16 17  1  0
 17 18  2  0
 18 19  1  0
 19 20  1  0
 10 21  1  0
 21 22  2  0
 22 23  1  0
 23 24  1  0
 24 25  2  0
 24 26  1  0
  6 27  1  0
 27 28  1  0
 27 29  1  0
 27 30  1  0
 22  8  1  0
 26  8  1  0
 20 16  2  0
  1 31  1  0
  1 32  1  0
  1 33  1  0
  2 34  1  0
  2 35  1  0
  3 36  1  0
  3 37  1  0
  4 38  1  0
  4 39  1  0
  5 40  1  0
  5 41  1  0
  6 42  1  0
  7 43  1  0
  7 44  1  0
  9 45  1  0
  9 46  1  0
 10 47  1  0
 11 48  1  0
 11 49  1  0
 13 50  1  0
 13 51  1  0
 14 52  1  0
 14 53  1  0
 14 54  1  0
 15 55  1  0
 15 56  1  0
 17 57  1  0
 19 58  1  0
 20 59  1  0
 23 60  1  0
 26 61  1  0
M  END
>  <Energy>  (44) 
54.269738078711995

>  <compound_id>  (44) 
391

>  <target_id>  (44) 
1

>  <reference_id>  (44) 
99

>  <inspiration_ids>  (44) 
[51, 99]

>  <energy_score>  (44) 
-37.14281084505512

>  <distance_score>  (44) 
2.2947834792868

>  <path>  (44) 
/opt/xchem-fragalysis-2/maxwin/BulkDock/SCRATCH/505733/C391-P99/C391-P99.minimised.mol

>  <scratch_subdir>  (44) 
/opt/xchem-fragalysis-2/maxwin/BulkDock/SCRATCH/505733/C391-P99

>  <fragmenstein_runtime>  (44) 
5.7183473110198975

>  <fragmenstein_outcome>  (44) 
too moved

>  <fragmenstein_mode>  (44) 
expansion

>  <fragmenstein_error>  (44) 


$$$$
C394-P51
     RDKit          3D

 53 57  0  0  0  0  0  0  0  0999 V2000
   -7.8031    1.2052    8.8576 N   0  0  0  0  0  0  0  0  0  0  0  0
   -9.1113    0.8961    9.1567 C   0  0  0  0  0  0  0  0  0  0  0  0
   -9.9099    1.7561    9.8436 C   0  0  0  0  0  0  0  0  0  0  0  0
  -11.2111    1.4710   10.2252 N   0  0  0  0  0  0  0  0  0  0  0  0
  -11.8225    0.3504    9.6772 C   0  0  0  0  0  0  0  0  0  0  0  0
  -12.9658    0.5002    8.8817 N   0  0  0  0  0  0  0  0  0  0  0  0
  -12.9929    1.6555    7.9661 C   0  0  0  0  0  0  0  0  0  0  0  0
  -12.0699    1.3962    6.7627 C   0  0  0  0  0  0  0  0  0  0  0  0
  -12.0947    0.0538    6.2661 O   0  0  0  0  0  0  0  0  0  0  0  0
  -13.2801   -0.6474    6.6463 C   0  0  0  0  0  0  0  0  0  0  0  0
  -13.5249   -0.6889    8.1729 C   0  0  0  0  0  0  0  0  0  0  0  0
  -11.0103   -0.7244    9.5044 C   0  0  0  0  0  0  0  0  0  0  0  0
   -9.7166   -0.4271    8.7894 C   0  0  0  0  0  0  0  0  0  0  0  0
   -9.2906   -1.3305    7.8618 C   0  0  0  0  0  0  0  0  0  0  0  0
   -9.9573   -2.5099    7.5929 N   0  0  0  0  0  0  0  0  0  0  0  0
   -9.4151   -3.2322    6.5581 C   0  0  0  0  0  0  0  0  0  0  0  0
   -9.6727   -4.3659    6.2084 O   0  0  0  0  0  0  0  0  0  0  0  0
   -8.4486   -2.4404    5.9936 N   0  0  0  0  0  0  0  0  0  0  0  0
   -8.1118   -1.3811    6.9180 C   0  0  0  0  0  0  0  0  0  0  0  0
   -6.8414   -1.8066    7.6642 C   0  0  0  0  0  0  0  0  0  0  0  0
   -5.7083   -1.2902    6.7883 C   0  0  0  0  0  0  0  0  0  0  0  0
   -4.3683   -1.1983    7.4813 C   0  0  0  0  0  0  0  0  0  0  0  0
   -3.9639   -2.4411    7.8372 F   0  0  0  0  0  0  0  0  0  0  0  0
   -4.3977   -0.1535    8.8602 Cl  0  0  0  0  0  0  0  0  0  0  0  0
   -6.3141   -0.0541    6.1642 C   0  0  0  0  0  0  0  0  0  0  0  0
   -5.7386    1.0294    5.5292 C   0  0  0  0  0  0  0  0  0  0  0  0
   -6.5477    1.9958    4.9265 C   0  0  0  0  0  0  0  0  0  0  0  0
   -7.9349    1.8482    4.9135 C   0  0  0  0  0  0  0  0  0  0  0  0
   -8.5190    0.7470    5.5244 C   0  0  0  0  0  0  0  0  0  0  0  0
   -7.7025   -0.1641    6.1766 C   0  0  0  0  0  0  0  0  0  0  0  0
   -7.1893    0.4636    9.1741 H   0  0  0  0  0  0  0  0  0  0  0  0
   -7.5278    2.0709    9.3194 H   0  0  0  0  0  0  0  0  0  0  0  0
   -9.5823    2.7404   10.1562 H   0  0  0  0  0  0  0  0  0  0  0  0
  -11.8255    2.2669   10.3373 H   0  0  0  0  0  0  0  0  0  0  0  0
  -14.0241    1.7892    7.6124 H   0  0  0  0  0  0  0  0  0  0  0  0
  -12.7347    2.6011    8.4550 H   0  0  0  0  0  0  0  0  0  0  0  0
  -11.0356    1.6374    7.0173 H   0  0  0  0  0  0  0  0  0  0  0  0
  -12.3497    2.0644    5.9407 H   0  0  0  0  0  0  0  0  0  0  0  0
  -13.2141   -1.6688    6.2569 H   0  0  0  0  0  0  0  0  0  0  0  0
  -14.1323   -0.1756    6.1412 H   0  0  0  0  0  0  0  0  0  0  0  0
  -13.1293   -1.6253    8.5770 H   0  0  0  0  0  0  0  0  0  0  0  0
  -14.6057   -0.7246    8.3542 H   0  0  0  0  0  0  0  0  0  0  0  0
  -10.6333   -1.1409   10.4477 H   0  0  0  0  0  0  0  0  0  0  0  0
  -10.7003   -2.8732    8.1753 H   0  0  0  0  0  0  0  0  0  0  0  0
   -7.8342   -2.8379    5.3019 H   0  0  0  0  0  0  0  0  0  0  0  0
   -6.7733   -2.8957    7.7423 H   0  0  0  0  0  0  0  0  0  0  0  0
   -6.8066   -1.4054    8.6779 H   0  0  0  0  0  0  0  0  0  0  0  0
   -5.6215   -2.0555    6.0104 H   0  0  0  0  0  0  0  0  0  0  0  0
   -3.6048   -0.8094    6.8200 H   0  0  0  0  0  0  0  0  0  0  0  0
   -4.6731    1.1196    5.4155 H   0  0  0  0  0  0  0  0  0  0  0  0
   -6.0965    2.8451    4.4193 H   0  0  0  0  0  0  0  0  0  0  0  0
   -8.5593    2.5823    4.4123 H   0  0  0  0  0  0  0  0  0  0  0  0
   -9.5938    0.6006    5.5005 H   0  0  0  0  0  0  0  0  0  0  0  0
  1  2  1  0
  2  3  2  0
  3  4  1  0
  4  5  1  0
  5  6  1  0
  6  7  1  0
  7  8  1  0
  8  9  1  0
  9 10  1  0
 10 11  1  0
  5 12  2  0
 12 13  1  0
 13 14  2  3
 14 15  1  0
 15 16  1  0
 16 17  2  0
 16 18  1  0
 18 19  1  0
 19 20  1  0
 20 21  1  0
 21 22  1  0
 22 23  1  0
 22 24  1  0
 21 25  1  0
 25 26  2  0
 26 27  1  0
 27 28  2  0
 28 29  1  0
 29 30  2  0
 13  2  1  0
 19 14  1  0
 30 25  1  0
 11  6  1  0
 30 19  1  0
  1 31  1  0
  1 32  1  0
  3 33  1  0
  4 34  1  0
  7 35  1  0
  7 36  1  0
  8 37  1  0
  8 38  1  0
 10 39  1  0
 10 40  1  0
 11 41  1  0
 11 42  1  0
 12 43  1  0
 15 44  1  0
 18 45  1  0
 20 46  1  0
 20 47  1  0
 21 48  1  0
 22 49  1  0
 26 50  1  0
 27 51  1  0
 28 52  1  0
 29 53  1  0
M  END
>  <Energy>  (45) 
111.99180579894961

>  <compound_id>  (45) 
394

>  <target_id>  (45) 
1

>  <reference_id>  (45) 
51

>  <inspiration_ids>  (45) 
[51, 143]

>  <energy_score>  (45) 
0.0538330163271894

>  <distance_score>  (45) 
1.6671776328602124

>  <path>  (45) 
/opt/xchem-fragalysis-2/maxwin/BulkDock/SCRATCH/505733/C394-P51/C394-P51.minimised.mol

>  <scratch_subdir>  (45) 
/opt/xchem-fragalysis-2/maxwin/BulkDock/SCRATCH/505733/C394-P51

>  <fragmenstein_runtime>  (45) 
6.429251194000244

>  <fragmenstein_outcome>  (45) 
too moved

>  <fragmenstein_mode>  (45) 
expansion

>  <fragmenstein_error>  (45) 


$$$$
C394-P143
     RDKit          3D

 53 57  0  0  0  0  0  0  0  0999 V2000
   -7.5680    1.0344    8.3622 N   0  0  0  0  0  0  0  0  0  0  0  0
   -8.8512    0.6923    8.7373 C   0  0  0  0  0  0  0  0  0  0  0  0
   -9.6020    1.4892    9.5382 C   0  0  0  0  0  0  0  0  0  0  0  0
  -10.8886    1.2143    9.9170 N   0  0  0  0  0  0  0  0  0  0  0  0
  -11.6188    0.2556    9.2544 C   0  0  0  0  0  0  0  0  0  0  0  0
  -12.9773    0.4764    8.9905 N   0  0  0  0  0  0  0  0  0  0  0  0
  -13.2835    1.8536    8.5227 C   0  0  0  0  0  0  0  0  0  0  0  0
  -12.7702    2.0029    7.0790 C   0  0  0  0  0  0  0  0  0  0  0  0
  -13.5023    1.1427    6.1978 O   0  0  0  0  0  0  0  0  0  0  0  0
  -13.4036   -0.2315    6.6008 C   0  0  0  0  0  0  0  0  0  0  0  0
  -13.7426   -0.4547    8.0985 C   0  0  0  0  0  0  0  0  0  0  0  0
  -10.9267   -0.7209    8.6282 C   0  0  0  0  0  0  0  0  0  0  0  0
   -9.4751   -0.5946    8.3253 C   0  0  0  0  0  0  0  0  0  0  0  0
   -8.9634   -1.5698    7.5241 C   0  0  0  0  0  0  0  0  0  0  0  0
   -9.5932   -2.7928    7.4090 N   0  0  0  0  0  0  0  0  0  0  0  0
   -9.0854   -3.5699    6.4067 C   0  0  0  0  0  0  0  0  0  0  0  0
   -9.3641   -4.7275    6.1753 O   0  0  0  0  0  0  0  0  0  0  0  0
   -8.1716   -2.7995    5.7229 N   0  0  0  0  0  0  0  0  0  0  0  0
   -7.7839   -1.6830    6.5655 C   0  0  0  0  0  0  0  0  0  0  0  0
   -6.4757   -2.0560    7.2556 C   0  0  0  0  0  0  0  0  0  0  0  0
   -5.3527   -1.5599    6.3396 C   0  0  0  0  0  0  0  0  0  0  0  0
   -4.0334   -1.4081    7.0691 C   0  0  0  0  0  0  0  0  0  0  0  0
   -3.5856   -2.6488    7.4019 F   0  0  0  0  0  0  0  0  0  0  0  0
   -4.1191   -0.4237    8.5117 Cl  0  0  0  0  0  0  0  0  0  0  0  0
   -6.0003   -0.3717    5.6855 C   0  0  0  0  0  0  0  0  0  0  0  0
   -5.4273    0.6926    5.0177 C   0  0  0  0  0  0  0  0  0  0  0  0
   -6.2644    1.6540    4.4455 C   0  0  0  0  0  0  0  0  0  0  0  0
   -7.6583    1.5113    4.4855 C   0  0  0  0  0  0  0  0  0  0  0  0
   -8.2357    0.4133    5.1152 C   0  0  0  0  0  0  0  0  0  0  0  0
   -7.3972   -0.4990    5.7412 C   0  0  0  0  0  0  0  0  0  0  0  0
   -7.3145    1.9211    8.7971 H   0  0  0  0  0  0  0  0  0  0  0  0
   -7.5362    1.1877    7.3589 H   0  0  0  0  0  0  0  0  0  0  0  0
   -9.2696    2.4460    9.9100 H   0  0  0  0  0  0  0  0  0  0  0  0
  -11.4105    1.9117   10.4272 H   0  0  0  0  0  0  0  0  0  0  0  0
  -14.3706    2.0028    8.5496 H   0  0  0  0  0  0  0  0  0  0  0  0
  -12.8534    2.6249    9.1690 H   0  0  0  0  0  0  0  0  0  0  0  0
  -11.6988    1.8006    6.9765 H   0  0  0  0  0  0  0  0  0  0  0  0
  -12.9430    3.0293    6.7397 H   0  0  0  0  0  0  0  0  0  0  0  0
  -12.4005   -0.5803    6.3405 H   0  0  0  0  0  0  0  0  0  0  0  0
  -14.1042   -0.8055    5.9850 H   0  0  0  0  0  0  0  0  0  0  0  0
  -13.5580   -1.4937    8.3723 H   0  0  0  0  0  0  0  0  0  0  0  0
  -14.8123   -0.2681    8.2557 H   0  0  0  0  0  0  0  0  0  0  0  0
  -11.4612   -1.4677    8.0637 H   0  0  0  0  0  0  0  0  0  0  0  0
  -10.2647   -3.1346    8.0917 H   0  0  0  0  0  0  0  0  0  0  0  0
   -7.5532   -3.2738    5.0839 H   0  0  0  0  0  0  0  0  0  0  0  0
   -6.3731   -3.1389    7.3715 H   0  0  0  0  0  0  0  0  0  0  0  0
   -6.4436   -1.5846    8.2416 H   0  0  0  0  0  0  0  0  0  0  0  0
   -5.2018   -2.3089    5.5482 H   0  0  0  0  0  0  0  0  0  0  0  0
   -3.2944   -0.9767    6.4016 H   0  0  0  0  0  0  0  0  0  0  0  0
   -4.3543    0.7813    4.9031 H   0  0  0  0  0  0  0  0  0  0  0  0
   -5.8304    2.5044    3.9231 H   0  0  0  0  0  0  0  0  0  0  0  0
   -8.2929    2.2546    4.0080 H   0  0  0  0  0  0  0  0  0  0  0  0
   -9.3162    0.2951    5.1486 H   0  0  0  0  0  0  0  0  0  0  0  0
  1  2  1  0
  2  3  2  0
  3  4  1  0
  4  5  1  0
  5  6  1  0
  6  7  1  0
  7  8  1  0
  8  9  1  0
  9 10  1  0
 10 11  1  0
  5 12  2  0
 12 13  1  0
 13 14  2  3
 14 15  1  0
 15 16  1  0
 16 17  2  0
 16 18  1  0
 18 19  1  0
 19 20  1  0
 20 21  1  0
 21 22  1  0
 22 23  1  0
 22 24  1  0
 21 25  1  0
 25 26  2  0
 26 27  1  0
 27 28  2  0
 28 29  1  0
 29 30  2  0
 13  2  1  0
 19 14  1  0
 30 25  1  0
 11  6  1  0
 30 19  1  0
  1 31  1  0
  1 32  1  0
  3 33  1  0
  4 34  1  0
  7 35  1  0
  7 36  1  0
  8 37  1  0
  8 38  1  0
 10 39  1  0
 10 40  1  0
 11 41  1  0
 11 42  1  0
 12 43  1  0
 15 44  1  0
 18 45  1  0
 20 46  1  0
 20 47  1  0
 21 48  1  0
 22 49  1  0
 26 50  1  0
 27 51  1  0
 28 52  1  0
 29 53  1  0
M  END
>  <Energy>  (46) 
71.117758229254804

>  <compound_id>  (46) 
394

>  <target_id>  (46) 
1

>  <reference_id>  (46) 
143

>  <inspiration_ids>  (46) 
[51, 143]

>  <energy_score>  (46) 
-40.82021455336775

>  <distance_score>  (46) 
1.9036818433707443

>  <path>  (46) 
/opt/xchem-fragalysis-2/maxwin/BulkDock/SCRATCH/505733/C394-P143/C394-P143.minimised.mol

>  <scratch_subdir>  (46) 
/opt/xchem-fragalysis-2/maxwin/BulkDock/SCRATCH/505733/C394-P143

>  <fragmenstein_runtime>  (46) 
6.611729860305786

>  <fragmenstein_outcome>  (46) 
too moved

>  <fragmenstein_mode>  (46) 
expansion

>  <fragmenstein_error>  (46) 


$$$$
C395-P51
     RDKit          3D

 38 42  0  0  0  0  0  0  0  0999 V2000
   -9.0697   -4.9260    6.6912 O   0  0  0  0  0  0  0  0  0  0  0  0
   -8.6886   -3.7928    6.9010 C   0  0  0  0  0  0  0  0  0  0  0  0
   -8.9713   -3.0446    7.9866 N   0  0  0  0  0  0  0  0  0  0  0  0
   -8.2355   -1.9099    7.9784 C   0  0  0  0  0  0  0  0  0  0  0  0
   -8.3143   -0.9859    8.7724 O   0  0  0  0  0  0  0  0  0  0  0  0
   -7.3152   -1.9523    6.7505 C   0  0  0  0  0  0  0  0  0  0  0  0
   -5.8331   -2.0877    7.0621 C   0  0  0  0  0  0  0  0  0  0  0  0
   -5.2922   -0.6682    7.2148 C   0  0  0  0  0  0  0  0  0  0  0  0
   -5.2353   -0.3464    8.5303 F   0  0  0  0  0  0  0  0  0  0  0  0
   -6.2806    0.1490    6.4288 C   0  0  0  0  0  0  0  0  0  0  0  0
   -6.3104    1.5166    6.2339 C   0  0  0  0  0  0  0  0  0  0  0  0
   -7.5042    2.1048    5.8086 C   0  0  0  0  0  0  0  0  0  0  0  0
   -8.6453    1.3263    5.5482 C   0  0  0  0  0  0  0  0  0  0  0  0
  -10.2238    2.1724    5.4650 S   0  0  0  0  0  0  0  0  0  0  0  0
  -11.3218    0.9291    5.9960 C   0  0  0  0  0  0  0  0  0  0  0  0
  -12.0715    0.3011    5.0659 C   0  0  0  0  0  0  0  0  0  0  0  0
  -12.9804   -0.7583    5.4616 C   0  0  0  0  0  0  0  0  0  0  0  0
  -13.1369   -1.1037    6.7517 C   0  0  0  0  0  0  0  0  0  0  0  0
  -12.3897   -0.4300    7.7526 C   0  0  0  0  0  0  0  0  0  0  0  0
  -12.3923   -0.5208    9.0648 N   0  0  0  0  0  0  0  0  0  0  0  0
  -11.4488    0.3534    9.5477 N   0  0  0  0  0  0  0  0  0  0  0  0
  -10.8939    0.9548    8.5161 C   0  0  0  0  0  0  0  0  0  0  0  0
  -11.4800    0.5441    7.3450 N   0  0  0  0  0  0  0  0  0  0  0  0
   -8.5450   -0.0631    5.5538 C   0  0  0  0  0  0  0  0  0  0  0  0
   -7.3886   -0.6263    6.0679 C   0  0  0  0  0  0  0  0  0  0  0  0
   -7.8404   -3.0951    6.0730 N   0  0  0  0  0  0  0  0  0  0  0  0
   -9.6817   -3.2606    8.6819 H   0  0  0  0  0  0  0  0  0  0  0  0
   -5.3298   -2.5981    6.2342 H   0  0  0  0  0  0  0  0  0  0  0  0
   -5.6321   -2.6763    7.9409 H   0  0  0  0  0  0  0  0  0  0  0  0
   -4.2781   -0.6019    6.8305 H   0  0  0  0  0  0  0  0  0  0  0  0
   -5.5051    2.1693    6.5288 H   0  0  0  0  0  0  0  0  0  0  0  0
   -7.5707    3.1916    5.7826 H   0  0  0  0  0  0  0  0  0  0  0  0
  -12.0124    0.5381    4.0075 H   0  0  0  0  0  0  0  0  0  0  0  0
  -13.5296   -1.2783    4.6825 H   0  0  0  0  0  0  0  0  0  0  0  0
  -13.8126   -1.8964    7.0537 H   0  0  0  0  0  0  0  0  0  0  0  0
  -10.0938    1.6786    8.5619 H   0  0  0  0  0  0  0  0  0  0  0  0
   -9.3993   -0.7064    5.3670 H   0  0  0  0  0  0  0  0  0  0  0  0
   -7.4267   -3.5726    5.2838 H   0  0  0  0  0  0  0  0  0  0  0  0
  1  2  2  0
  2  3  1  0
  3  4  1  0
  4  5  2  0
  4  6  1  0
  6  7  1  0
  7  8  1  0
  8  9  1  0
  8 10  1  0
 10 11  2  0
 11 12  1  0
 12 13  2  0
 13 14  1  0
 14 15  1  0
 15 16  2  0
 16 17  1  0
 17 18  2  0
 18 19  1  0
 19 20  2  0
 20 21  1  0
 21 22  2  0
 22 23  1  0
 13 24  1  0
 24 25  2  0
  6 26  1  0
 26  2  1  0
 25  6  1  0
 25 10  1  0
 23 15  1  0
 23 19  1  0
  3 27  1  0
  7 28  1  0
  7 29  1  0
  8 30  1  0
 11 31  1  0
 12 32  1  0
 16 33  1  0
 17 34  1  0
 18 35  1  0
 22 36  1  0
 24 37  1  0
 26 38  1  0
M  END
>  <Energy>  (47) 
1.9404424516430145

>  <compound_id>  (47) 
395

>  <target_id>  (47) 
1

>  <reference_id>  (47) 
51

>  <inspiration_ids>  (47) 
[51, 169]

>  <energy_score>  (47) 
-22.802449691344833

>  <distance_score>  (47) 
0.8669408222753207

>  <path>  (47) 
/opt/xchem-fragalysis-2/maxwin/BulkDock/SCRATCH/505733/C395-P51/C395-P51.minimised.mol

>  <scratch_subdir>  (47) 
/opt/xchem-fragalysis-2/maxwin/BulkDock/SCRATCH/505733/C395-P51

>  <fragmenstein_runtime>  (47) 
4.954218626022339

>  <fragmenstein_outcome>  (47) 
acceptable

>  <fragmenstein_mode>  (47) 
expansion

>  <fragmenstein_error>  (47) 


$$$$
C395-P169
     RDKit          3D

 38 42  0  0  0  0  0  0  0  0999 V2000
   -9.5399   -4.4262    6.1788 O   0  0  0  0  0  0  0  0  0  0  0  0
   -8.7817   -3.6252    6.6875 C   0  0  0  0  0  0  0  0  0  0  0  0
   -8.9334   -3.0604    7.9029 N   0  0  0  0  0  0  0  0  0  0  0  0
   -8.1808   -1.9403    7.9712 C   0  0  0  0  0  0  0  0  0  0  0  0
   -8.3048   -1.0356    8.7830 O   0  0  0  0  0  0  0  0  0  0  0  0
   -7.2111   -1.9359    6.7734 C   0  0  0  0  0  0  0  0  0  0  0  0
   -5.7521   -1.9562    7.2286 C   0  0  0  0  0  0  0  0  0  0  0  0
   -5.0097   -0.8434    6.4982 C   0  0  0  0  0  0  0  0  0  0  0  0
   -4.0808   -0.3174    7.3397 F   0  0  0  0  0  0  0  0  0  0  0  0
   -6.1262    0.0781    6.1331 C   0  0  0  0  0  0  0  0  0  0  0  0
   -6.1146    1.4466    5.9674 C   0  0  0  0  0  0  0  0  0  0  0  0
   -7.3363    2.1117    5.7924 C   0  0  0  0  0  0  0  0  0  0  0  0
   -8.5543    1.4035    5.7359 C   0  0  0  0  0  0  0  0  0  0  0  0
  -10.0933    2.3284    5.8344 S   0  0  0  0  0  0  0  0  0  0  0  0
  -11.2514    1.0733    6.1816 C   0  0  0  0  0  0  0  0  0  0  0  0
  -11.9573    0.5359    5.1630 C   0  0  0  0  0  0  0  0  0  0  0  0
  -12.8718   -0.5643    5.4172 C   0  0  0  0  0  0  0  0  0  0  0  0
  -13.0741   -1.0345    6.6611 C   0  0  0  0  0  0  0  0  0  0  0  0
  -12.3775   -0.4546    7.7532 C   0  0  0  0  0  0  0  0  0  0  0  0
  -12.4180   -0.6811    9.0480 N   0  0  0  0  0  0  0  0  0  0  0  0
  -11.5062    0.1517    9.6507 N   0  0  0  0  0  0  0  0  0  0  0  0
  -10.9278    0.8627    8.7061 C   0  0  0  0  0  0  0  0  0  0  0  0
  -11.4669    0.5636    7.4799 N   0  0  0  0  0  0  0  0  0  0  0  0
   -8.5279    0.0121    5.7766 C   0  0  0  0  0  0  0  0  0  0  0  0
   -7.3313   -0.6151    6.0778 C   0  0  0  0  0  0  0  0  0  0  0  0
   -7.6762   -3.0823    6.0617 N   0  0  0  0  0  0  0  0  0  0  0  0
   -9.7563   -3.1975    8.4877 H   0  0  0  0  0  0  0  0  0  0  0  0
   -5.2617   -2.9233    7.0783 H   0  0  0  0  0  0  0  0  0  0  0  0
   -5.6870   -1.6999    8.2896 H   0  0  0  0  0  0  0  0  0  0  0  0
   -4.5038   -1.2103    5.5989 H   0  0  0  0  0  0  0  0  0  0  0  0
   -5.2001    2.0088    6.0918 H   0  0  0  0  0  0  0  0  0  0  0  0
   -7.3419    3.2002    5.7702 H   0  0  0  0  0  0  0  0  0  0  0  0
  -11.8477    0.8708    4.1363 H   0  0  0  0  0  0  0  0  0  0  0  0
  -13.3864   -1.0223    4.5763 H   0  0  0  0  0  0  0  0  0  0  0  0
  -13.7486   -1.8627    6.8505 H   0  0  0  0  0  0  0  0  0  0  0  0
  -10.1414    1.5883    8.8533 H   0  0  0  0  0  0  0  0  0  0  0  0
   -9.4291   -0.5904    5.7681 H   0  0  0  0  0  0  0  0  0  0  0  0
   -7.5348   -3.2744    5.0799 H   0  0  0  0  0  0  0  0  0  0  0  0
  1  2  2  0
  2  3  1  0
  3  4  1  0
  4  5  2  0
  4  6  1  0
  6  7  1  0
  7  8  1  0
  8  9  1  0
  8 10  1  0
 10 11  2  0
 11 12  1  0
 12 13  2  0
 13 14  1  0
 14 15  1  0
 15 16  2  0
 16 17  1  0
 17 18  2  0
 18 19  1  0
 19 20  2  0
 20 21  1  0
 21 22  2  0
 22 23  1  0
 13 24  1  0
 24 25  2  0
  6 26  1  0
 26  2  1  0
 25  6  1  0
 25 10  1  0
 23 15  1  0
 23 19  1  0
  3 27  1  0
  7 28  1  0
  7 29  1  0
  8 30  1  0
 11 31  1  0
 12 32  1  0
 16 33  1  0
 17 34  1  0
 18 35  1  0
 22 36  1  0
 24 37  1  0
 26 38  1  0
M  END
>  <Energy>  (48) 
1.6416564977874493

>  <compound_id>  (48) 
395

>  <target_id>  (48) 
1

>  <reference_id>  (48) 
169

>  <inspiration_ids>  (48) 
[51, 169]

>  <energy_score>  (48) 
-23.10123564520063

>  <distance_score>  (48) 
0.7697860580393522

>  <path>  (48) 
/opt/xchem-fragalysis-2/maxwin/BulkDock/SCRATCH/505733/C395-P169/C395-P169.minimised.mol

>  <scratch_subdir>  (48) 
/opt/xchem-fragalysis-2/maxwin/BulkDock/SCRATCH/505733/C395-P169

>  <fragmenstein_runtime>  (48) 
5.032710552215576

>  <fragmenstein_outcome>  (48) 
acceptable

>  <fragmenstein_mode>  (48) 
expansion

>  <fragmenstein_error>  (48) 


$$$$
C396-P51
     RDKit          3D

 54 60  0  0  0  0  0  0  0  0999 V2000
   -9.8597   -4.7275    6.1327 O   0  0  0  0  0  0  0  0  0  0  0  0
   -9.2912   -3.7167    6.4850 C   0  0  0  0  0  0  0  0  0  0  0  0
   -8.9409   -3.4217    7.7649 N   0  0  0  0  0  0  0  0  0  0  0  0
   -8.6352   -2.0978    7.7903 C   0  0  0  0  0  0  0  0  0  0  0  0
   -8.7324   -1.3794    8.7612 O   0  0  0  0  0  0  0  0  0  0  0  0
   -8.1315   -1.7556    6.4223 C   0  0  0  0  0  0  0  0  0  0  0  0
   -6.6733   -2.3625    6.4466 C   0  0  0  0  0  0  0  0  0  0  0  0
   -5.8020   -1.2167    6.9528 C   0  0  0  0  0  0  0  0  0  0  0  0
   -6.4410   -0.1055    6.1828 C   0  0  0  0  0  0  0  0  0  0  0  0
   -5.8434    1.0241    5.6522 C   0  0  0  0  0  0  0  0  0  0  0  0
   -6.6121    1.9759    4.9955 C   0  0  0  0  0  0  0  0  0  0  0  0
   -7.9816    1.7827    4.8794 C   0  0  0  0  0  0  0  0  0  0  0  0
   -8.5716    0.6160    5.3701 C   0  0  0  0  0  0  0  0  0  0  0  0
   -7.8043   -0.3599    5.9849 C   0  0  0  0  0  0  0  0  0  0  0  0
   -9.0612   -2.5961    5.6842 N   0  0  0  0  0  0  0  0  0  0  0  0
  -10.2773   -2.1030    4.9721 C   0  0  0  0  0  0  0  0  0  0  0  0
  -11.3206   -1.2820    5.7666 C   0  0  0  0  0  0  0  0  0  0  0  0
  -11.6219   -1.5031    7.1192 C   0  0  0  0  0  0  0  0  0  0  0  0
  -12.2823   -0.5005    7.8328 C   0  0  0  0  0  0  0  0  0  0  0  0
  -12.4407   -0.2963    9.1798 N   0  0  0  0  0  0  0  0  0  0  0  0
  -12.6871    1.0444    9.3072 C   0  0  0  0  0  0  0  0  0  0  0  0
  -11.9000    1.9074   10.5758 S   0  0  0  0  0  0  0  0  0  0  0  0
  -10.4279    2.1286    9.6674 C   0  0  0  0  0  0  0  0  0  0  0  0
   -9.4693    1.1848    9.6673 C   0  0  0  0  0  0  0  0  0  0  0  0
   -8.2480    1.3900    8.9120 C   0  0  0  0  0  0  0  0  0  0  0  0
   -8.0446    2.5070    8.1985 C   0  0  0  0  0  0  0  0  0  0  0  0
   -9.0588    3.4916    8.1490 C   0  0  0  0  0  0  0  0  0  0  0  0
   -9.1382    4.6517    7.5319 N   0  0  0  0  0  0  0  0  0  0  0  0
  -10.3607    5.2064    7.8354 N   0  0  0  0  0  0  0  0  0  0  0  0
  -10.9932    4.3699    8.6289 C   0  0  0  0  0  0  0  0  0  0  0  0
  -10.2166    3.2693    8.8843 N   0  0  0  0  0  0  0  0  0  0  0  0
  -13.1431    1.5751    8.1972 N   0  0  0  0  0  0  0  0  0  0  0  0
  -12.7940    0.6467    7.2420 C   0  0  0  0  0  0  0  0  0  0  0  0
  -12.7508    0.7399    5.8434 C   0  0  0  0  0  0  0  0  0  0  0  0
  -11.9985   -0.2221    5.1375 C   0  0  0  0  0  0  0  0  0  0  0  0
  -11.8268   -0.0313    3.8198 F   0  0  0  0  0  0  0  0  0  0  0  0
   -9.4551   -3.8235    8.5386 H   0  0  0  0  0  0  0  0  0  0  0  0
   -6.5349   -3.2505    7.0734 H   0  0  0  0  0  0  0  0  0  0  0  0
   -6.3944   -2.6625    5.4308 H   0  0  0  0  0  0  0  0  0  0  0  0
   -4.7400   -1.3696    6.7792 H   0  0  0  0  0  0  0  0  0  0  0  0
   -5.9386   -1.0514    8.0275 H   0  0  0  0  0  0  0  0  0  0  0  0
   -4.7781    1.1383    5.6601 H   0  0  0  0  0  0  0  0  0  0  0  0
   -6.1524    2.8641    4.5703 H   0  0  0  0  0  0  0  0  0  0  0  0
   -8.5975    2.5341    4.3893 H   0  0  0  0  0  0  0  0  0  0  0  0
   -9.6311    0.5211    5.2279 H   0  0  0  0  0  0  0  0  0  0  0  0
  -10.7782   -2.9680    4.5364 H   0  0  0  0  0  0  0  0  0  0  0  0
   -9.9056   -1.5114    4.1283 H   0  0  0  0  0  0  0  0  0  0  0  0
  -11.2574   -2.3755    7.6246 H   0  0  0  0  0  0  0  0  0  0  0  0
  -11.9992   -0.8632    9.8862 H   0  0  0  0  0  0  0  0  0  0  0  0
   -9.5561    0.2631   10.2270 H   0  0  0  0  0  0  0  0  0  0  0  0
   -7.4698    0.6409    8.9954 H   0  0  0  0  0  0  0  0  0  0  0  0
   -7.1158    2.6947    7.6797 H   0  0  0  0  0  0  0  0  0  0  0  0
  -11.9871    4.5033    9.0299 H   0  0  0  0  0  0  0  0  0  0  0  0
  -13.1531    1.6046    5.3296 H   0  0  0  0  0  0  0  0  0  0  0  0
  1  2  2  0
  2  3  1  0
  3  4  1  0
  4  5  2  0
  4  6  1  0
  6  7  1  0
  7  8  1  0
  8  9  1  0
  9 10  2  0
 10 11  1  0
 11 12  2  0
 12 13  1  0
 13 14  2  0
  6 15  1  0
 15 16  1  0
 16 17  1  0
 17 18  2  0
 18 19  1  0
 19 20  1  0
 20 21  1  0
 21 22  1  0
 22 23  1  0
 23 24  2  0
 24 25  1  0
 25 26  2  0
 26 27  1  0
 27 28  2  0
 28 29  1  0
 29 30  2  0
 30 31  1  0
 21 32  2  0
 32 33  1  0
 33 34  1  0
 34 35  2  0
 35 36  1  0
 15  2  1  0
 35 17  1  0
 14  6  1  0
 33 19  2  0
 14  9  1  0
 31 23  1  0
 31 27  1  0
  3 37  1  0
  7 38  1  0
  7 39  1  0
  8 40  1  0
  8 41  1  0
 10 42  1  0
 11 43  1  0
 12 44  1  0
 13 45  1  0
 16 46  1  0
 16 47  1  0
 18 48  1  0
 20 49  1  0
 24 50  1  0
 25 51  1  0
 26 52  1  0
 30 53  1  0
 34 54  1  0
M  END
>  <Energy>  (49) 
36.558821074003163

>  <compound_id>  (49) 
396

>  <target_id>  (49) 
1

>  <reference_id>  (49) 
51

>  <inspiration_ids>  (49) 
[51, 179]

>  <energy_score>  (49) 
-3.402691192484866

>  <distance_score>  (49) 
1.734635101487942

>  <path>  (49) 
/opt/xchem-fragalysis-2/maxwin/BulkDock/SCRATCH/505733/C396-P51/C396-P51.minimised.mol

>  <scratch_subdir>  (49) 
/opt/xchem-fragalysis-2/maxwin/BulkDock/SCRATCH/505733/C396-P51

>  <fragmenstein_runtime>  (49) 
10.439131021499634

>  <fragmenstein_outcome>  (49) 
too moved

>  <fragmenstein_mode>  (49) 
expansion

>  <fragmenstein_error>  (49) 


$$$$
C396-P179
     RDKit          3D

 54 60  0  0  0  0  0  0  0  0999 V2000
  -10.2430   -4.5774    5.9106 O   0  0  0  0  0  0  0  0  0  0  0  0
   -9.4339   -3.7200    6.1902 C   0  0  0  0  0  0  0  0  0  0  0  0
   -8.8282   -3.5623    7.3942 N   0  0  0  0  0  0  0  0  0  0  0  0
   -8.2659   -2.3275    7.4031 C   0  0  0  0  0  0  0  0  0  0  0  0
   -7.9937   -1.6988    8.4035 O   0  0  0  0  0  0  0  0  0  0  0  0
   -7.9863   -1.9708    5.9694 C   0  0  0  0  0  0  0  0  0  0  0  0
   -6.6743   -2.7717    5.6250 C   0  0  0  0  0  0  0  0  0  0  0  0
   -5.5158   -1.8278    5.9301 C   0  0  0  0  0  0  0  0  0  0  0  0
   -6.1496   -0.5412    5.5173 C   0  0  0  0  0  0  0  0  0  0  0  0
   -5.4845    0.5809    5.0685 C   0  0  0  0  0  0  0  0  0  0  0  0
   -6.2264    1.6873    4.6685 C   0  0  0  0  0  0  0  0  0  0  0  0
   -7.6184    1.6596    4.7468 C   0  0  0  0  0  0  0  0  0  0  0  0
   -8.2787    0.5221    5.2165 C   0  0  0  0  0  0  0  0  0  0  0  0
   -7.5506   -0.5988    5.5739 C   0  0  0  0  0  0  0  0  0  0  0  0
   -9.1458   -2.6256    5.3847 N   0  0  0  0  0  0  0  0  0  0  0  0
  -10.3267   -1.9724    4.7694 C   0  0  0  0  0  0  0  0  0  0  0  0
  -11.2432   -1.1157    5.6612 C   0  0  0  0  0  0  0  0  0  0  0  0
  -11.4871   -1.3795    7.0198 C   0  0  0  0  0  0  0  0  0  0  0  0
  -12.1725   -0.4243    7.7739 C   0  0  0  0  0  0  0  0  0  0  0  0
  -12.3709   -0.3066    9.1257 N   0  0  0  0  0  0  0  0  0  0  0  0
  -12.5733    1.0320    9.3282 C   0  0  0  0  0  0  0  0  0  0  0  0
  -11.6466    1.7939   10.5703 S   0  0  0  0  0  0  0  0  0  0  0  0
  -10.2216    1.9412    9.5672 C   0  0  0  0  0  0  0  0  0  0  0  0
   -9.3226    0.9394    9.4664 C   0  0  0  0  0  0  0  0  0  0  0  0
   -8.1376    1.1236    8.6474 C   0  0  0  0  0  0  0  0  0  0  0  0
   -7.9329    2.2453    7.9411 C   0  0  0  0  0  0  0  0  0  0  0  0
   -8.9059    3.2698    7.9687 C   0  0  0  0  0  0  0  0  0  0  0  0
   -8.9812    4.4358    7.3630 N   0  0  0  0  0  0  0  0  0  0  0  0
  -10.1450    5.0454    7.7714 N   0  0  0  0  0  0  0  0  0  0  0  0
  -10.7470    4.2341    8.6135 C   0  0  0  0  0  0  0  0  0  0  0  0
  -10.0096    3.0914    8.7925 N   0  0  0  0  0  0  0  0  0  0  0  0
  -13.0300    1.6291    8.2520 N   0  0  0  0  0  0  0  0  0  0  0  0
  -12.6840    0.7539    7.2455 C   0  0  0  0  0  0  0  0  0  0  0  0
  -12.6294    0.9306    5.8561 C   0  0  0  0  0  0  0  0  0  0  0  0
  -11.9017   -0.0069    5.0964 C   0  0  0  0  0  0  0  0  0  0  0  0
  -11.7551    0.2321    3.7830 F   0  0  0  0  0  0  0  0  0  0  0  0
   -9.2273   -3.9474    8.2369 H   0  0  0  0  0  0  0  0  0  0  0  0
   -6.5511   -3.7187    6.1629 H   0  0  0  0  0  0  0  0  0  0  0  0
   -6.6721   -3.0213    4.5526 H   0  0  0  0  0  0  0  0  0  0  0  0
   -4.6323   -2.0775    5.3362 H   0  0  0  0  0  0  0  0  0  0  0  0
   -5.2644   -1.8109    6.9951 H   0  0  0  0  0  0  0  0  0  0  0  0
   -4.4080    0.5553    4.9734 H   0  0  0  0  0  0  0  0  0  0  0  0
   -5.7327    2.5718    4.2782 H   0  0  0  0  0  0  0  0  0  0  0  0
   -8.1962    2.5352    4.4554 H   0  0  0  0  0  0  0  0  0  0  0  0
   -9.3524    0.5664    5.2885 H   0  0  0  0  0  0  0  0  0  0  0  0
  -10.9563   -2.7586    4.3335 H   0  0  0  0  0  0  0  0  0  0  0  0
   -9.9445   -1.3777    3.9328 H   0  0  0  0  0  0  0  0  0  0  0  0
  -11.0996   -2.2620    7.4958 H   0  0  0  0  0  0  0  0  0  0  0  0
  -11.9421   -0.9191    9.7994 H   0  0  0  0  0  0  0  0  0  0  0  0
   -9.4095    0.0013   10.0015 H   0  0  0  0  0  0  0  0  0  0  0  0
   -7.3482    0.3840    8.6961 H   0  0  0  0  0  0  0  0  0  0  0  0
   -7.0128    2.4105    7.3963 H   0  0  0  0  0  0  0  0  0  0  0  0
  -11.6956    4.4129    9.0979 H   0  0  0  0  0  0  0  0  0  0  0  0
  -13.0263    1.8250    5.3916 H   0  0  0  0  0  0  0  0  0  0  0  0
  1  2  2  0
  2  3  1  0
  3  4  1  0
  4  5  2  0
  4  6  1  0
  6  7  1  0
  7  8  1  0
  8  9  1  0
  9 10  2  0
 10 11  1  0
 11 12  2  0
 12 13  1  0
 13 14  2  0
  6 15  1  0
 15 16  1  0
 16 17  1  0
 17 18  2  0
 18 19  1  0
 19 20  1  0
 20 21  1  0
 21 22  1  0
 22 23  1  0
 23 24  2  0
 24 25  1  0
 25 26  2  0
 26 27  1  0
 27 28  2  0
 28 29  1  0
 29 30  2  0
 30 31  1  0
 21 32  2  0
 32 33  1  0
 33 34  1  0
 34 35  2  0
 35 36  1  0
 15  2  1  0
 35 17  1  0
 14  6  1  0
 33 19  2  0
 14  9  1  0
 31 23  1  0
 31 27  1  0
  3 37  1  0
  7 38  1  0
  7 39  1  0
  8 40  1  0
  8 41  1  0
 10 42  1  0
 11 43  1  0
 12 44  1  0
 13 45  1  0
 16 46  1  0
 16 47  1  0
 18 48  1  0
 20 49  1  0
 24 50  1  0
 25 51  1  0
 26 52  1  0
 30 53  1  0
 34 54  1  0
M  END
>  <Energy>  (50) 
27.076327781460193

>  <compound_id>  (50) 
396

>  <target_id>  (50) 
1

>  <reference_id>  (50) 
179

>  <inspiration_ids>  (50) 
[51, 179]

>  <energy_score>  (50) 
-12.885184485028844

>  <distance_score>  (50) 
1.7471780195774442

>  <path>  (50) 
/opt/xchem-fragalysis-2/maxwin/BulkDock/SCRATCH/505733/C396-P179/C396-P179.minimised.mol

>  <scratch_subdir>  (50) 
/opt/xchem-fragalysis-2/maxwin/BulkDock/SCRATCH/505733/C396-P179

>  <fragmenstein_runtime>  (50) 
10.66545844078064

>  <fragmenstein_outcome>  (50) 
too moved

>  <fragmenstein_mode>  (50) 
expansion

>  <fragmenstein_error>  (50) 


$$$$
C397-P51
     RDKit          3D

 32 34  0  0  0  0  0  0  0  0999 V2000
   -9.6719    0.9974    5.5770 N   0  0  0  0  0  0  0  0  0  0  0  0
   -8.4748    0.7486    6.2571 C   0  0  0  0  0  0  0  0  0  0  0  0
   -7.6728    1.8221    6.6632 C   0  0  0  0  0  0  0  0  0  0  0  0
   -6.5075    1.6301    7.4039 C   0  0  0  0  0  0  0  0  0  0  0  0
   -6.1374    0.3558    7.8424 C   0  0  0  0  0  0  0  0  0  0  0  0
   -6.9616   -0.7262    7.5074 C   0  0  0  0  0  0  0  0  0  0  0  0
   -6.8917   -2.0334    7.9081 N   0  0  0  0  0  0  0  0  0  0  0  0
   -7.8798   -2.6413    7.2842 C   0  0  0  0  0  0  0  0  0  0  0  0
   -8.4248   -1.8220    6.3287 N   0  0  0  0  0  0  0  0  0  0  0  0
   -8.8050   -2.2754    5.0442 C   0  0  0  0  0  0  0  0  0  0  0  0
   -8.1713   -1.6841    3.9412 C   0  0  0  0  0  0  0  0  0  0  0  0
   -8.4288   -2.1231    2.6400 C   0  0  0  0  0  0  0  0  0  0  0  0
   -9.3273   -3.1653    2.4185 C   0  0  0  0  0  0  0  0  0  0  0  0
   -9.6096   -3.6620    1.0266 C   0  0  0  0  0  0  0  0  0  0  0  0
  -11.0094   -3.7151    0.7756 O   0  0  0  0  0  0  0  0  0  0  0  0
   -9.9443   -3.7607    3.5276 C   0  0  0  0  0  0  0  0  0  0  0  0
   -9.6877   -3.3217    4.8341 C   0  0  0  0  0  0  0  0  0  0  0  0
  -10.3953   -3.8620    5.8605 O   0  0  0  0  0  0  0  0  0  0  0  0
   -8.0455   -0.5269    6.6603 C   0  0  0  0  0  0  0  0  0  0  0  0
   -9.5661    1.6464    4.8040 H   0  0  0  0  0  0  0  0  0  0  0  0
  -10.1689    0.1531    5.3064 H   0  0  0  0  0  0  0  0  0  0  0  0
   -7.9679    2.8366    6.4025 H   0  0  0  0  0  0  0  0  0  0  0  0
   -5.9221    2.5003    7.6833 H   0  0  0  0  0  0  0  0  0  0  0  0
   -5.2620    0.1876    8.4587 H   0  0  0  0  0  0  0  0  0  0  0  0
   -8.1367   -3.6890    7.3708 H   0  0  0  0  0  0  0  0  0  0  0  0
   -7.4323   -0.8936    4.0697 H   0  0  0  0  0  0  0  0  0  0  0  0
   -7.9039   -1.6489    1.8125 H   0  0  0  0  0  0  0  0  0  0  0  0
   -9.1895   -4.6640    0.8923 H   0  0  0  0  0  0  0  0  0  0  0  0
   -9.1646   -3.0025    0.2747 H   0  0  0  0  0  0  0  0  0  0  0  0
  -11.4304   -3.0619    1.3620 H   0  0  0  0  0  0  0  0  0  0  0  0
  -10.6375   -4.5849    3.3649 H   0  0  0  0  0  0  0  0  0  0  0  0
  -11.1829   -4.2867    5.4529 H   0  0  0  0  0  0  0  0  0  0  0  0
  1  2  1  0
  2  3  2  0
  3  4  1  0
  4  5  2  0
  5  6  1  0
  6  7  1  0
  7  8  2  0
  8  9  1  0
  9 10  1  0
 10 11  2  0
 11 12  1  0
 12 13  2  0
 13 14  1  0
 14 15  1  0
 13 16  1  0
 16 17  2  0
 17 18  1  0
  9 19  1  0
 19  2  1  0
 19  6  2  0
 17 10  1  0
  1 20  1  0
  1 21  1  0
  3 22  1  0
  4 23  1  0
  5 24  1  0
  8 25  1  0
 11 26  1  0
 12 27  1  0
 14 28  1  0
 14 29  1  0
 15 30  1  0
 16 31  1  0
 18 32  1  0
M  END
>  <Energy>  (51) 
53.666108315481253

>  <compound_id>  (51) 
397

>  <target_id>  (51) 
1

>  <reference_id>  (51) 
51

>  <inspiration_ids>  (51) 
[51, 181]

>  <energy_score>  (51) 
-29.154838556692994

>  <distance_score>  (51) 
1.9274043990728122

>  <path>  (51) 
/opt/xchem-fragalysis-2/maxwin/BulkDock/SCRATCH/505733/C397-P51/C397-P51.minimised.mol

>  <scratch_subdir>  (51) 
/opt/xchem-fragalysis-2/maxwin/BulkDock/SCRATCH/505733/C397-P51

>  <fragmenstein_runtime>  (51) 
15.05077075958252

>  <fragmenstein_outcome>  (51) 
too moved

>  <fragmenstein_mode>  (51) 
expansion

>  <fragmenstein_error>  (51) 


$$$$
C397-P181
     RDKit          3D

 32 34  0  0  0  0  0  0  0  0999 V2000
   -9.8138    1.1950    6.0865 N   0  0  0  0  0  0  0  0  0  0  0  0
   -8.4678    1.0637    6.4266 C   0  0  0  0  0  0  0  0  0  0  0  0
   -7.6420    2.1968    6.4956 C   0  0  0  0  0  0  0  0  0  0  0  0
   -6.2991    2.1207    6.8807 C   0  0  0  0  0  0  0  0  0  0  0  0
   -5.7524    0.9202    7.3331 C   0  0  0  0  0  0  0  0  0  0  0  0
   -6.5916   -0.1939    7.3940 C   0  0  0  0  0  0  0  0  0  0  0  0
   -6.3974   -1.4078    7.9966 N   0  0  0  0  0  0  0  0  0  0  0  0
   -7.4801   -2.0870    7.6813 C   0  0  0  0  0  0  0  0  0  0  0  0
   -8.0885   -1.4999    6.6047 N   0  0  0  0  0  0  0  0  0  0  0  0
   -8.1300   -2.1188    5.3116 C   0  0  0  0  0  0  0  0  0  0  0  0
   -8.4456   -1.3381    4.1952 C   0  0  0  0  0  0  0  0  0  0  0  0
   -8.0696   -1.7264    2.9047 C   0  0  0  0  0  0  0  0  0  0  0  0
   -7.3250   -2.8862    2.7090 C   0  0  0  0  0  0  0  0  0  0  0  0
   -6.8929   -3.3161    1.3374 C   0  0  0  0  0  0  0  0  0  0  0  0
   -6.9570   -4.7411    1.2396 O   0  0  0  0  0  0  0  0  0  0  0  0
   -6.9912   -3.6438    3.8291 C   0  0  0  0  0  0  0  0  0  0  0  0
   -7.5017   -3.3462    5.0950 C   0  0  0  0  0  0  0  0  0  0  0  0
   -7.3053   -4.2690    6.0800 O   0  0  0  0  0  0  0  0  0  0  0  0
   -7.8625   -0.1380    6.8154 C   0  0  0  0  0  0  0  0  0  0  0  0
  -10.0016    1.8067    5.3001 H   0  0  0  0  0  0  0  0  0  0  0  0
  -10.3505    0.3344    6.0816 H   0  0  0  0  0  0  0  0  0  0  0  0
   -8.0530    3.1702    6.2344 H   0  0  0  0  0  0  0  0  0  0  0  0
   -5.6903    3.0218    6.8942 H   0  0  0  0  0  0  0  0  0  0  0  0
   -4.7334    0.8594    7.6985 H   0  0  0  0  0  0  0  0  0  0  0  0
   -7.7669   -3.0634    8.0402 H   0  0  0  0  0  0  0  0  0  0  0  0
   -8.9379   -0.3771    4.2834 H   0  0  0  0  0  0  0  0  0  0  0  0
   -8.3452   -1.1002    2.0587 H   0  0  0  0  0  0  0  0  0  0  0  0
   -7.5528   -2.8961    0.5712 H   0  0  0  0  0  0  0  0  0  0  0  0
   -5.8643   -2.9937    1.1481 H   0  0  0  0  0  0  0  0  0  0  0  0
   -6.8044   -4.9454    0.3011 H   0  0  0  0  0  0  0  0  0  0  0  0
   -6.3353   -4.5029    3.7021 H   0  0  0  0  0  0  0  0  0  0  0  0
   -7.2769   -5.1450    5.6388 H   0  0  0  0  0  0  0  0  0  0  0  0
  1  2  1  0
  2  3  2  0
  3  4  1  0
  4  5  2  0
  5  6  1  0
  6  7  1  0
  7  8  2  0
  8  9  1  0
  9 10  1  0
 10 11  2  0
 11 12  1  0
 12 13  2  0
 13 14  1  0
 14 15  1  0
 13 16  1  0
 16 17  2  0
 17 18  1  0
  9 19  1  0
 19  2  1  0
 19  6  2  0
 17 10  1  0
  1 20  1  0
  1 21  1  0
  3 22  1  0
  4 23  1  0
  5 24  1  0
  8 25  1  0
 11 26  1  0
 12 27  1  0
 14 28  1  0
 14 29  1  0
 15 30  1  0
 16 31  1  0
 18 32  1  0
M  END
>  <Energy>  (52) 
78.953307439488327

>  <compound_id>  (52) 
397

>  <target_id>  (52) 
1

>  <reference_id>  (52) 
181

>  <inspiration_ids>  (52) 
[51, 181]

>  <energy_score>  (52) 
-3.8676394326863033

>  <distance_score>  (52) 
1.9455718303035798

>  <path>  (52) 
/opt/xchem-fragalysis-2/maxwin/BulkDock/SCRATCH/505733/C397-P181/C397-P181.minimised.mol

>  <scratch_subdir>  (52) 
/opt/xchem-fragalysis-2/maxwin/BulkDock/SCRATCH/505733/C397-P181

>  <fragmenstein_runtime>  (52) 
15.635205745697021

>  <fragmenstein_outcome>  (52) 
too moved

>  <fragmenstein_mode>  (52) 
expansion

>  <fragmenstein_error>  (52) 


$$$$
C399-P52
     RDKit          3D

 61 63  0  0  0  0  0  0  0  0999 V2000
   -9.6855  -26.1511   33.6677 C   0  0  0  0  0  0  0  0  0  0  0  0
   -9.8867  -24.7536   33.1431 C   0  0  0  0  0  0  0  0  0  0  0  0
   -9.7384  -24.7267   31.6409 C   0  0  0  0  0  0  0  0  0  0  0  0
  -10.9566  -24.6765   30.7273 C   0  0  0  0  0  0  0  0  0  0  0  0
  -11.4732  -25.8859   29.9141 C   0  0  0  0  0  0  0  0  0  0  0  0
  -11.9516  -27.0351   30.7817 C   0  0  0  0  0  0  0  0  0  0  0  0
  -13.3481  -26.8875   30.9603 O   0  0  0  0  0  0  0  0  0  0  0  0
  -13.7959  -26.4316   29.6957 C   0  0  0  0  0  0  0  0  0  0  0  0
  -12.7710  -25.3807   29.1795 C   0  0  0  0  0  0  0  0  0  0  0  0
  -12.8452  -25.4668   27.6259 C   0  0  0  0  0  0  0  0  0  0  0  0
  -14.2541  -25.8231   27.0418 C   0  0  0  0  0  0  0  0  0  0  0  0
  -14.6725  -24.7642   26.0674 C   0  0  0  0  0  0  0  0  0  0  0  0
  -13.3718  -24.2389   25.5190 C   0  0  0  0  0  0  0  0  0  0  0  0
  -13.5518  -22.9661   24.7129 C   0  0  0  0  0  0  0  0  0  0  0  0
  -12.3483  -22.2969   24.4251 O   0  0  0  0  0  0  0  0  0  0  0  0
  -12.2236  -24.4396   26.5800 C   0  0  0  0  0  0  0  0  0  0  0  0
  -11.2041  -25.3585   25.8770 C   0  0  0  0  0  0  0  0  0  0  0  0
  -11.2590  -23.2482   26.9428 C   0  0  0  0  0  0  0  0  0  0  0  0
  -11.8078  -21.8743   27.2852 C   0  0  0  0  0  0  0  0  0  0  0  0
  -10.3128  -23.7619   27.8811 O   0  0  0  0  0  0  0  0  0  0  0  0
   -9.5328  -22.8056   28.5562 C   0  0  0  0  0  0  0  0  0  0  0  0
  -12.8404  -23.9428   29.7093 C   0  0  0  0  0  0  0  0  0  0  0  0
  -12.1455  -23.9070   31.0043 N   0  0  0  0  0  0  0  0  0  0  0  0
  -11.9646  -22.5496   31.4992 C   0  0  0  0  0  0  0  0  0  0  0  0
  -10.4640  -26.8268   33.3384 H   0  0  0  0  0  0  0  0  0  0  0  0
   -9.6729  -26.1443   34.7546 H   0  0  0  0  0  0  0  0  0  0  0  0
   -8.7452  -26.5770   33.3191 H   0  0  0  0  0  0  0  0  0  0  0  0
  -10.8170  -24.3144   33.4933 H   0  0  0  0  0  0  0  0  0  0  0  0
   -9.1076  -24.1149   33.5758 H   0  0  0  0  0  0  0  0  0  0  0  0
   -9.0982  -25.5422   31.3019 H   0  0  0  0  0  0  0  0  0  0  0  0
   -9.1561  -23.8139   31.4454 H   0  0  0  0  0  0  0  0  0  0  0  0
  -10.4933  -24.1266   29.9496 H   0  0  0  0  0  0  0  0  0  0  0  0
  -10.7075  -26.2102   29.2070 H   0  0  0  0  0  0  0  0  0  0  0  0
  -11.8036  -27.9900   30.2644 H   0  0  0  0  0  0  0  0  0  0  0  0
  -11.4984  -27.0854   31.7595 H   0  0  0  0  0  0  0  0  0  0  0  0
  -13.8270  -27.3265   29.0587 H   0  0  0  0  0  0  0  0  0  0  0  0
  -14.8211  -26.0650   29.7771 H   0  0  0  0  0  0  0  0  0  0  0  0
  -12.3208  -26.4267   27.4845 H   0  0  0  0  0  0  0  0  0  0  0  0
  -14.1702  -26.7792   26.5053 H   0  0  0  0  0  0  0  0  0  0  0  0
  -15.0619  -25.9581   27.7581 H   0  0  0  0  0  0  0  0  0  0  0  0
  -15.2977  -24.0092   26.5129 H   0  0  0  0  0  0  0  0  0  0  0  0
  -15.2951  -25.2059   25.2788 H   0  0  0  0  0  0  0  0  0  0  0  0
  -13.2404  -25.0158   24.7676 H   0  0  0  0  0  0  0  0  0  0  0  0
  -14.2989  -22.3292   25.1634 H   0  0  0  0  0  0  0  0  0  0  0  0
  -13.9623  -23.2009   23.7432 H   0  0  0  0  0  0  0  0  0  0  0  0
  -12.5782  -21.3531   24.3107 H   0  0  0  0  0  0  0  0  0  0  0  0
  -11.7458  -26.1290   25.3327 H   0  0  0  0  0  0  0  0  0  0  0  0
  -10.5949  -24.8046   25.1721 H   0  0  0  0  0  0  0  0  0  0  0  0
  -10.5177  -25.8340   26.5865 H   0  0  0  0  0  0  0  0  0  0  0  0
  -10.6514  -23.0460   26.0577 H   0  0  0  0  0  0  0  0  0  0  0  0
  -12.0918  -21.3619   26.3845 H   0  0  0  0  0  0  0  0  0  0  0  0
  -12.6423  -21.8885   27.9674 H   0  0  0  0  0  0  0  0  0  0  0  0
  -11.0795  -21.1910   27.7197 H   0  0  0  0  0  0  0  0  0  0  0  0
   -8.8880  -22.2466   27.9055 H   0  0  0  0  0  0  0  0  0  0  0  0
   -8.8797  -23.3296   29.2563 H   0  0  0  0  0  0  0  0  0  0  0  0
  -10.1611  -22.1369   29.1361 H   0  0  0  0  0  0  0  0  0  0  0  0
  -13.8255  -23.5022   29.6921 H   0  0  0  0  0  0  0  0  0  0  0  0
  -12.2704  -23.3023   29.0773 H   0  0  0  0  0  0  0  0  0  0  0  0
  -12.9363  -22.0557   31.6125 H   0  0  0  0  0  0  0  0  0  0  0  0
  -11.5000  -22.5361   32.4876 H   0  0  0  0  0  0  0  0  0  0  0  0
  -11.3605  -21.9261   30.8375 H   0  0  0  0  0  0  0  0  0  0  0  0
  1  2  1  0
  2  3  1  0
  3  4  1  0
  4  5  1  0
  5  6  1  0
  6  7  1  0
  7  8  1  0
  8  9  1  0
  9 10  1  0
 10 11  1  0
 11 12  1  0
 12 13  1  0
 13 14  1  0
 14 15  1  0
 13 16  1  0
 16 17  1  0
 16 18  1  0
 18 19  1  0
 18 20  1  0
 20 21  1  0
  9 22  1  0
 22 23  1  0
 23 24  1  0
 23  4  1  0
  9  5  1  0
 16 10  1  0
  1 25  1  0
  1 26  1  0
  1 27  1  0
  2 28  1  0
  2 29  1  0
  3 30  1  0
  3 31  1  0
  4 32  1  0
  5 33  1  0
  6 34  1  0
  6 35  1  0
  8 36  1  0
  8 37  1  0
 10 38  1  0
 11 39  1  0
 11 40  1  0
 12 41  1  0
 12 42  1  0
 13 43  1  0
 14 44  1  0
 14 45  1  0
 15 46  1  0
 17 47  1  0
 17 48  1  0
 17 49  1  0
 18 50  1  0
 19 51  1  0
 19 52  1  0
 19 53  1  0
 21 54  1  0
 21 55  1  0
 21 56  1  0
 22 57  1  0
 22 58  1  0
 24 59  1  0
 24 60  1  0
 24 61  1  0
M  END
>  <Energy>  (53) 
188.7361103927725

>  <compound_id>  (53) 
399

>  <target_id>  (53) 
1

>  <reference_id>  (53) 
52

>  <inspiration_ids>  (53) 
[52, 3]

>  <energy_score>  (53) 
-5.404945680267247

>  <distance_score>  (53) 
3.4392064184663016

>  <path>  (53) 
/opt/xchem-fragalysis-2/maxwin/BulkDock/SCRATCH/505733/C399-P52/C399-P52.minimised.mol

>  <scratch_subdir>  (53) 
/opt/xchem-fragalysis-2/maxwin/BulkDock/SCRATCH/505733/C399-P52

>  <fragmenstein_runtime>  (53) 
240.56145215034485

>  <fragmenstein_outcome>  (53) 
too moved

>  <fragmenstein_mode>  (53) 
expansion

>  <fragmenstein_error>  (53) 


$$$$
C399-P3
     RDKit          3D

 61 63  0  0  0  0  0  0  0  0999 V2000
   -8.6995  -22.5848   32.7947 C   0  0  0  0  0  0  0  0  0  0  0  0
   -9.4316  -22.6460   31.4790 C   0  0  0  0  0  0  0  0  0  0  0  0
   -9.7872  -24.0685   31.0305 C   0  0  0  0  0  0  0  0  0  0  0  0
  -11.0779  -24.1028   30.2057 C   0  0  0  0  0  0  0  0  0  0  0  0
  -11.7368  -25.4875   29.8173 C   0  0  0  0  0  0  0  0  0  0  0  0
  -12.2241  -26.2059   31.0506 C   0  0  0  0  0  0  0  0  0  0  0  0
  -13.3402  -25.4145   31.4520 O   0  0  0  0  0  0  0  0  0  0  0  0
  -14.0560  -25.1346   30.2496 C   0  0  0  0  0  0  0  0  0  0  0  0
  -13.0362  -25.0580   29.0630 C   0  0  0  0  0  0  0  0  0  0  0  0
  -13.8856  -25.7904   27.9908 C   0  0  0  0  0  0  0  0  0  0  0  0
  -15.2752  -25.0710   27.7510 C   0  0  0  0  0  0  0  0  0  0  0  0
  -15.5742  -25.0659   26.2594 C   0  0  0  0  0  0  0  0  0  0  0  0
  -14.1926  -25.1154   25.6224 C   0  0  0  0  0  0  0  0  0  0  0  0
  -13.6385  -23.6796   25.3976 C   0  0  0  0  0  0  0  0  0  0  0  0
  -14.2590  -22.6813   26.1875 O   0  0  0  0  0  0  0  0  0  0  0  0
  -13.4319  -26.1434   26.5517 C   0  0  0  0  0  0  0  0  0  0  0  0
  -11.9169  -26.1908   26.3518 C   0  0  0  0  0  0  0  0  0  0  0  0
  -14.0347  -27.6225   26.4007 C   0  0  0  0  0  0  0  0  0  0  0  0
  -14.0690  -28.2389   25.0041 C   0  0  0  0  0  0  0  0  0  0  0  0
  -13.3154  -28.4527   27.3359 O   0  0  0  0  0  0  0  0  0  0  0  0
  -13.9956  -29.6517   27.6936 C   0  0  0  0  0  0  0  0  0  0  0  0
  -12.5155  -23.7599   28.4411 C   0  0  0  0  0  0  0  0  0  0  0  0
  -11.2053  -23.3878   28.9538 N   0  0  0  0  0  0  0  0  0  0  0  0
  -11.0201  -21.9466   28.9286 C   0  0  0  0  0  0  0  0  0  0  0  0
   -7.7777  -23.1644   32.7433 H   0  0  0  0  0  0  0  0  0  0  0  0
   -9.3370  -22.9550   33.6012 H   0  0  0  0  0  0  0  0  0  0  0  0
   -8.4359  -21.5496   33.0310 H   0  0  0  0  0  0  0  0  0  0  0  0
  -10.3240  -22.0202   31.5813 H   0  0  0  0  0  0  0  0  0  0  0  0
   -8.7874  -22.2007   30.7211 H   0  0  0  0  0  0  0  0  0  0  0  0
   -9.9251  -24.6855   31.9238 H   0  0  0  0  0  0  0  0  0  0  0  0
   -8.9400  -24.4797   30.4901 H   0  0  0  0  0  0  0  0  0  0  0  0
  -11.7162  -23.5715   30.8717 H   0  0  0  0  0  0  0  0  0  0  0  0
  -11.0654  -26.0959   29.2098 H   0  0  0  0  0  0  0  0  0  0  0  0
  -12.5630  -27.2237   30.8270 H   0  0  0  0  0  0  0  0  0  0  0  0
  -11.5182  -26.2394   31.8776 H   0  0  0  0  0  0  0  0  0  0  0  0
  -14.7459  -25.9866   30.1868 H   0  0  0  0  0  0  0  0  0  0  0  0
  -14.7256  -24.2791   30.3273 H   0  0  0  0  0  0  0  0  0  0  0  0
  -14.1346  -26.7342   28.4899 H   0  0  0  0  0  0  0  0  0  0  0  0
  -16.0798  -25.5878   28.2874 H   0  0  0  0  0  0  0  0  0  0  0  0
  -15.2679  -24.0400   28.1152 H   0  0  0  0  0  0  0  0  0  0  0  0
  -16.1757  -24.2018   25.9592 H   0  0  0  0  0  0  0  0  0  0  0  0
  -16.1651  -25.9459   25.9828 H   0  0  0  0  0  0  0  0  0  0  0  0
  -14.2652  -25.5550   24.6260 H   0  0  0  0  0  0  0  0  0  0  0  0
  -13.8183  -23.3773   24.3663 H   0  0  0  0  0  0  0  0  0  0  0  0
  -12.5627  -23.5935   25.5328 H   0  0  0  0  0  0  0  0  0  0  0  0
  -13.8841  -21.8287   25.8964 H   0  0  0  0  0  0  0  0  0  0  0  0
  -11.6700  -26.6088   25.3795 H   0  0  0  0  0  0  0  0  0  0  0  0
  -11.4142  -25.2269   26.3677 H   0  0  0  0  0  0  0  0  0  0  0  0
  -11.4306  -26.8045   27.1143 H   0  0  0  0  0  0  0  0  0  0  0  0
  -15.0810  -27.6154   26.7325 H   0  0  0  0  0  0  0  0  0  0  0  0
  -14.6253  -27.6209   24.2956 H   0  0  0  0  0  0  0  0  0  0  0  0
  -13.0748  -28.4363   24.6086 H   0  0  0  0  0  0  0  0  0  0  0  0
  -14.5755  -29.2097   25.0245 H   0  0  0  0  0  0  0  0  0  0  0  0
  -14.0570  -30.3380   26.8457 H   0  0  0  0  0  0  0  0  0  0  0  0
  -14.9950  -29.4306   28.0798 H   0  0  0  0  0  0  0  0  0  0  0  0
  -13.4215  -30.1412   28.4853 H   0  0  0  0  0  0  0  0  0  0  0  0
  -13.2386  -22.9783   28.4251 H   0  0  0  0  0  0  0  0  0  0  0  0
  -12.2953  -23.9052   27.4038 H   0  0  0  0  0  0  0  0  0  0  0  0
  -11.3170  -21.5375   27.9548 H   0  0  0  0  0  0  0  0  0  0  0  0
  -11.6017  -21.4303   29.6979 H   0  0  0  0  0  0  0  0  0  0  0  0
   -9.9690  -21.6827   29.0352 H   0  0  0  0  0  0  0  0  0  0  0  0
  1  2  1  0
  2  3  1  0
  3  4  1  0
  4  5  1  0
  5  6  1  0
  6  7  1  0
  7  8  1  0
  8  9  1  0
  9 10  1  0
 10 11  1  0
 11 12  1  0
 12 13  1  0
 13 14  1  0
 14 15  1  0
 13 16  1  0
 16 17  1  0
 16 18  1  0
 18 19  1  0
 18 20  1  0
 20 21  1  0
  9 22  1  0
 22 23  1  0
 23 24  1  0
 23  4  1  0
  9  5  1  0
 16 10  1  0
  1 25  1  0
  1 26  1  0
  1 27  1  0
  2 28  1  0
  2 29  1  0
  3 30  1  0
  3 31  1  0
  4 32  1  0
  5 33  1  0
  6 34  1  0
  6 35  1  0
  8 36  1  0
  8 37  1  0
 10 38  1  0
 11 39  1  0
 11 40  1  0
 12 41  1  0
 12 42  1  0
 13 43  1  0
 14 44  1  0
 14 45  1  0
 15 46  1  0
 17 47  1  0
 17 48  1  0
 17 49  1  0
 18 50  1  0
 19 51  1  0
 19 52  1  0
 19 53  1  0
 21 54  1  0
 21 55  1  0
 21 56  1  0
 22 57  1  0
 22 58  1  0
 24 59  1  0
 24 60  1  0
 24 61  1  0
M  END
>  <Energy>  (54) 
148.75589314570041

>  <compound_id>  (54) 
399

>  <target_id>  (54) 
1

>  <reference_id>  (54) 
3

>  <inspiration_ids>  (54) 
[52, 3]

>  <energy_score>  (54) 
-45.38516292733959

>  <distance_score>  (54) 
4.647333547725466

>  <path>  (54) 
/opt/xchem-fragalysis-2/maxwin/BulkDock/SCRATCH/505733/C399-P3/C399-P3.minimised.mol

>  <scratch_subdir>  (54) 
/opt/xchem-fragalysis-2/maxwin/BulkDock/SCRATCH/505733/C399-P3

>  <fragmenstein_runtime>  (54) 
239.4175956249237

>  <fragmenstein_outcome>  (54) 
too moved

>  <fragmenstein_mode>  (54) 
expansion

>  <fragmenstein_error>  (54) 


$$$$
C402-P52
     RDKit          3D

 40 44  0  0  0  0  0  0  0  0999 V2000
  -12.3549  -28.8592   32.2069 C   0  0  0  0  0  0  0  0  0  0  0  0
  -11.9062  -27.4811   32.1257 N   0  0  0  0  0  0  0  0  0  0  0  0
  -11.9576  -26.7326   30.9453 C   0  0  0  0  0  0  0  0  0  0  0  0
  -12.7665  -27.1360   29.8900 C   0  0  0  0  0  0  0  0  0  0  0  0
  -12.7828  -26.3945   28.7228 C   0  0  0  0  0  0  0  0  0  0  0  0
  -12.1489  -25.1398   28.6475 C   0  0  0  0  0  0  0  0  0  0  0  0
  -11.8294  -24.5517   27.4148 C   0  0  0  0  0  0  0  0  0  0  0  0
  -11.2829  -25.4970   26.3996 C   0  0  0  0  0  0  0  0  0  0  0  0
  -10.2268  -26.2077   27.0577 O   0  0  0  0  0  0  0  0  0  0  0  0
  -11.5050  -23.2094   27.2803 C   0  0  0  0  0  0  0  0  0  0  0  0
  -11.3580  -22.4698   28.4269 C   0  0  0  0  0  0  0  0  0  0  0  0
  -11.3656  -23.1354   29.6646 C   0  0  0  0  0  0  0  0  0  0  0  0
  -11.6014  -24.5465   29.7742 C   0  0  0  0  0  0  0  0  0  0  0  0
  -11.3196  -25.4540   30.8476 C   0  0  0  0  0  0  0  0  0  0  0  0
   -9.7722  -25.1197   31.7772 S   0  0  0  0  0  0  0  0  0  0  0  0
   -9.6296  -26.2170   32.7942 O   0  0  0  0  0  0  0  0  0  0  0  0
  -10.4269  -23.7739   32.6930 C   0  0  0  0  0  0  0  0  0  0  0  0
  -10.2654  -23.7831   34.0653 C   0  0  0  0  0  0  0  0  0  0  0  0
  -10.8931  -22.8286   34.8164 C   0  0  0  0  0  0  0  0  0  0  0  0
  -11.5716  -21.7588   34.2449 C   0  0  0  0  0  0  0  0  0  0  0  0
  -11.5981  -21.6571   32.8676 C   0  0  0  0  0  0  0  0  0  0  0  0
  -12.0476  -20.6364   32.0909 N   0  0  0  0  0  0  0  0  0  0  0  0
  -11.8423  -21.0498   30.8712 C   0  0  0  0  0  0  0  0  0  0  0  0
  -11.3867  -22.3407   30.8279 N   0  0  0  0  0  0  0  0  0  0  0  0
  -11.0841  -22.6943   32.1127 C   0  0  0  0  0  0  0  0  0  0  0  0
  -13.4440  -28.9198   32.1157 H   0  0  0  0  0  0  0  0  0  0  0  0
  -11.8926  -29.4826   31.4374 H   0  0  0  0  0  0  0  0  0  0  0  0
  -12.0846  -29.2730   33.1831 H   0  0  0  0  0  0  0  0  0  0  0  0
  -11.0325  -27.3025   32.6472 H   0  0  0  0  0  0  0  0  0  0  0  0
  -13.3098  -28.0751   29.9148 H   0  0  0  0  0  0  0  0  0  0  0  0
  -13.2820  -26.8157   27.8522 H   0  0  0  0  0  0  0  0  0  0  0  0
  -12.0430  -26.1894   26.0287 H   0  0  0  0  0  0  0  0  0  0  0  0
  -10.8571  -24.9689   25.5454 H   0  0  0  0  0  0  0  0  0  0  0  0
   -9.8465  -25.6410   27.7501 H   0  0  0  0  0  0  0  0  0  0  0  0
  -11.3054  -22.7671   26.3085 H   0  0  0  0  0  0  0  0  0  0  0  0
  -11.1276  -21.4117   28.3255 H   0  0  0  0  0  0  0  0  0  0  0  0
   -9.7136  -24.5775   34.5584 H   0  0  0  0  0  0  0  0  0  0  0  0
  -10.8189  -22.8853   35.8875 H   0  0  0  0  0  0  0  0  0  0  0  0
  -12.0135  -20.9876   34.8635 H   0  0  0  0  0  0  0  0  0  0  0  0
  -12.0727  -20.4731   29.9893 H   0  0  0  0  0  0  0  0  0  0  0  0
  1  2  1  0
  2  3  1  0
  3  4  2  0
  4  5  1  0
  5  6  2  0
  6  7  1  0
  7  8  1  0
  8  9  1  0
  7 10  2  0
 10 11  1  0
 11 12  2  0
 12 13  1  0
 13 14  2  0
 14 15  1  0
 15 16  2  0
 15 17  1  0
 17 18  1  0
 18 19  2  0
 19 20  1  0
 20 21  2  0
 21 22  1  0
 22 23  2  0
 23 24  1  0
 24 25  1  0
 14  3  1  0
 25 17  2  0
 13  6  1  0
 25 21  1  0
 24 12  1  0
  1 26  1  0
  1 27  1  0
  1 28  1  0
  2 29  1  0
  4 30  1  0
  5 31  1  0
  8 32  1  0
  8 33  1  0
  9 34  1  0
 10 35  1  0
 11 36  1  0
 18 37  1  0
 19 38  1  0
 20 39  1  0
 23 40  1  0
M  END
>  <Energy>  (55) 
145.74148030244635

>  <compound_id>  (55) 
402

>  <target_id>  (55) 
1

>  <reference_id>  (55) 
52

>  <inspiration_ids>  (55) 
[52, 34]

>  <energy_score>  (55) 
-33.089143747657715

>  <distance_score>  (55) 
2.3010923847540607

>  <path>  (55) 
/opt/xchem-fragalysis-2/maxwin/BulkDock/SCRATCH/505733/C402-P52/C402-P52.minimised.mol

>  <scratch_subdir>  (55) 
/opt/xchem-fragalysis-2/maxwin/BulkDock/SCRATCH/505733/C402-P52

>  <fragmenstein_runtime>  (55) 
3.406754493713379

>  <fragmenstein_outcome>  (55) 
too moved

>  <fragmenstein_mode>  (55) 
expansion

>  <fragmenstein_error>  (55) 


$$$$
C402-P34
     RDKit          3D

 40 44  0  0  0  0  0  0  0  0999 V2000
  -10.5312  -29.2586   31.9563 C   0  0  0  0  0  0  0  0  0  0  0  0
  -10.2212  -27.8175   31.8141 N   0  0  0  0  0  0  0  0  0  0  0  0
  -10.3328  -27.0356   30.6461 C   0  0  0  0  0  0  0  0  0  0  0  0
  -10.9966  -27.5255   29.5402 C   0  0  0  0  0  0  0  0  0  0  0  0
  -11.4604  -26.6525   28.5708 C   0  0  0  0  0  0  0  0  0  0  0  0
  -11.1851  -25.2924   28.5562 C   0  0  0  0  0  0  0  0  0  0  0  0
  -11.5589  -24.4987   27.4646 C   0  0  0  0  0  0  0  0  0  0  0  0
  -12.0855  -25.1349   26.2495 C   0  0  0  0  0  0  0  0  0  0  0  0
  -10.9886  -25.8385   25.6936 O   0  0  0  0  0  0  0  0  0  0  0  0
  -11.3463  -23.1310   27.4497 C   0  0  0  0  0  0  0  0  0  0  0  0
  -10.9317  -22.5182   28.6007 C   0  0  0  0  0  0  0  0  0  0  0  0
  -10.6306  -23.3176   29.7055 C   0  0  0  0  0  0  0  0  0  0  0  0
  -10.5452  -24.7409   29.6460 C   0  0  0  0  0  0  0  0  0  0  0  0
   -9.9925  -25.6602   30.6057 C   0  0  0  0  0  0  0  0  0  0  0  0
   -8.4852  -25.0816   31.4201 S   0  0  0  0  0  0  0  0  0  0  0  0
   -7.9996  -26.2240   32.2716 O   0  0  0  0  0  0  0  0  0  0  0  0
   -9.3685  -24.0537   32.5290 C   0  0  0  0  0  0  0  0  0  0  0  0
   -9.1093  -24.2475   33.8534 C   0  0  0  0  0  0  0  0  0  0  0  0
   -9.9952  -23.7413   34.7478 C   0  0  0  0  0  0  0  0  0  0  0  0
  -11.0252  -22.8582   34.4092 C   0  0  0  0  0  0  0  0  0  0  0  0
  -11.1643  -22.5006   33.0847 C   0  0  0  0  0  0  0  0  0  0  0  0
  -12.0090  -21.6028   32.4998 N   0  0  0  0  0  0  0  0  0  0  0  0
  -11.7983  -21.7838   31.2243 C   0  0  0  0  0  0  0  0  0  0  0  0
  -10.8552  -22.7418   30.9676 N   0  0  0  0  0  0  0  0  0  0  0  0
  -10.3658  -23.1527   32.1658 C   0  0  0  0  0  0  0  0  0  0  0  0
   -9.7265  -29.7413   32.5131 H   0  0  0  0  0  0  0  0  0  0  0  0
  -11.4475  -29.4530   32.5109 H   0  0  0  0  0  0  0  0  0  0  0  0
  -10.6764  -29.8023   31.0185 H   0  0  0  0  0  0  0  0  0  0  0  0
   -9.3681  -27.5218   32.3150 H   0  0  0  0  0  0  0  0  0  0  0  0
  -11.3098  -28.5611   29.4879 H   0  0  0  0  0  0  0  0  0  0  0  0
  -12.1797  -27.0432   27.8645 H   0  0  0  0  0  0  0  0  0  0  0  0
  -12.9407  -25.7981   26.4149 H   0  0  0  0  0  0  0  0  0  0  0  0
  -12.4494  -24.3726   25.5569 H   0  0  0  0  0  0  0  0  0  0  0  0
  -10.9984  -26.7538   26.0458 H   0  0  0  0  0  0  0  0  0  0  0  0
  -11.6028  -22.5391   26.5775 H   0  0  0  0  0  0  0  0  0  0  0  0
  -10.9123  -21.4342   28.6465 H   0  0  0  0  0  0  0  0  0  0  0  0
   -8.3112  -24.8984   34.1952 H   0  0  0  0  0  0  0  0  0  0  0  0
   -9.7872  -24.0475   35.7527 H   0  0  0  0  0  0  0  0  0  0  0  0
  -11.6746  -22.4326   35.1598 H   0  0  0  0  0  0  0  0  0  0  0  0
  -12.3522  -21.3270   30.4273 H   0  0  0  0  0  0  0  0  0  0  0  0
  1  2  1  0
  2  3  1  0
  3  4  2  0
  4  5  1  0
  5  6  2  0
  6  7  1  0
  7  8  1  0
  8  9  1  0
  7 10  2  0
 10 11  1  0
 11 12  2  0
 12 13  1  0
 13 14  2  0
 14 15  1  0
 15 16  2  0
 15 17  1  0
 17 18  1  0
 18 19  2  0
 19 20  1  0
 20 21  2  0
 21 22  1  0
 22 23  2  0
 23 24  1  0
 24 25  1  0
 14  3  1  0
 25 17  2  0
 13  6  1  0
 25 21  1  0
 24 12  1  0
  1 26  1  0
  1 27  1  0
  1 28  1  0
  2 29  1  0
  4 30  1  0
  5 31  1  0
  8 32  1  0
  8 33  1  0
  9 34  1  0
 10 35  1  0
 11 36  1  0
 18 37  1  0
 19 38  1  0
 20 39  1  0
 23 40  1  0
M  END
>  <Energy>  (56) 
150.07098709612379

>  <compound_id>  (56) 
402

>  <target_id>  (56) 
1

>  <reference_id>  (56) 
34

>  <inspiration_ids>  (56) 
[52, 34]

>  <energy_score>  (56) 
-28.759636953978486

>  <distance_score>  (56) 
2.181407771056814

>  <path>  (56) 
/opt/xchem-fragalysis-2/maxwin/BulkDock/SCRATCH/505733/C402-P34/C402-P34.minimised.mol

>  <scratch_subdir>  (56) 
/opt/xchem-fragalysis-2/maxwin/BulkDock/SCRATCH/505733/C402-P34

>  <fragmenstein_runtime>  (56) 
3.6612348556518555

>  <fragmenstein_outcome>  (56) 
too moved

>  <fragmenstein_mode>  (56) 
expansion

>  <fragmenstein_error>  (56) 


$$$$
C404-P52
     RDKit          3D

 54 57  0  0  0  0  0  0  0  0999 V2000
   -8.7665  -24.8304   29.7196 C   0  0  0  0  0  0  0  0  0  0  0  0
   -9.2000  -25.4704   30.9125 O   0  0  0  0  0  0  0  0  0  0  0  0
   -9.0539  -24.8748   32.2295 N   0  0  0  0  0  0  0  0  0  0  0  0
   -8.2503  -23.6633   32.3698 C   0  0  0  0  0  0  0  0  0  0  0  0
   -9.2910  -23.1186   33.3177 C   0  0  0  0  0  0  0  0  0  0  0  0
  -10.2309  -24.0298   32.4923 C   0  0  0  0  0  0  0  0  0  0  0  0
  -10.8657  -23.4720   31.2231 C   0  0  0  0  0  0  0  0  0  0  0  0
  -11.9188  -24.4317   30.6590 C   0  0  0  0  0  0  0  0  0  0  0  0
  -11.8305  -25.8203   29.9984 C   0  0  0  0  0  0  0  0  0  0  0  0
  -12.2535  -25.9731   28.5136 C   0  0  0  0  0  0  0  0  0  0  0  0
  -12.8181  -27.3997   28.3311 C   0  0  0  0  0  0  0  0  0  0  0  0
  -13.5008  -27.6383   26.9886 C   0  0  0  0  0  0  0  0  0  0  0  0
  -14.5388  -26.5830   26.6326 C   0  0  0  0  0  0  0  0  0  0  0  0
  -15.7122  -26.6794   27.5221 C   0  0  0  0  0  0  0  0  0  0  0  0
  -16.6097  -26.7652   28.2539 N   0  0  0  0  0  0  0  0  0  0  0  0
  -13.8772  -25.2086   26.6809 C   0  0  0  0  0  0  0  0  0  0  0  0
  -13.2484  -24.9121   28.0403 C   0  0  0  0  0  0  0  0  0  0  0  0
  -11.5203  -22.1870   31.4621 N   0  0  0  0  0  0  0  0  0  0  0  0
  -11.8235  -21.3993   30.3909 C   0  0  0  0  0  0  0  0  0  0  0  0
  -12.9380  -20.7770   30.6181 N   0  0  0  0  0  0  0  0  0  0  0  0
  -13.2266  -20.9770   31.9426 C   0  0  0  0  0  0  0  0  0  0  0  0
  -14.2822  -20.4490   32.6952 C   0  0  0  0  0  0  0  0  0  0  0  0
  -14.3482  -20.7502   34.0477 C   0  0  0  0  0  0  0  0  0  0  0  0
  -13.4020  -21.5947   34.6100 C   0  0  0  0  0  0  0  0  0  0  0  0
  -12.3257  -22.1081   33.8889 C   0  0  0  0  0  0  0  0  0  0  0  0
  -12.2747  -21.7910   32.5341 C   0  0  0  0  0  0  0  0  0  0  0  0
   -9.6053  -24.7097   29.0299 H   0  0  0  0  0  0  0  0  0  0  0  0
   -8.2965  -23.8668   29.8416 H   0  0  0  0  0  0  0  0  0  0  0  0
   -8.0679  -25.4789   29.2023 H   0  0  0  0  0  0  0  0  0  0  0  0
   -7.2649  -23.7122   32.7998 H   0  0  0  0  0  0  0  0  0  0  0  0
   -8.2225  -23.0697   31.4879 H   0  0  0  0  0  0  0  0  0  0  0  0
   -9.4372  -22.0379   33.2855 H   0  0  0  0  0  0  0  0  0  0  0  0
   -9.1647  -23.4310   34.3615 H   0  0  0  0  0  0  0  0  0  0  0  0
  -10.9118  -24.5078   33.1801 H   0  0  0  0  0  0  0  0  0  0  0  0
  -10.1559  -23.2011   30.4513 H   0  0  0  0  0  0  0  0  0  0  0  0
  -12.6875  -23.8515   30.1496 H   0  0  0  0  0  0  0  0  0  0  0  0
  -12.3127  -24.6968   31.6174 H   0  0  0  0  0  0  0  0  0  0  0  0
  -10.8974  -26.3458   30.1274 H   0  0  0  0  0  0  0  0  0  0  0  0
  -12.5125  -26.4582   30.5783 H   0  0  0  0  0  0  0  0  0  0  0  0
  -11.3566  -25.8817   27.8871 H   0  0  0  0  0  0  0  0  0  0  0  0
  -13.5530  -27.6126   29.1185 H   0  0  0  0  0  0  0  0  0  0  0  0
  -12.0114  -28.1308   28.4652 H   0  0  0  0  0  0  0  0  0  0  0  0
  -12.7527  -27.6141   26.1999 H   0  0  0  0  0  0  0  0  0  0  0  0
  -13.9455  -28.6409   26.9815 H   0  0  0  0  0  0  0  0  0  0  0  0
  -14.8807  -26.7643   25.6055 H   0  0  0  0  0  0  0  0  0  0  0  0
  -14.6123  -24.4384   26.4273 H   0  0  0  0  0  0  0  0  0  0  0  0
  -13.0959  -25.1546   25.9117 H   0  0  0  0  0  0  0  0  0  0  0  0
  -14.0446  -24.8296   28.7823 H   0  0  0  0  0  0  0  0  0  0  0  0
  -12.7478  -23.9386   27.9804 H   0  0  0  0  0  0  0  0  0  0  0  0
  -11.2934  -21.4248   29.4473 H   0  0  0  0  0  0  0  0  0  0  0  0
  -15.0583  -19.8622   32.2183 H   0  0  0  0  0  0  0  0  0  0  0  0
  -15.1940  -20.4122   34.6382 H   0  0  0  0  0  0  0  0  0  0  0  0
  -13.5613  -21.9454   35.6210 H   0  0  0  0  0  0  0  0  0  0  0  0
  -11.6461  -22.7828   34.3877 H   0  0  0  0  0  0  0  0  0  0  0  0
  1  2  1  0
  2  3  1  0
  3  4  1  0
  4  5  1  0
  5  6  1  0
  6  7  1  0
  7  8  1  0
  8  9  1  0
  9 10  1  0
 10 11  1  0
 11 12  1  0
 12 13  1  0
 13 14  1  0
 14 15  3  0
 13 16  1  0
 16 17  1  0
  7 18  1  0
 18 19  1  0
 19 20  2  0
 20 21  1  0
 21 22  2  0
 22 23  1  0
 23 24  2  0
 24 25  1  0
 25 26  2  0
  6  3  1  0
 17 10  1  0
 26 18  1  0
 26 21  1  0
  1 27  1  0
  1 28  1  0
  1 29  1  0
  4 30  1  0
  4 31  1  0
  5 32  1  0
  5 33  1  0
  6 34  1  0
  7 35  1  0
  8 36  1  0
  8 37  1  0
  9 38  1  0
  9 39  1  0
 10 40  1  0
 11 41  1  0
 11 42  1  0
 12 43  1  0
 12 44  1  0
 13 45  1  0
 16 46  1  0
 16 47  1  0
 17 48  1  0
 17 49  1  0
 19 50  1  0
 22 51  1  0
 23 52  1  0
 24 53  1  0
 25 54  1  0
M  END
>  <Energy>  (57) 
144.56481836772599

>  <compound_id>  (57) 
404

>  <target_id>  (57) 
1

>  <reference_id>  (57) 
52

>  <inspiration_ids>  (57) 
[52, 38]

>  <energy_score>  (57) 
20.062107999493833

>  <distance_score>  (57) 
3.371225846902628

>  <path>  (57) 
/opt/xchem-fragalysis-2/maxwin/BulkDock/SCRATCH/505733/C404-P52/C404-P52.minimised.mol

>  <scratch_subdir>  (57) 
/opt/xchem-fragalysis-2/maxwin/BulkDock/SCRATCH/505733/C404-P52

>  <fragmenstein_runtime>  (57) 
10.800419569015503

>  <fragmenstein_outcome>  (57) 
too moved

>  <fragmenstein_mode>  (57) 
expansion

>  <fragmenstein_error>  (57) 


$$$$
C404-P38
     RDKit          3D

 54 57  0  0  0  0  0  0  0  0999 V2000
   -9.5142  -26.7855   31.1190 C   0  0  0  0  0  0  0  0  0  0  0  0
   -8.9165  -25.9797   32.1213 O   0  0  0  0  0  0  0  0  0  0  0  0
   -9.7227  -24.8870   32.6416 N   0  0  0  0  0  0  0  0  0  0  0  0
  -10.2789  -25.4420   33.9276 C   0  0  0  0  0  0  0  0  0  0  0  0
  -11.4647  -24.4828   33.6668 C   0  0  0  0  0  0  0  0  0  0  0  0
  -11.1529  -24.8734   32.2493 C   0  0  0  0  0  0  0  0  0  0  0  0
  -11.5198  -23.9705   31.1410 C   0  0  0  0  0  0  0  0  0  0  0  0
  -12.4966  -24.8005   30.2587 C   0  0  0  0  0  0  0  0  0  0  0  0
  -12.4646  -24.5465   28.7748 C   0  0  0  0  0  0  0  0  0  0  0  0
  -11.0913  -24.7113   28.1520 C   0  0  0  0  0  0  0  0  0  0  0  0
  -10.7522  -26.1603   27.8979 C   0  0  0  0  0  0  0  0  0  0  0  0
  -11.3371  -26.7255   26.6254 C   0  0  0  0  0  0  0  0  0  0  0  0
  -12.2863  -25.8566   25.8029 C   0  0  0  0  0  0  0  0  0  0  0  0
  -13.7119  -26.0464   26.1594 C   0  0  0  0  0  0  0  0  0  0  0  0
  -14.8348  -26.1968   26.4182 N   0  0  0  0  0  0  0  0  0  0  0  0
  -11.9223  -24.3711   25.7787 C   0  0  0  0  0  0  0  0  0  0  0  0
  -11.0002  -23.9105   26.8837 C   0  0  0  0  0  0  0  0  0  0  0  0
  -11.9173  -22.5811   31.4637 N   0  0  0  0  0  0  0  0  0  0  0  0
  -12.4662  -22.0068   30.3561 C   0  0  0  0  0  0  0  0  0  0  0  0
  -13.7666  -22.2334   30.4615 N   0  0  0  0  0  0  0  0  0  0  0  0
  -14.0342  -22.2247   31.7857 C   0  0  0  0  0  0  0  0  0  0  0  0
  -15.2425  -21.9610   32.4260 C   0  0  0  0  0  0  0  0  0  0  0  0
  -15.1677  -21.1921   33.5791 C   0  0  0  0  0  0  0  0  0  0  0  0
  -13.9284  -20.7674   34.0457 C   0  0  0  0  0  0  0  0  0  0  0  0
  -12.7296  -21.2782   33.5333 C   0  0  0  0  0  0  0  0  0  0  0  0
  -12.8143  -22.1141   32.4260 C   0  0  0  0  0  0  0  0  0  0  0  0
   -8.8338  -27.6077   30.9052 H   0  0  0  0  0  0  0  0  0  0  0  0
  -10.4360  -27.2800   31.4316 H   0  0  0  0  0  0  0  0  0  0  0  0
   -9.6570  -26.1861   30.2272 H   0  0  0  0  0  0  0  0  0  0  0  0
   -9.6131  -25.3186   34.7755 H   0  0  0  0  0  0  0  0  0  0  0  0
  -10.6097  -26.4844   33.9091 H   0  0  0  0  0  0  0  0  0  0  0  0
  -12.4729  -24.6842   33.9775 H   0  0  0  0  0  0  0  0  0  0  0  0
  -11.3210  -23.4283   33.8518 H   0  0  0  0  0  0  0  0  0  0  0  0
  -11.5197  -25.8645   32.0494 H   0  0  0  0  0  0  0  0  0  0  0  0
  -10.6203  -23.8300   30.5737 H   0  0  0  0  0  0  0  0  0  0  0  0
  -12.3225  -25.8769   30.3564 H   0  0  0  0  0  0  0  0  0  0  0  0
  -13.5140  -24.6363   30.5990 H   0  0  0  0  0  0  0  0  0  0  0  0
  -12.8626  -23.5673   28.5265 H   0  0  0  0  0  0  0  0  0  0  0  0
  -13.1812  -25.2483   28.3542 H   0  0  0  0  0  0  0  0  0  0  0  0
  -10.3088  -24.3146   28.7934 H   0  0  0  0  0  0  0  0  0  0  0  0
  -11.0748  -26.7874   28.7352 H   0  0  0  0  0  0  0  0  0  0  0  0
   -9.6617  -26.2699   27.8557 H   0  0  0  0  0  0  0  0  0  0  0  0
  -10.5093  -27.0153   25.9682 H   0  0  0  0  0  0  0  0  0  0  0  0
  -11.8088  -27.6550   26.9356 H   0  0  0  0  0  0  0  0  0  0  0  0
  -12.2117  -26.2378   24.7806 H   0  0  0  0  0  0  0  0  0  0  0  0
  -12.8289  -23.7580   25.7699 H   0  0  0  0  0  0  0  0  0  0  0  0
  -11.3959  -24.1324   24.8498 H   0  0  0  0  0  0  0  0  0  0  0  0
   -9.9737  -24.0065   26.5345 H   0  0  0  0  0  0  0  0  0  0  0  0
  -11.1662  -22.8458   27.0863 H   0  0  0  0  0  0  0  0  0  0  0  0
  -11.9001  -21.7345   29.4738 H   0  0  0  0  0  0  0  0  0  0  0  0
  -16.1899  -22.1453   31.9337 H   0  0  0  0  0  0  0  0  0  0  0  0
  -16.0824  -20.8372   34.0456 H   0  0  0  0  0  0  0  0  0  0  0  0
  -13.8767  -20.0193   34.8337 H   0  0  0  0  0  0  0  0  0  0  0  0
  -11.8013  -20.8858   33.8982 H   0  0  0  0  0  0  0  0  0  0  0  0
  1  2  1  0
  2  3  1  0
  3  4  1  0
  4  5  1  0
  5  6  1  0
  6  7  1  0
  7  8  1  0
  8  9  1  0
  9 10  1  0
 10 11  1  0
 11 12  1  0
 12 13  1  0
 13 14  1  0
 14 15  3  0
 13 16  1  0
 16 17  1  0
  7 18  1  0
 18 19  1  0
 19 20  2  0
 20 21  1  0
 21 22  2  0
 22 23  1  0
 23 24  2  0
 24 25  1  0
 25 26  2  0
  6  3  1  0
 17 10  1  0
 26 18  1  0
 26 21  1  0
  1 27  1  0
  1 28  1  0
  1 29  1  0
  4 30  1  0
  4 31  1  0
  5 32  1  0
  5 33  1  0
  6 34  1  0
  7 35  1  0
  8 36  1  0
  8 37  1  0
  9 38  1  0
  9 39  1  0
 10 40  1  0
 11 41  1  0
 11 42  1  0
 12 43  1  0
 12 44  1  0
 13 45  1  0
 16 46  1  0
 16 47  1  0
 17 48  1  0
 17 49  1  0
 19 50  1  0
 22 51  1  0
 23 52  1  0
 24 53  1  0
 25 54  1  0
M  END
>  <Energy>  (58) 
185.02946205730973

>  <compound_id>  (58) 
404

>  <target_id>  (58) 
1

>  <reference_id>  (58) 
38

>  <inspiration_ids>  (58) 
[52, 38]

>  <energy_score>  (58) 
60.52675168908155

>  <distance_score>  (58) 
3.6705839381596754

>  <path>  (58) 
/opt/xchem-fragalysis-2/maxwin/BulkDock/SCRATCH/505733/C404-P38/C404-P38.minimised.mol

>  <scratch_subdir>  (58) 
/opt/xchem-fragalysis-2/maxwin/BulkDock/SCRATCH/505733/C404-P38

>  <fragmenstein_runtime>  (58) 
12.512036323547363

>  <fragmenstein_outcome>  (58) 
too moved

>  <fragmenstein_mode>  (58) 
expansion

>  <fragmenstein_error>  (58) 


$$$$
C409-P52
     RDKit          3D

 44 47  0  0  0  0  0  0  0  0999 V2000
  -10.5630  -25.8736   25.7188 N   0  0  0  0  0  0  0  0  0  0  0  0
  -10.9942  -25.9225   26.7915 C   0  0  0  0  0  0  0  0  0  0  0  0
  -11.5905  -25.5664   28.0714 C   0  0  0  0  0  0  0  0  0  0  0  0
  -10.8322  -26.0782   29.2165 N   0  0  0  0  0  0  0  0  0  0  0  0
   -9.6539  -25.2268   29.2905 C   0  0  0  0  0  0  0  0  0  0  0  0
   -9.9959  -23.9782   28.6636 N   0  0  0  0  0  0  0  0  0  0  0  0
  -11.4091  -24.0611   28.2265 C   0  0  0  0  0  0  0  0  0  0  0  0
  -12.2319  -23.4988   29.3916 C   0  0  0  0  0  0  0  0  0  0  0  0
  -11.5386  -22.2221   29.8445 C   0  0  0  0  0  0  0  0  0  0  0  0
  -11.9202  -21.8378   31.1652 N   0  0  0  0  0  0  0  0  0  0  0  0
  -13.0391  -21.2151   31.5933 C   0  0  0  0  0  0  0  0  0  0  0  0
  -13.0253  -21.0595   32.8932 N   0  0  0  0  0  0  0  0  0  0  0  0
  -12.0009  -21.8607   33.3113 C   0  0  0  0  0  0  0  0  0  0  0  0
  -11.6447  -22.2659   34.5803 C   0  0  0  0  0  0  0  0  0  0  0  0
  -10.6004  -23.1842   34.7278 C   0  0  0  0  0  0  0  0  0  0  0  0
   -9.8563  -23.6396   33.6584 C   0  0  0  0  0  0  0  0  0  0  0  0
  -10.1589  -23.1971   32.3910 C   0  0  0  0  0  0  0  0  0  0  0  0
  -11.2635  -22.3474   32.2544 C   0  0  0  0  0  0  0  0  0  0  0  0
  -11.3525  -21.1880   28.7601 C   0  0  0  0  0  0  0  0  0  0  0  0
  -11.7771  -21.7038   27.3967 C   0  0  0  0  0  0  0  0  0  0  0  0
  -11.5648  -23.1573   26.9747 C   0  0  0  0  0  0  0  0  0  0  0  0
  -12.6898  -23.6227   26.0132 C   0  0  0  0  0  0  0  0  0  0  0  0
  -12.9918  -22.7029   24.9870 O   0  0  0  0  0  0  0  0  0  0  0  0
  -12.6385  -25.8778   28.1238 H   0  0  0  0  0  0  0  0  0  0  0  0
  -11.3529  -25.9420   30.0776 H   0  0  0  0  0  0  0  0  0  0  0  0
   -8.8123  -25.6323   28.7335 H   0  0  0  0  0  0  0  0  0  0  0  0
   -9.3244  -25.1117   30.3219 H   0  0  0  0  0  0  0  0  0  0  0  0
   -9.4013  -23.8579   27.8466 H   0  0  0  0  0  0  0  0  0  0  0  0
  -13.2684  -23.3162   29.0991 H   0  0  0  0  0  0  0  0  0  0  0  0
  -12.2890  -24.1955   30.2324 H   0  0  0  0  0  0  0  0  0  0  0  0
  -10.5021  -22.4685   30.0343 H   0  0  0  0  0  0  0  0  0  0  0  0
  -13.8423  -20.8934   30.9540 H   0  0  0  0  0  0  0  0  0  0  0  0
  -12.2196  -21.8926   35.4078 H   0  0  0  0  0  0  0  0  0  0  0  0
  -10.3693  -23.5273   35.7161 H   0  0  0  0  0  0  0  0  0  0  0  0
   -9.0329  -24.3229   33.8053 H   0  0  0  0  0  0  0  0  0  0  0  0
   -9.5501  -23.5121   31.5594 H   0  0  0  0  0  0  0  0  0  0  0  0
  -11.9021  -20.2787   29.0173 H   0  0  0  0  0  0  0  0  0  0  0  0
  -10.2981  -20.9021   28.7038 H   0  0  0  0  0  0  0  0  0  0  0  0
  -12.8339  -21.6425   27.4653 H   0  0  0  0  0  0  0  0  0  0  0  0
  -11.4858  -21.0158   26.6095 H   0  0  0  0  0  0  0  0  0  0  0  0
  -10.6450  -23.1731   26.3774 H   0  0  0  0  0  0  0  0  0  0  0  0
  -12.4683  -24.5545   25.5149 H   0  0  0  0  0  0  0  0  0  0  0  0
  -13.6018  -23.8698   26.5566 H   0  0  0  0  0  0  0  0  0  0  0  0
  -12.1824  -22.2475   24.6937 H   0  0  0  0  0  0  0  0  0  0  0  0
  1  2  3  0
  2  3  1  0
  3  4  1  0
  4  5  1  0
  5  6  1  0
  6  7  1  0
  7  8  1  0
  8  9  1  0
  9 10  1  0
 10 11  1  0
 11 12  2  0
 12 13  1  0
 13 14  2  0
 14 15  1  0
 15 16  2  0
 16 17  1  0
 17 18  2  0
  9 19  1  0
 19 20  1  0
 20 21  1  0
 21 22  1  0
 22 23  1  0
  7  3  1  0
 18 10  1  0
 21  7  1  0
 18 13  1  0
  3 24  1  0
  4 25  1  0
  5 26  1  0
  5 27  1  0
  6 28  1  0
  8 29  1  0
  8 30  1  0
  9 31  1  0
 11 32  1  0
 14 33  1  0
 15 34  1  0
 16 35  1  0
 17 36  1  0
 19 37  1  0
 19 38  1  0
 20 39  1  0
 20 40  1  0
 21 41  1  0
 22 42  1  0
 22 43  1  0
 23 44  1  0
M  END
>  <Energy>  (59) 
89.515294403289914

>  <compound_id>  (59) 
409

>  <target_id>  (59) 
1

>  <reference_id>  (59) 
52

>  <inspiration_ids>  (59) 
[52, 49]

>  <energy_score>  (59) 
-13.833431320423188

>  <distance_score>  (59) 
1.1241545304371614

>  <path>  (59) 
/opt/xchem-fragalysis-2/maxwin/BulkDock/SCRATCH/505733/C409-P52/C409-P52.minimised.mol

>  <scratch_subdir>  (59) 
/opt/xchem-fragalysis-2/maxwin/BulkDock/SCRATCH/505733/C409-P52

>  <fragmenstein_runtime>  (59) 
2.819244861602783

>  <fragmenstein_outcome>  (59) 
too moved

>  <fragmenstein_mode>  (59) 
expansion

>  <fragmenstein_error>  (59) 


$$$$
C409-P49
     RDKit          3D

 44 47  0  0  0  0  0  0  0  0999 V2000
  -10.0735  -26.2382   25.8456 N   0  0  0  0  0  0  0  0  0  0  0  0
  -10.5498  -25.9745   26.8652 C   0  0  0  0  0  0  0  0  0  0  0  0
  -11.2141  -25.6291   28.1090 C   0  0  0  0  0  0  0  0  0  0  0  0
  -10.5458  -26.2709   29.2493 N   0  0  0  0  0  0  0  0  0  0  0  0
   -9.3341  -25.4844   29.4251 C   0  0  0  0  0  0  0  0  0  0  0  0
   -9.6438  -24.1679   28.9320 N   0  0  0  0  0  0  0  0  0  0  0  0
  -11.0210  -24.1481   28.4017 C   0  0  0  0  0  0  0  0  0  0  0  0
  -12.0538  -23.7143   29.4442 C   0  0  0  0  0  0  0  0  0  0  0  0
  -11.6467  -22.3727   30.0159 C   0  0  0  0  0  0  0  0  0  0  0  0
  -12.2228  -22.1393   31.3014 N   0  0  0  0  0  0  0  0  0  0  0  0
  -12.9875  -21.1489   31.8022 C   0  0  0  0  0  0  0  0  0  0  0  0
  -12.7742  -20.9684   33.0826 N   0  0  0  0  0  0  0  0  0  0  0  0
  -11.9073  -21.9675   33.4103 C   0  0  0  0  0  0  0  0  0  0  0  0
  -11.2264  -22.2276   34.5733 C   0  0  0  0  0  0  0  0  0  0  0  0
  -10.2482  -23.2262   34.5825 C   0  0  0  0  0  0  0  0  0  0  0  0
  -10.0561  -24.0522   33.5059 C   0  0  0  0  0  0  0  0  0  0  0  0
  -10.7519  -23.8502   32.3581 C   0  0  0  0  0  0  0  0  0  0  0  0
  -11.6181  -22.7719   32.3407 C   0  0  0  0  0  0  0  0  0  0  0  0
  -11.6751  -21.3132   28.9787 C   0  0  0  0  0  0  0  0  0  0  0  0
  -10.8994  -21.7205   27.7574 C   0  0  0  0  0  0  0  0  0  0  0  0
  -11.0822  -23.1556   27.2158 C   0  0  0  0  0  0  0  0  0  0  0  0
  -12.2991  -23.3792   26.3035 C   0  0  0  0  0  0  0  0  0  0  0  0
  -12.3023  -22.5424   25.1661 O   0  0  0  0  0  0  0  0  0  0  0  0
  -12.2685  -25.9245   28.0734 H   0  0  0  0  0  0  0  0  0  0  0  0
  -11.0999  -26.1815   30.0943 H   0  0  0  0  0  0  0  0  0  0  0  0
   -8.5091  -25.8693   28.8241 H   0  0  0  0  0  0  0  0  0  0  0  0
   -9.0191  -25.4834   30.4706 H   0  0  0  0  0  0  0  0  0  0  0  0
   -9.3283  -23.4435   29.5623 H   0  0  0  0  0  0  0  0  0  0  0  0
  -13.0600  -23.6712   29.0166 H   0  0  0  0  0  0  0  0  0  0  0  0
  -12.1487  -24.4600   30.2268 H   0  0  0  0  0  0  0  0  0  0  0  0
  -10.5886  -22.3911   30.2711 H   0  0  0  0  0  0  0  0  0  0  0  0
  -13.6710  -20.5588   31.2310 H   0  0  0  0  0  0  0  0  0  0  0  0
  -11.3891  -21.5509   35.3936 H   0  0  0  0  0  0  0  0  0  0  0  0
   -9.5832  -23.3215   35.4124 H   0  0  0  0  0  0  0  0  0  0  0  0
   -9.3880  -24.8825   33.5126 H   0  0  0  0  0  0  0  0  0  0  0  0
  -10.5640  -24.4898   31.5218 H   0  0  0  0  0  0  0  0  0  0  0  0
  -12.6777  -21.2313   28.6765 H   0  0  0  0  0  0  0  0  0  0  0  0
  -11.3436  -20.3423   29.3607 H   0  0  0  0  0  0  0  0  0  0  0  0
  -11.1041  -20.9816   26.9894 H   0  0  0  0  0  0  0  0  0  0  0  0
   -9.8562  -21.6308   28.0721 H   0  0  0  0  0  0  0  0  0  0  0  0
  -10.2132  -23.3251   26.5644 H   0  0  0  0  0  0  0  0  0  0  0  0
  -12.3087  -24.4067   25.9473 H   0  0  0  0  0  0  0  0  0  0  0  0
  -13.2512  -23.2978   26.8059 H   0  0  0  0  0  0  0  0  0  0  0  0
  -12.6050  -21.6503   25.4496 H   0  0  0  0  0  0  0  0  0  0  0  0
  1  2  3  0
  2  3  1  0
  3  4  1  0
  4  5  1  0
  5  6  1  0
  6  7  1  0
  7  8  1  0
  8  9  1  0
  9 10  1  0
 10 11  1  0
 11 12  2  0
 12 13  1  0
 13 14  2  0
 14 15  1  0
 15 16  2  0
 16 17  1  0
 17 18  2  0
  9 19  1  0
 19 20  1  0
 20 21  1  0
 21 22  1  0
 22 23  1  0
  7  3  1  0
 18 10  1  0
 21  7  1  0
 18 13  1  0
  3 24  1  0
  4 25  1  0
  5 26  1  0
  5 27  1  0
  6 28  1  0
  8 29  1  0
  8 30  1  0
  9 31  1  0
 11 32  1  0
 14 33  1  0
 15 34  1  0
 16 35  1  0
 17 36  1  0
 19 37  1  0
 19 38  1  0
 20 39  1  0
 20 40  1  0
 21 41  1  0
 22 42  1  0
 22 43  1  0
 23 44  1  0
M  END
>  <Energy>  (60) 
90.262082795181527

>  <compound_id>  (60) 
409

>  <target_id>  (60) 
1

>  <reference_id>  (60) 
49

>  <inspiration_ids>  (60) 
[52, 49]

>  <energy_score>  (60) 
-13.086642928533593

>  <distance_score>  (60) 
1.0230994309098458

>  <path>  (60) 
/opt/xchem-fragalysis-2/maxwin/BulkDock/SCRATCH/505733/C409-P49/C409-P49.minimised.mol

>  <scratch_subdir>  (60) 
/opt/xchem-fragalysis-2/maxwin/BulkDock/SCRATCH/505733/C409-P49

>  <fragmenstein_runtime>  (60) 
2.273451328277588

>  <fragmenstein_outcome>  (60) 
too moved

>  <fragmenstein_mode>  (60) 
expansion

>  <fragmenstein_error>  (60) 


$$$$
C411-P52
     RDKit          3D

 35 37  0  0  0  0  0  0  0  0999 V2000
  -12.6718  -25.5797   27.3873 C   0  0  0  0  0  0  0  0  0  0  0  0
  -12.3364  -24.2007   27.8815 C   0  0  0  0  0  0  0  0  0  0  0  0
  -12.4123  -23.9301   29.2384 C   0  0  0  0  0  0  0  0  0  0  0  0
  -12.0851  -22.6632   29.7222 C   0  0  0  0  0  0  0  0  0  0  0  0
  -12.0446  -22.4368   31.0943 N   0  0  0  0  0  0  0  0  0  0  0  0
  -12.7301  -21.4522   31.7483 C   0  0  0  0  0  0  0  0  0  0  0  0
  -12.3934  -21.3659   33.0074 N   0  0  0  0  0  0  0  0  0  0  0  0
  -11.5271  -22.4102   33.1897 C   0  0  0  0  0  0  0  0  0  0  0  0
  -10.9241  -22.8281   34.3691 C   0  0  0  0  0  0  0  0  0  0  0  0
  -10.0126  -23.8770   34.3167 C   0  0  0  0  0  0  0  0  0  0  0  0
   -9.7423  -24.5380   33.1241 C   0  0  0  0  0  0  0  0  0  0  0  0
  -10.3449  -24.1694   31.9169 C   0  0  0  0  0  0  0  0  0  0  0  0
   -9.9943  -24.9418   30.6808 C   0  0  0  0  0  0  0  0  0  0  0  0
  -11.2597  -23.0996   32.0066 C   0  0  0  0  0  0  0  0  0  0  0  0
  -11.7048  -21.6302   28.8848 C   0  0  0  0  0  0  0  0  0  0  0  0
  -11.6595  -21.8876   27.5328 C   0  0  0  0  0  0  0  0  0  0  0  0
  -11.9914  -23.1468   27.0197 C   0  0  0  0  0  0  0  0  0  0  0  0
  -11.9588  -23.3655   25.5464 C   0  0  0  0  0  0  0  0  0  0  0  0
  -12.1803  -22.1946   24.7878 O   0  0  0  0  0  0  0  0  0  0  0  0
  -12.6427  -26.3130   28.2006 H   0  0  0  0  0  0  0  0  0  0  0  0
  -11.9457  -25.9097   26.6381 H   0  0  0  0  0  0  0  0  0  0  0  0
  -13.6765  -25.5912   26.9533 H   0  0  0  0  0  0  0  0  0  0  0  0
  -12.6947  -24.7218   29.9199 H   0  0  0  0  0  0  0  0  0  0  0  0
  -13.4954  -20.8698   31.2631 H   0  0  0  0  0  0  0  0  0  0  0  0
  -11.1858  -22.3355   35.2957 H   0  0  0  0  0  0  0  0  0  0  0  0
   -9.5214  -24.1929   35.2223 H   0  0  0  0  0  0  0  0  0  0  0  0
   -9.0343  -25.3638   33.1276 H   0  0  0  0  0  0  0  0  0  0  0  0
  -10.7571  -25.6919   30.4614 H   0  0  0  0  0  0  0  0  0  0  0  0
   -9.0585  -25.4756   30.8283 H   0  0  0  0  0  0  0  0  0  0  0  0
   -9.8223  -24.2802   29.8288 H   0  0  0  0  0  0  0  0  0  0  0  0
  -11.4211  -20.6502   29.2569 H   0  0  0  0  0  0  0  0  0  0  0  0
  -11.4036  -21.0816   26.8550 H   0  0  0  0  0  0  0  0  0  0  0  0
  -12.7795  -24.0447   25.3033 H   0  0  0  0  0  0  0  0  0  0  0  0
  -10.9834  -23.7927   25.2928 H   0  0  0  0  0  0  0  0  0  0  0  0
  -11.6635  -22.2404   23.9652 H   0  0  0  0  0  0  0  0  0  0  0  0
  1  2  1  0
  2  3  2  0
  3  4  1  0
  4  5  1  0
  5  6  1  0
  6  7  2  0
  7  8  1  0
  8  9  2  0
  9 10  1  0
 10 11  2  0
 11 12  1  0
 12 13  1  0
 12 14  2  0
  4 15  2  0
 15 16  1  0
 16 17  2  0
 17 18  1  0
 18 19  1  0
 17  2  1  0
 14  5  1  0
 14  8  1  0
  1 20  1  0
  1 21  1  0
  1 22  1  0
  3 23  1  0
  6 24  1  0
  9 25  1  0
 10 26  1  0
 11 27  1  0
 13 28  1  0
 13 29  1  0
 13 30  1  0
 15 31  1  0
 16 32  1  0
 18 33  1  0
 18 34  1  0
 19 35  1  0
M  END
>  <Energy>  (61) 
81.425594910711538

>  <compound_id>  (61) 
411

>  <target_id>  (61) 
1

>  <reference_id>  (61) 
52

>  <inspiration_ids>  (61) 
[52, 62]

>  <energy_score>  (61) 
-16.184576826045145

>  <distance_score>  (61) 
0.9366284441364331

>  <path>  (61) 
/opt/xchem-fragalysis-2/maxwin/BulkDock/SCRATCH/505733/C411-P52/C411-P52.minimised.mol

>  <scratch_subdir>  (61) 
/opt/xchem-fragalysis-2/maxwin/BulkDock/SCRATCH/505733/C411-P52

>  <fragmenstein_runtime>  (61) 
2.749896287918091

>  <fragmenstein_outcome>  (61) 
acceptable

>  <fragmenstein_mode>  (61) 
expansion

>  <fragmenstein_error>  (61) 


$$$$
C411-P62
     RDKit          3D

 35 37  0  0  0  0  0  0  0  0999 V2000
  -12.2754  -26.1862   27.7252 C   0  0  0  0  0  0  0  0  0  0  0  0
  -12.1671  -24.7358   28.0391 C   0  0  0  0  0  0  0  0  0  0  0  0
  -12.1762  -24.3955   29.3703 C   0  0  0  0  0  0  0  0  0  0  0  0
  -11.8055  -23.1140   29.7672 C   0  0  0  0  0  0  0  0  0  0  0  0
  -11.6118  -22.8736   31.1060 N   0  0  0  0  0  0  0  0  0  0  0  0
  -11.8661  -21.7470   31.8059 C   0  0  0  0  0  0  0  0  0  0  0  0
  -12.5408  -22.0702   32.8775 N   0  0  0  0  0  0  0  0  0  0  0  0
  -12.2651  -23.4106   32.9633 C   0  0  0  0  0  0  0  0  0  0  0  0
  -12.7584  -24.3983   33.7577 C   0  0  0  0  0  0  0  0  0  0  0  0
  -12.0401  -25.6047   33.8152 C   0  0  0  0  0  0  0  0  0  0  0  0
  -10.9723  -25.9047   33.0012 C   0  0  0  0  0  0  0  0  0  0  0  0
  -10.6512  -25.0391   31.9850 C   0  0  0  0  0  0  0  0  0  0  0  0
   -9.7280  -25.5148   30.9258 C   0  0  0  0  0  0  0  0  0  0  0  0
  -11.3383  -23.8214   32.0276 C   0  0  0  0  0  0  0  0  0  0  0  0
  -11.5451  -22.1180   28.8859 C   0  0  0  0  0  0  0  0  0  0  0  0
  -11.6215  -22.4551   27.5692 C   0  0  0  0  0  0  0  0  0  0  0  0
  -12.0106  -23.7123   27.1087 C   0  0  0  0  0  0  0  0  0  0  0  0
  -12.2234  -23.9153   25.6396 C   0  0  0  0  0  0  0  0  0  0  0  0
  -12.6195  -22.7928   24.8520 O   0  0  0  0  0  0  0  0  0  0  0  0
  -12.2753  -26.8049   28.6288 H   0  0  0  0  0  0  0  0  0  0  0  0
  -11.4021  -26.5158   27.1599 H   0  0  0  0  0  0  0  0  0  0  0  0
  -13.2068  -26.3706   27.2081 H   0  0  0  0  0  0  0  0  0  0  0  0
  -12.4398  -25.1578   30.1027 H   0  0  0  0  0  0  0  0  0  0  0  0
  -11.6012  -20.7809   31.4557 H   0  0  0  0  0  0  0  0  0  0  0  0
  -13.6591  -24.2098   34.3192 H   0  0  0  0  0  0  0  0  0  0  0  0
  -12.3554  -26.3672   34.5100 H   0  0  0  0  0  0  0  0  0  0  0  0
  -10.5211  -26.8913   33.0635 H   0  0  0  0  0  0  0  0  0  0  0  0
   -9.6401  -24.8514   30.0689 H   0  0  0  0  0  0  0  0  0  0  0  0
  -10.0449  -26.4954   30.5546 H   0  0  0  0  0  0  0  0  0  0  0  0
   -8.7428  -25.5958   31.3893 H   0  0  0  0  0  0  0  0  0  0  0  0
  -11.2515  -21.1283   29.1867 H   0  0  0  0  0  0  0  0  0  0  0  0
  -11.4531  -21.6524   26.8693 H   0  0  0  0  0  0  0  0  0  0  0  0
  -13.0548  -24.6102   25.5199 H   0  0  0  0  0  0  0  0  0  0  0  0
  -11.2791  -24.2808   25.2344 H   0  0  0  0  0  0  0  0  0  0  0  0
  -13.0741  -22.1750   25.4613 H   0  0  0  0  0  0  0  0  0  0  0  0
  1  2  1  0
  2  3  2  0
  3  4  1  0
  4  5  1  0
  5  6  1  0
  6  7  2  0
  7  8  1  0
  8  9  2  0
  9 10  1  0
 10 11  2  0
 11 12  1  0
 12 13  1  0
 12 14  2  0
  4 15  2  0
 15 16  1  0
 16 17  2  0
 17 18  1  0
 18 19  1  0
 17  2  1  0
 14  5  1  0
 14  8  1  0
  1 20  1  0
  1 21  1  0
  1 22  1  0
  3 23  1  0
  6 24  1  0
  9 25  1  0
 10 26  1  0
 11 27  1  0
 13 28  1  0
 13 29  1  0
 13 30  1  0
 15 31  1  0
 16 32  1  0
 18 33  1  0
 18 34  1  0
 19 35  1  0
M  END
>  <Energy>  (62) 
109.84055456170111

>  <compound_id>  (62) 
411

>  <target_id>  (62) 
1

>  <reference_id>  (62) 
62

>  <inspiration_ids>  (62) 
[52, 62]

>  <energy_score>  (62) 
12.2303828249442

>  <distance_score>  (62) 
1.289888029166568

>  <path>  (62) 
/opt/xchem-fragalysis-2/maxwin/BulkDock/SCRATCH/505733/C411-P62/C411-P62.minimised.mol

>  <scratch_subdir>  (62) 
/opt/xchem-fragalysis-2/maxwin/BulkDock/SCRATCH/505733/C411-P62

>  <fragmenstein_runtime>  (62) 
2.6018433570861816

>  <fragmenstein_outcome>  (62) 
too moved

>  <fragmenstein_mode>  (62) 
expansion

>  <fragmenstein_error>  (62) 


$$$$
C413-P52
     RDKit          3D

 50 51  0  0  0  0  0  0  0  0999 V2000
  -12.0387  -27.2334   30.9115 C   0  0  0  0  0  0  0  0  0  0  0  0
  -11.5055  -25.9688   30.2685 C   0  0  0  0  0  0  0  0  0  0  0  0
  -12.2980  -25.6529   29.0198 C   0  0  0  0  0  0  0  0  0  0  0  0
  -12.0281  -24.3761   28.2743 C   0  0  0  0  0  0  0  0  0  0  0  0
  -12.5079  -24.3809   26.9542 C   0  0  0  0  0  0  0  0  0  0  0  0
  -12.4899  -23.2329   26.1680 C   0  0  0  0  0  0  0  0  0  0  0  0
  -13.2500  -23.1901   24.8696 C   0  0  0  0  0  0  0  0  0  0  0  0
  -14.5144  -22.5658   24.8779 O   0  0  0  0  0  0  0  0  0  0  0  0
  -11.8320  -22.1103   26.6557 C   0  0  0  0  0  0  0  0  0  0  0  0
  -11.3375  -22.0637   27.9503 C   0  0  0  0  0  0  0  0  0  0  0  0
  -11.5106  -23.1692   28.7804 C   0  0  0  0  0  0  0  0  0  0  0  0
  -11.7293  -22.8192   30.1144 N   0  0  0  0  0  0  0  0  0  0  0  0
  -12.9136  -22.3316   30.5549 C   0  0  0  0  0  0  0  0  0  0  0  0
  -12.8963  -22.0497   31.8173 N   0  0  0  0  0  0  0  0  0  0  0  0
  -11.6695  -22.4469   32.2484 C   0  0  0  0  0  0  0  0  0  0  0  0
  -11.4595  -22.4920   33.7108 C   0  0  0  0  0  0  0  0  0  0  0  0
  -11.7298  -21.0910   34.2959 C   0  0  0  0  0  0  0  0  0  0  0  0
  -13.1593  -20.5539   34.1899 C   0  0  0  0  0  0  0  0  0  0  0  0
  -10.1043  -23.0903   34.1256 C   0  0  0  0  0  0  0  0  0  0  0  0
   -9.8410  -24.5497   33.7685 C   0  0  0  0  0  0  0  0  0  0  0  0
   -9.0162  -24.8178   32.5399 C   0  0  0  0  0  0  0  0  0  0  0  0
  -10.8714  -22.7330   31.1643 C   0  0  0  0  0  0  0  0  0  0  0  0
  -13.1236  -27.1953   31.0480 H   0  0  0  0  0  0  0  0  0  0  0  0
  -11.6056  -27.3842   31.9046 H   0  0  0  0  0  0  0  0  0  0  0  0
  -11.8509  -28.1081   30.2805 H   0  0  0  0  0  0  0  0  0  0  0  0
  -10.4445  -26.0463   30.0323 H   0  0  0  0  0  0  0  0  0  0  0  0
  -11.6366  -25.1873   31.0105 H   0  0  0  0  0  0  0  0  0  0  0  0
  -13.3691  -25.6529   29.2625 H   0  0  0  0  0  0  0  0  0  0  0  0
  -12.1426  -26.4933   28.3277 H   0  0  0  0  0  0  0  0  0  0  0  0
  -13.0000  -25.2730   26.5653 H   0  0  0  0  0  0  0  0  0  0  0  0
  -12.6567  -22.6834   24.1026 H   0  0  0  0  0  0  0  0  0  0  0  0
  -13.5118  -24.2133   24.5965 H   0  0  0  0  0  0  0  0  0  0  0  0
  -14.3409  -21.6292   25.1149 H   0  0  0  0  0  0  0  0  0  0  0  0
  -11.8072  -21.2097   26.0520 H   0  0  0  0  0  0  0  0  0  0  0  0
  -10.9652  -21.1175   28.3392 H   0  0  0  0  0  0  0  0  0  0  0  0
  -13.7621  -22.2584   29.9198 H   0  0  0  0  0  0  0  0  0  0  0  0
  -12.2205  -23.1421   34.1425 H   0  0  0  0  0  0  0  0  0  0  0  0
  -11.0847  -20.3679   33.7947 H   0  0  0  0  0  0  0  0  0  0  0  0
  -11.4959  -21.1209   35.3582 H   0  0  0  0  0  0  0  0  0  0  0  0
  -13.2459  -19.6206   34.7554 H   0  0  0  0  0  0  0  0  0  0  0  0
  -13.8830  -21.2711   34.5878 H   0  0  0  0  0  0  0  0  0  0  0  0
  -13.4417  -20.2890   33.1699 H   0  0  0  0  0  0  0  0  0  0  0  0
   -9.2777  -22.4583   33.7818 H   0  0  0  0  0  0  0  0  0  0  0  0
  -10.1007  -23.0812   35.2199 H   0  0  0  0  0  0  0  0  0  0  0  0
  -10.7368  -25.1260   33.6762 H   0  0  0  0  0  0  0  0  0  0  0  0
   -9.3533  -24.9979   34.6326 H   0  0  0  0  0  0  0  0  0  0  0  0
   -8.5758  -25.8162   32.6144 H   0  0  0  0  0  0  0  0  0  0  0  0
   -8.2237  -24.0757   32.4181 H   0  0  0  0  0  0  0  0  0  0  0  0
   -9.6017  -24.8635   31.6343 H   0  0  0  0  0  0  0  0  0  0  0  0
   -9.8386  -22.9977   31.0618 H   0  0  0  0  0  0  0  0  0  0  0  0
  1  2  1  0
  2  3  1  0
  3  4  1  0
  4  5  2  0
  5  6  1  0
  6  7  1  0
  7  8  1  0
  6  9  2  0
  9 10  1  0
 10 11  2  0
 11 12  1  0
 12 13  1  0
 13 14  2  0
 14 15  1  0
 15 16  1  0
 16 17  1  0
 17 18  1  0
 16 19  1  0
 19 20  1  0
 20 21  1  0
 15 22  2  0
 11  4  1  0
 22 12  1  0
  1 23  1  0
  1 24  1  0
  1 25  1  0
  2 26  1  0
  2 27  1  0
  3 28  1  0
  3 29  1  0
  5 30  1  0
  7 31  1  0
  7 32  1  0
  8 33  1  0
  9 34  1  0
 10 35  1  0
 13 36  1  0
 16 37  1  0
 17 38  1  0
 17 39  1  0
 18 40  1  0
 18 41  1  0
 18 42  1  0
 19 43  1  0
 19 44  1  0
 20 45  1  0
 20 46  1  0
 21 47  1  0
 21 48  1  0
 21 49  1  0
 22 50  1  0
M  END
>  <Energy>  (63) 
102.30965805366084

>  <compound_id>  (63) 
413

>  <target_id>  (63) 
1

>  <reference_id>  (63) 
52

>  <inspiration_ids>  (63) 
[52, 75]

>  <energy_score>  (63) 
0.08702847728164897

>  <distance_score>  (63) 
1.5439327962310987

>  <path>  (63) 
/opt/xchem-fragalysis-2/maxwin/BulkDock/SCRATCH/505733/C413-P52/C413-P52.minimised.mol

>  <scratch_subdir>  (63) 
/opt/xchem-fragalysis-2/maxwin/BulkDock/SCRATCH/505733/C413-P52

>  <fragmenstein_runtime>  (63) 
6.349690198898315

>  <fragmenstein_outcome>  (63) 
too moved

>  <fragmenstein_mode>  (63) 
expansion

>  <fragmenstein_error>  (63) 


$$$$
C413-P75
     RDKit          3D

 50 51  0  0  0  0  0  0  0  0999 V2000
   -9.1763  -27.5169   30.7971 C   0  0  0  0  0  0  0  0  0  0  0  0
   -9.7718  -27.2679   29.4158 C   0  0  0  0  0  0  0  0  0  0  0  0
  -10.2494  -25.8542   29.4832 C   0  0  0  0  0  0  0  0  0  0  0  0
  -10.9957  -25.2891   28.3425 C   0  0  0  0  0  0  0  0  0  0  0  0
  -11.5285  -26.0902   27.3276 C   0  0  0  0  0  0  0  0  0  0  0  0
  -12.2333  -25.5259   26.2683 C   0  0  0  0  0  0  0  0  0  0  0  0
  -13.1069  -26.3981   25.4300 C   0  0  0  0  0  0  0  0  0  0  0  0
  -14.1908  -25.6767   24.8528 O   0  0  0  0  0  0  0  0  0  0  0  0
  -12.1257  -24.1635   26.0712 C   0  0  0  0  0  0  0  0  0  0  0  0
  -11.6064  -23.3767   27.0891 C   0  0  0  0  0  0  0  0  0  0  0  0
  -11.2373  -23.9246   28.3054 C   0  0  0  0  0  0  0  0  0  0  0  0
  -11.4206  -23.1279   29.4752 N   0  0  0  0  0  0  0  0  0  0  0  0
  -11.8580  -21.8440   29.4768 C   0  0  0  0  0  0  0  0  0  0  0  0
  -12.6836  -21.6382   30.4654 N   0  0  0  0  0  0  0  0  0  0  0  0
  -12.5928  -22.7063   31.2750 C   0  0  0  0  0  0  0  0  0  0  0  0
  -13.6445  -22.9717   32.3391 C   0  0  0  0  0  0  0  0  0  0  0  0
  -14.1605  -21.7131   33.0547 C   0  0  0  0  0  0  0  0  0  0  0  0
  -15.5258  -21.8964   33.7146 C   0  0  0  0  0  0  0  0  0  0  0  0
  -13.3084  -24.1128   33.3051 C   0  0  0  0  0  0  0  0  0  0  0  0
  -11.8811  -24.0810   33.7912 C   0  0  0  0  0  0  0  0  0  0  0  0
  -11.1799  -25.4332   33.8487 C   0  0  0  0  0  0  0  0  0  0  0  0
  -11.5390  -23.4668   30.8041 C   0  0  0  0  0  0  0  0  0  0  0  0
   -8.5658  -28.4095   30.8471 H   0  0  0  0  0  0  0  0  0  0  0  0
   -8.5652  -26.6663   31.1146 H   0  0  0  0  0  0  0  0  0  0  0  0
   -9.9348  -27.5831   31.5650 H   0  0  0  0  0  0  0  0  0  0  0  0
  -10.5904  -27.9454   29.1927 H   0  0  0  0  0  0  0  0  0  0  0  0
   -9.0817  -27.3970   28.5800 H   0  0  0  0  0  0  0  0  0  0  0  0
   -9.3925  -25.2007   29.6886 H   0  0  0  0  0  0  0  0  0  0  0  0
  -10.9049  -25.8575   30.3359 H   0  0  0  0  0  0  0  0  0  0  0  0
  -11.4885  -27.1732   27.4060 H   0  0  0  0  0  0  0  0  0  0  0  0
  -12.5360  -26.9004   24.6515 H   0  0  0  0  0  0  0  0  0  0  0  0
  -13.5510  -27.1530   26.0785 H   0  0  0  0  0  0  0  0  0  0  0  0
  -14.6162  -25.2051   25.5957 H   0  0  0  0  0  0  0  0  0  0  0  0
  -12.5454  -23.6752   25.1955 H   0  0  0  0  0  0  0  0  0  0  0  0
  -11.5944  -22.3084   26.9419 H   0  0  0  0  0  0  0  0  0  0  0  0
  -11.6787  -21.1661   28.6738 H   0  0  0  0  0  0  0  0  0  0  0  0
  -14.5231  -23.3109   31.7706 H   0  0  0  0  0  0  0  0  0  0  0  0
  -14.3309  -20.9330   32.3173 H   0  0  0  0  0  0  0  0  0  0  0  0
  -13.4204  -21.3334   33.7654 H   0  0  0  0  0  0  0  0  0  0  0  0
  -15.8487  -20.9542   34.1695 H   0  0  0  0  0  0  0  0  0  0  0  0
  -15.5232  -22.6604   34.4925 H   0  0  0  0  0  0  0  0  0  0  0  0
  -16.2788  -22.1790   32.9710 H   0  0  0  0  0  0  0  0  0  0  0  0
  -13.9890  -24.0836   34.1601 H   0  0  0  0  0  0  0  0  0  0  0  0
  -13.5342  -25.0811   32.8702 H   0  0  0  0  0  0  0  0  0  0  0  0
  -11.9340  -23.6280   34.7760 H   0  0  0  0  0  0  0  0  0  0  0  0
  -11.2560  -23.3937   33.2246 H   0  0  0  0  0  0  0  0  0  0  0  0
  -11.8576  -26.2228   34.1771 H   0  0  0  0  0  0  0  0  0  0  0  0
  -10.3344  -25.4317   34.5374 H   0  0  0  0  0  0  0  0  0  0  0  0
  -10.7518  -25.6962   32.8811 H   0  0  0  0  0  0  0  0  0  0  0  0
  -11.1143  -24.3437   31.2315 H   0  0  0  0  0  0  0  0  0  0  0  0
  1  2  1  0
  2  3  1  0
  3  4  1  0
  4  5  2  0
  5  6  1  0
  6  7  1  0
  7  8  1  0
  6  9  2  0
  9 10  1  0
 10 11  2  0
 11 12  1  0
 12 13  1  0
 13 14  2  0
 14 15  1  0
 15 16  1  0
 16 17  1  0
 17 18  1  0
 16 19  1  0
 19 20  1  0
 20 21  1  0
 15 22  2  0
 11  4  1  0
 22 12  1  0
  1 23  1  0
  1 24  1  0
  1 25  1  0
  2 26  1  0
  2 27  1  0
  3 28  1  0
  3 29  1  0
  5 30  1  0
  7 31  1  0
  7 32  1  0
  8 33  1  0
  9 34  1  0
 10 35  1  0
 13 36  1  0
 16 37  1  0
 17 38  1  0
 17 39  1  0
 18 40  1  0
 18 41  1  0
 18 42  1  0
 19 43  1  0
 19 44  1  0
 20 45  1  0
 20 46  1  0
 21 47  1  0
 21 48  1  0
 21 49  1  0
 22 50  1  0
M  END
>  <Energy>  (64) 
110.15018362100102

>  <compound_id>  (64) 
413

>  <target_id>  (64) 
1

>  <reference_id>  (64) 
75

>  <inspiration_ids>  (64) 
[52, 75]

>  <energy_score>  (64) 
-0.4162111656842171

>  <distance_score>  (64) 
2.3948690781227064

>  <path>  (64) 
/opt/xchem-fragalysis-2/maxwin/BulkDock/SCRATCH/505733/C413-P75/C413-P75.minimised.mol

>  <scratch_subdir>  (64) 
/opt/xchem-fragalysis-2/maxwin/BulkDock/SCRATCH/505733/C413-P75

>  <fragmenstein_runtime>  (64) 
9.483033418655396

>  <fragmenstein_outcome>  (64) 
too moved

>  <fragmenstein_mode>  (64) 
expansion

>  <fragmenstein_error>  (64) 


$$$$
C409-P52
     RDKit          2D

  0  0  0  0  0  0  0  0  0  0999 V2000
M  END
>  <compound_id>  (65) 
409

>  <target_id>  (65) 
1

>  <reference_id>  (65) 
52

>  <inspiration_ids>  (65) 
[52, 88]

>  <energy_score>  (65) 
nan

>  <distance_score>  (65) 
nan

>  <path>  (65) 
/opt/xchem-fragalysis-2/maxwin/BulkDock/SCRATCH/505733/C409-P52/C409-P52.minimised.mol

>  <scratch_subdir>  (65) 
/opt/xchem-fragalysis-2/maxwin/BulkDock/SCRATCH/505733/C409-P52

>  <fragmenstein_runtime>  (65) 
0.48299145698547363

>  <fragmenstein_outcome>  (65) 
too distant

>  <fragmenstein_mode>  (65) 
expansion

>  <fragmenstein_error>  (65) 
DistanceError: hit0+hit1

$$$$
C416-P52
     RDKit          3D

 54 57  0  0  0  0  0  0  0  0999 V2000
  -13.0554  -26.6004   26.0572 N   0  0  0  0  0  0  0  0  0  0  0  0
  -12.4595  -26.1909   27.3355 C   0  0  0  0  0  0  0  0  0  0  0  0
  -10.9180  -26.1352   27.2435 C   0  0  0  0  0  0  0  0  0  0  0  0
  -10.1557  -25.2224   28.1716 C   0  0  0  0  0  0  0  0  0  0  0  0
  -11.0172  -24.7200   29.2633 C   0  0  0  0  0  0  0  0  0  0  0  0
  -11.5954  -26.1352   30.3477 S   0  0  0  0  0  0  0  0  0  0  0  0
  -10.5711  -25.8470   31.7769 C   0  0  0  0  0  0  0  0  0  0  0  0
  -10.6384  -26.8873   32.6449 F   0  0  0  0  0  0  0  0  0  0  0  0
   -9.2884  -25.6740   31.4118 F   0  0  0  0  0  0  0  0  0  0  0  0
  -12.1757  -23.9283   28.6134 C   0  0  0  0  0  0  0  0  0  0  0  0
  -13.1421  -24.9396   27.9203 C   0  0  0  0  0  0  0  0  0  0  0  0
  -12.8172  -23.2125   29.8087 C   0  0  0  0  0  0  0  0  0  0  0  0
  -12.3580  -21.8288   30.2558 C   0  0  0  0  0  0  0  0  0  0  0  0
  -12.0941  -21.7279   31.6775 N   0  0  0  0  0  0  0  0  0  0  0  0
  -13.0039  -21.2147   32.5660 C   0  0  0  0  0  0  0  0  0  0  0  0
  -12.6516  -21.4394   33.8023 N   0  0  0  0  0  0  0  0  0  0  0  0
  -11.5213  -22.1858   33.6971 C   0  0  0  0  0  0  0  0  0  0  0  0
  -10.8131  -22.8581   34.6784 C   0  0  0  0  0  0  0  0  0  0  0  0
   -9.6141  -23.4795   34.3693 C   0  0  0  0  0  0  0  0  0  0  0  0
   -9.1062  -23.4282   33.0935 C   0  0  0  0  0  0  0  0  0  0  0  0
   -9.8637  -22.8782   32.0751 C   0  0  0  0  0  0  0  0  0  0  0  0
  -11.0721  -22.2716   32.3896 C   0  0  0  0  0  0  0  0  0  0  0  0
  -11.4148  -21.0538   29.3698 C   0  0  0  0  0  0  0  0  0  0  0  0
  -10.8709  -21.7906   28.1603 C   0  0  0  0  0  0  0  0  0  0  0  0
  -11.8294  -22.8129   27.5722 C   0  0  0  0  0  0  0  0  0  0  0  0
  -11.4864  -23.2241   26.1191 C   0  0  0  0  0  0  0  0  0  0  0  0
  -12.0843  -22.3201   25.2050 O   0  0  0  0  0  0  0  0  0  0  0  0
  -12.4116  -27.2751   25.6283 H   0  0  0  0  0  0  0  0  0  0  0  0
  -13.1135  -25.8042   25.4266 H   0  0  0  0  0  0  0  0  0  0  0  0
  -12.7069  -27.0287   27.9991 H   0  0  0  0  0  0  0  0  0  0  0  0
  -10.5825  -25.9483   26.2191 H   0  0  0  0  0  0  0  0  0  0  0  0
  -10.5704  -27.1185   27.5376 H   0  0  0  0  0  0  0  0  0  0  0  0
   -9.7888  -24.3578   27.6292 H   0  0  0  0  0  0  0  0  0  0  0  0
   -9.2408  -25.6667   28.5570 H   0  0  0  0  0  0  0  0  0  0  0  0
  -10.4162  -24.0582   29.8626 H   0  0  0  0  0  0  0  0  0  0  0  0
  -10.9423  -24.9785   32.2874 H   0  0  0  0  0  0  0  0  0  0  0  0
  -13.8958  -25.2864   28.6413 H   0  0  0  0  0  0  0  0  0  0  0  0
  -13.7390  -24.4355   27.1518 H   0  0  0  0  0  0  0  0  0  0  0  0
  -13.8715  -23.1433   29.6045 H   0  0  0  0  0  0  0  0  0  0  0  0
  -12.7254  -23.8367   30.6847 H   0  0  0  0  0  0  0  0  0  0  0  0
  -13.2756  -21.2541   30.2402 H   0  0  0  0  0  0  0  0  0  0  0  0
  -13.9321  -20.7416   32.2729 H   0  0  0  0  0  0  0  0  0  0  0  0
  -11.1698  -22.8395   35.6858 H   0  0  0  0  0  0  0  0  0  0  0  0
   -9.0575  -23.9611   35.1470 H   0  0  0  0  0  0  0  0  0  0  0  0
   -8.1471  -23.8803   32.8575 H   0  0  0  0  0  0  0  0  0  0  0  0
   -9.4993  -22.9942   31.0740 H   0  0  0  0  0  0  0  0  0  0  0  0
  -10.6142  -20.5745   29.9337 H   0  0  0  0  0  0  0  0  0  0  0  0
  -11.9840  -20.1984   28.9948 H   0  0  0  0  0  0  0  0  0  0  0  0
   -9.9008  -22.2377   28.3922 H   0  0  0  0  0  0  0  0  0  0  0  0
  -10.7219  -21.0249   27.4081 H   0  0  0  0  0  0  0  0  0  0  0  0
  -12.7246  -22.2212   27.4517 H   0  0  0  0  0  0  0  0  0  0  0  0
  -11.8927  -24.1845   25.8438 H   0  0  0  0  0  0  0  0  0  0  0  0
  -10.4124  -23.2591   25.9437 H   0  0  0  0  0  0  0  0  0  0  0  0
  -11.5761  -22.3102   24.3744 H   0  0  0  0  0  0  0  0  0  0  0  0
  1  2  1  0
  2  3  1  0
  3  4  1  0
  4  5  1  0
  5  6  1  0
  6  7  1  0
  7  8  1  0
  7  9  1  0
  5 10  1  0
 10 11  1  0
 10 12  1  0
 12 13  1  0
 13 14  1  0
 14 15  1  0
 15 16  2  0
 16 17  1  0
 17 18  2  0
 18 19  1  0
 19 20  2  0
 20 21  1  0
 21 22  2  0
 13 23  1  0
 23 24  1  0
 24 25  1  0
 25 26  1  0
 26 27  1  0
 11  2  1  0
 22 14  1  0
 25 10  1  0
 22 17  1  0
  1 28  1  0
  1 29  1  0
  2 30  1  0
  3 31  1  0
  3 32  1  0
  4 33  1  0
  4 34  1  0
  5 35  1  0
  7 36  1  0
 11 37  1  0
 11 38  1  0
 12 39  1  0
 12 40  1  0
 13 41  1  0
 15 42  1  0
 18 43  1  0
 19 44  1  0
 20 45  1  0
 21 46  1  0
 23 47  1  0
 23 48  1  0
 24 49  1  0
 24 50  1  0
 25 51  1  0
 26 52  1  0
 26 53  1  0
 27 54  1  0
M  END
>  <Energy>  (66) 
105.61100058076113

>  <compound_id>  (66) 
416

>  <target_id>  (66) 
1

>  <reference_id>  (66) 
52

>  <inspiration_ids>  (66) 
[52, 96]

>  <energy_score>  (66) 
-0.21156119495100256

>  <distance_score>  (66) 
1.3827465227346594

>  <path>  (66) 
/opt/xchem-fragalysis-2/maxwin/BulkDock/SCRATCH/505733/C416-P52/C416-P52.minimised.mol

>  <scratch_subdir>  (66) 
/opt/xchem-fragalysis-2/maxwin/BulkDock/SCRATCH/505733/C416-P52

>  <fragmenstein_runtime>  (66) 
5.053752422332764

>  <fragmenstein_outcome>  (66) 
too moved

>  <fragmenstein_mode>  (66) 
expansion

>  <fragmenstein_error>  (66) 


$$$$
C416-P96
     RDKit          3D

 54 57  0  0  0  0  0  0  0  0999 V2000
  -12.4697  -27.8089   27.8727 N   0  0  0  0  0  0  0  0  0  0  0  0
  -11.6069  -26.8734   28.5850 C   0  0  0  0  0  0  0  0  0  0  0  0
  -10.3603  -26.3424   27.8502 C   0  0  0  0  0  0  0  0  0  0  0  0
   -9.5405  -25.2992   28.6084 C   0  0  0  0  0  0  0  0  0  0  0  0
  -10.3031  -24.6592   29.7364 C   0  0  0  0  0  0  0  0  0  0  0  0
  -10.3046  -25.6914   31.2768 S   0  0  0  0  0  0  0  0  0  0  0  0
   -8.8244  -25.1774   32.1531 C   0  0  0  0  0  0  0  0  0  0  0  0
   -9.0814  -25.1882   33.4874 F   0  0  0  0  0  0  0  0  0  0  0  0
   -7.8222  -26.0488   32.0057 F   0  0  0  0  0  0  0  0  0  0  0  0
  -11.7550  -24.3964   29.2300 C   0  0  0  0  0  0  0  0  0  0  0  0
  -12.5161  -25.7237   28.9992 C   0  0  0  0  0  0  0  0  0  0  0  0
  -12.5139  -23.6507   30.3456 C   0  0  0  0  0  0  0  0  0  0  0  0
  -12.4884  -22.1346   30.1927 C   0  0  0  0  0  0  0  0  0  0  0  0
  -12.6085  -21.4671   31.4524 N   0  0  0  0  0  0  0  0  0  0  0  0
  -13.6795  -20.8591   32.0240 C   0  0  0  0  0  0  0  0  0  0  0  0
  -13.4272  -20.5354   33.2681 N   0  0  0  0  0  0  0  0  0  0  0  0
  -12.2246  -21.1328   33.5096 C   0  0  0  0  0  0  0  0  0  0  0  0
  -11.5449  -21.3655   34.6674 C   0  0  0  0  0  0  0  0  0  0  0  0
  -10.4948  -22.2998   34.6412 C   0  0  0  0  0  0  0  0  0  0  0  0
   -9.8199  -22.5730   33.4853 C   0  0  0  0  0  0  0  0  0  0  0  0
  -10.3616  -22.1706   32.3033 C   0  0  0  0  0  0  0  0  0  0  0  0
  -11.6268  -21.6006   32.3692 C   0  0  0  0  0  0  0  0  0  0  0  0
  -11.4346  -21.4414   29.3288 C   0  0  0  0  0  0  0  0  0  0  0  0
  -11.0124  -22.2189   28.1103 C   0  0  0  0  0  0  0  0  0  0  0  0
  -11.8518  -23.4792   27.9386 C   0  0  0  0  0  0  0  0  0  0  0  0
  -11.7756  -23.9686   26.4862 C   0  0  0  0  0  0  0  0  0  0  0  0
  -12.5274  -23.1396   25.5969 O   0  0  0  0  0  0  0  0  0  0  0  0
  -12.1721  -28.7733   28.0010 H   0  0  0  0  0  0  0  0  0  0  0  0
  -12.4928  -27.5978   26.8717 H   0  0  0  0  0  0  0  0  0  0  0  0
  -11.2749  -27.4213   29.4702 H   0  0  0  0  0  0  0  0  0  0  0  0
  -10.6373  -25.9357   26.8860 H   0  0  0  0  0  0  0  0  0  0  0  0
   -9.6863  -27.1205   27.5263 H   0  0  0  0  0  0  0  0  0  0  0  0
   -9.2805  -24.5162   27.8952 H   0  0  0  0  0  0  0  0  0  0  0  0
   -8.5700  -25.6542   28.9508 H   0  0  0  0  0  0  0  0  0  0  0  0
   -9.7985  -23.7295   29.9797 H   0  0  0  0  0  0  0  0  0  0  0  0
   -8.4577  -24.2014   31.8388 H   0  0  0  0  0  0  0  0  0  0  0  0
  -13.0424  -26.0428   29.9114 H   0  0  0  0  0  0  0  0  0  0  0  0
  -13.3216  -25.5549   28.2707 H   0  0  0  0  0  0  0  0  0  0  0  0
  -13.5723  -23.9508   30.3254 H   0  0  0  0  0  0  0  0  0  0  0  0
  -12.2235  -23.9648   31.3498 H   0  0  0  0  0  0  0  0  0  0  0  0
  -13.4249  -22.0084   29.7110 H   0  0  0  0  0  0  0  0  0  0  0  0
  -14.6144  -20.6607   31.5235 H   0  0  0  0  0  0  0  0  0  0  0  0
  -11.8618  -20.8778   35.5675 H   0  0  0  0  0  0  0  0  0  0  0  0
  -10.0145  -22.6277   35.5587 H   0  0  0  0  0  0  0  0  0  0  0  0
   -8.8385  -23.0230   33.5609 H   0  0  0  0  0  0  0  0  0  0  0  0
   -9.8620  -22.3981   31.3866 H   0  0  0  0  0  0  0  0  0  0  0  0
  -10.5479  -21.1637   29.8869 H   0  0  0  0  0  0  0  0  0  0  0  0
  -11.8108  -20.4597   29.0286 H   0  0  0  0  0  0  0  0  0  0  0  0
   -9.9476  -22.4605   28.1776 H   0  0  0  0  0  0  0  0  0  0  0  0
  -11.0797  -21.5640   27.2448 H   0  0  0  0  0  0  0  0  0  0  0  0
  -12.8832  -23.1940   27.9807 H   0  0  0  0  0  0  0  0  0  0  0  0
  -12.2400  -24.9482   26.3722 H   0  0  0  0  0  0  0  0  0  0  0  0
  -10.7482  -23.9877   26.1133 H   0  0  0  0  0  0  0  0  0  0  0  0
  -12.4828  -22.1982   25.8707 H   0  0  0  0  0  0  0  0  0  0  0  0
  1  2  1  0
  2  3  1  0
  3  4  1  0
  4  5  1  0
  5  6  1  0
  6  7  1  0
  7  8  1  0
  7  9  1  0
  5 10  1  0
 10 11  1  0
 10 12  1  0
 12 13  1  0
 13 14  1  0
 14 15  1  0
 15 16  2  0
 16 17  1  0
 17 18  2  0
 18 19  1  0
 19 20  2  0
 20 21  1  0
 21 22  2  0
 13 23  1  0
 23 24  1  0
 24 25  1  0
 25 26  1  0
 26 27  1  0
 11  2  1  0
 22 14  1  0
 25 10  1  0
 22 17  1  0
  1 28  1  0
  1 29  1  0
  2 30  1  0
  3 31  1  0
  3 32  1  0
  4 33  1  0
  4 34  1  0
  5 35  1  0
  7 36  1  0
 11 37  1  0
 11 38  1  0
 12 39  1  0
 12 40  1  0
 13 41  1  0
 15 42  1  0
 18 43  1  0
 19 44  1  0
 20 45  1  0
 21 46  1  0
 23 47  1  0
 23 48  1  0
 24 49  1  0
 24 50  1  0
 25 51  1  0
 26 52  1  0
 26 53  1  0
 27 54  1  0
M  END
>  <Energy>  (67) 
123.79961068630426

>  <compound_id>  (67) 
416

>  <target_id>  (67) 
1

>  <reference_id>  (67) 
96

>  <inspiration_ids>  (67) 
[52, 96]

>  <energy_score>  (67) 
-20.301429130280212

>  <distance_score>  (67) 
1.7328459273250558

>  <path>  (67) 
/opt/xchem-fragalysis-2/maxwin/BulkDock/SCRATCH/505733/C416-P96/C416-P96.minimised.mol

>  <scratch_subdir>  (67) 
/opt/xchem-fragalysis-2/maxwin/BulkDock/SCRATCH/505733/C416-P96

>  <fragmenstein_runtime>  (67) 
8.366847276687622

>  <fragmenstein_outcome>  (67) 
too moved

>  <fragmenstein_mode>  (67) 
expansion

>  <fragmenstein_error>  (67) 


$$$$
C419-P52
     RDKit          3D

 71 77  0  0  0  0  0  0  0  0999 V2000
   -7.9702  -29.8260   35.3705 O   0  0  0  0  0  0  0  0  0  0  0  0
   -8.4488  -28.9840   35.9903 C   0  0  0  0  0  0  0  0  0  0  0  0
   -7.9993  -29.2534   38.0327 C   0  0  0  0  0  0  0  0  0  0  0  0
   -9.1559  -29.9029   39.3568 C   0  0  0  0  0  0  0  0  0  0  0  0
  -10.6336  -29.2174   39.7622 C   0  0  0  0  0  0  0  0  0  0  0  0
  -10.8460  -28.0084   40.4436 C   0  0  0  0  0  0  0  0  0  0  0  0
  -12.1929  -28.0182   40.7210 C   0  0  0  0  0  0  0  0  0  0  0  0
  -12.7486  -29.1624   40.2729 O   0  0  0  0  0  0  0  0  0  0  0  0
  -11.7658  -29.9428   39.7100 N   0  0  0  0  0  0  0  0  0  0  0  0
   -8.4572  -29.8751   40.7650 C   0  0  0  0  0  0  0  0  0  0  0  0
   -9.1340  -31.1215   41.1536 N   0  0  0  0  0  0  0  0  0  0  0  0
   -9.2948  -31.4538   39.7335 C   0  0  0  0  0  0  0  0  0  0  0  0
   -9.4192  -27.8866   35.2956 N   0  0  0  0  0  0  0  0  0  0  0  0
   -9.9727  -27.7648   33.8607 C   0  0  0  0  0  0  0  0  0  0  0  0
   -9.9990  -26.5573   33.2400 C   0  0  0  0  0  0  0  0  0  0  0  0
  -10.8255  -26.2248   32.1504 N   0  0  0  0  0  0  0  0  0  0  0  0
  -10.7445  -24.9644   31.4945 C   0  0  0  0  0  0  0  0  0  0  0  0
  -11.7863  -23.8807   31.7423 N   0  0  0  0  0  0  0  0  0  0  0  0
  -12.1880  -23.0833   30.6702 C   0  0  0  0  0  0  0  0  0  0  0  0
  -11.0203  -22.3034   30.5510 C   0  0  0  0  0  0  0  0  0  0  0  0
  -10.5259  -22.4066   29.1585 C   0  0  0  0  0  0  0  0  0  0  0  0
   -9.8642  -23.5940   28.8456 C   0  0  0  0  0  0  0  0  0  0  0  0
  -10.4015  -24.4128   27.8571 C   0  0  0  0  0  0  0  0  0  0  0  0
  -11.4165  -23.9435   27.0283 C   0  0  0  0  0  0  0  0  0  0  0  0
  -12.1710  -24.9276   26.1849 C   0  0  0  0  0  0  0  0  0  0  0  0
  -13.3299  -24.3429   25.6071 O   0  0  0  0  0  0  0  0  0  0  0  0
  -11.7391  -22.5881   27.0882 C   0  0  0  0  0  0  0  0  0  0  0  0
  -11.3167  -21.8174   28.1730 C   0  0  0  0  0  0  0  0  0  0  0  0
  -10.4728  -22.3745   31.9325 C   0  0  0  0  0  0  0  0  0  0  0  0
   -9.2636  -22.5830   32.6426 C   0  0  0  0  0  0  0  0  0  0  0  0
   -9.2963  -23.0033   33.9755 C   0  0  0  0  0  0  0  0  0  0  0  0
  -10.4848  -23.0695   34.6689 C   0  0  0  0  0  0  0  0  0  0  0  0
  -11.6736  -22.8371   34.0295 C   0  0  0  0  0  0  0  0  0  0  0  0
  -11.5761  -22.8251   32.6522 C   0  0  0  0  0  0  0  0  0  0  0  0
  -11.7520  -27.0294   31.5193 C   0  0  0  0  0  0  0  0  0  0  0  0
  -12.4265  -26.6845   30.5487 O   0  0  0  0  0  0  0  0  0  0  0  0
  -11.9609  -28.3377   32.0933 C   0  0  0  0  0  0  0  0  0  0  0  0
  -13.0273  -29.0759   31.4943 C   0  0  0  0  0  0  0  0  0  0  0  0
  -13.5412  -30.1924   32.1069 C   0  0  0  0  0  0  0  0  0  0  0  0
  -13.0155  -30.5093   33.3303 C   0  0  0  0  0  0  0  0  0  0  0  0
  -11.9385  -29.7548   33.8538 C   0  0  0  0  0  0  0  0  0  0  0  0
  -11.2398  -28.7060   33.2401 C   0  0  0  0  0  0  0  0  0  0  0  0
   -7.1244  -29.8339   38.3142 H   0  0  0  0  0  0  0  0  0  0  0  0
   -7.8640  -28.2649   38.5316 H   0  0  0  0  0  0  0  0  0  0  0  0
  -10.1555  -27.2238   40.7054 H   0  0  0  0  0  0  0  0  0  0  0  0
  -12.8731  -27.3189   41.1852 H   0  0  0  0  0  0  0  0  0  0  0  0
   -8.7208  -29.0836   41.4610 H   0  0  0  0  0  0  0  0  0  0  0  0
   -7.3780  -29.9118   40.7272 H   0  0  0  0  0  0  0  0  0  0  0  0
  -10.0356  -30.9807   41.6168 H   0  0  0  0  0  0  0  0  0  0  0  0
  -10.2475  -31.9857   39.6159 H   0  0  0  0  0  0  0  0  0  0  0  0
   -8.5555  -32.0869   39.2413 H   0  0  0  0  0  0  0  0  0  0  0  0
   -9.6494  -27.2213   35.9640 H   0  0  0  0  0  0  0  0  0  0  0  0
   -9.3661  -25.7536   33.5972 H   0  0  0  0  0  0  0  0  0  0  0  0
   -9.7269  -24.6072   31.6239 H   0  0  0  0  0  0  0  0  0  0  0  0
  -10.8321  -25.1686   30.4267 H   0  0  0  0  0  0  0  0  0  0  0  0
  -12.8473  -23.4942   29.9163 H   0  0  0  0  0  0  0  0  0  0  0  0
   -9.1364  -24.0174   29.5317 H   0  0  0  0  0  0  0  0  0  0  0  0
  -10.0810  -25.4503   27.7998 H   0  0  0  0  0  0  0  0  0  0  0  0
  -12.5106  -25.7573   26.8153 H   0  0  0  0  0  0  0  0  0  0  0  0
  -11.5158  -25.3298   25.4116 H   0  0  0  0  0  0  0  0  0  0  0  0
  -13.7562  -25.0216   25.0607 H   0  0  0  0  0  0  0  0  0  0  0  0
  -12.4322  -22.1693   26.3656 H   0  0  0  0  0  0  0  0  0  0  0  0
  -11.7671  -20.8476   28.3490 H   0  0  0  0  0  0  0  0  0  0  0  0
   -8.3145  -22.7084   32.1495 H   0  0  0  0  0  0  0  0  0  0  0  0
   -8.3825  -23.2973   34.4688 H   0  0  0  0  0  0  0  0  0  0  0  0
  -10.5114  -23.3012   35.7187 H   0  0  0  0  0  0  0  0  0  0  0  0
  -12.6148  -22.9239   34.5517 H   0  0  0  0  0  0  0  0  0  0  0  0
  -13.4941  -28.7306   30.5730 H   0  0  0  0  0  0  0  0  0  0  0  0
  -14.3689  -30.7477   31.6791 H   0  0  0  0  0  0  0  0  0  0  0  0
  -13.4360  -31.3271   33.9106 H   0  0  0  0  0  0  0  0  0  0  0  0
  -11.7266  -30.0113   34.8594 H   0  0  0  0  0  0  0  0  0  0  0  0
  1  2  2  0
  2  3  1  0
  3  4  1  0
  4  5  1  0
  5  6  1  0
  6  7  2  0
  7  8  1  0
  8  9  1  0
  4 10  1  0
 10 11  1  0
 11 12  1  0
  2 13  1  0
 13 14  1  0
 14 15  2  0
 15 16  1  0
 16 17  1  0
 17 18  1  0
 18 19  1  0
 19 20  2  0
 20 21  1  0
 21 22  2  0
 22 23  1  0
 23 24  2  0
 24 25  1  0
 25 26  1  0
 24 27  1  0
 27 28  2  0
 20 29  1  0
 29 30  2  0
 30 31  1  0
 31 32  2  0
 32 33  1  0
 33 34  2  0
 16 35  1  0
 35 36  2  0
 35 37  1  0
 37 38  2  0
 38 39  1  0
 39 40  2  0
 40 41  1  0
 41 42  2  0
 12  4  1  0
 42 14  1  0
  9  5  2  0
 34 18  1  0
 42 37  1  0
 28 21  1  0
 34 29  1  0
  3 43  1  0
  3 44  1  0
  6 45  1  0
  7 46  1  0
 10 47  1  0
 10 48  1  0
 11 49  1  0
 12 50  1  0
 12 51  1  0
 13 52  1  0
 15 53  1  0
 17 54  1  0
 17 55  1  0
 19 56  1  0
 22 57  1  0
 23 58  1  0
 25 59  1  0
 25 60  1  0
 26 61  1  0
 27 62  1  0
 28 63  1  0
 30 64  1  0
 31 65  1  0
 32 66  1  0
 33 67  1  0
 38 68  1  0
 39 69  1  0
 40 70  1  0
 41 71  1  0
M  END
>  <Energy>  (68) 
488.85595653818456

>  <compound_id>  (68) 
419

>  <target_id>  (68) 
1

>  <reference_id>  (68) 
52

>  <inspiration_ids>  (68) 
[52, 115]

>  <energy_score>  (68) 
338.57933925824284

>  <distance_score>  (68) 
1.990696648287131

>  <path>  (68) 
/opt/xchem-fragalysis-2/maxwin/BulkDock/SCRATCH/505733/C419-P52/C419-P52.minimised.mol

>  <scratch_subdir>  (68) 
/opt/xchem-fragalysis-2/maxwin/BulkDock/SCRATCH/505733/C419-P52

>  <fragmenstein_runtime>  (68) 
33.938005208969116

>  <fragmenstein_outcome>  (68) 
too moved

>  <fragmenstein_mode>  (68) 
expansion

>  <fragmenstein_error>  (68) 


$$$$
C419-P115
     RDKit          3D

 71 77  0  0  0  0  0  0  0  0999 V2000
  -10.7456  -26.5901   35.9332 O   0  0  0  0  0  0  0  0  0  0  0  0
  -10.9141  -25.4454   36.2600 C   0  0  0  0  0  0  0  0  0  0  0  0
  -10.1895  -24.7661   37.6026 C   0  0  0  0  0  0  0  0  0  0  0  0
   -8.5055  -25.6009   39.0915 C   0  0  0  0  0  0  0  0  0  0  0  0
   -9.4509  -27.5097   39.7281 C   0  0  0  0  0  0  0  0  0  0  0  0
  -10.0108  -28.7921   38.8126 C   0  0  0  0  0  0  0  0  0  0  0  0
  -11.1725  -29.2009   39.3622 C   0  0  0  0  0  0  0  0  0  0  0  0
  -11.3863  -28.4150   40.4085 O   0  0  0  0  0  0  0  0  0  0  0  0
  -10.3200  -27.6346   40.7738 N   0  0  0  0  0  0  0  0  0  0  0  0
   -7.8402  -24.6385   40.2523 C   0  0  0  0  0  0  0  0  0  0  0  0
   -6.5874  -24.8320   39.4847 N   0  0  0  0  0  0  0  0  0  0  0  0
   -7.1358  -26.2046   39.1938 C   0  0  0  0  0  0  0  0  0  0  0  0
  -11.6540  -24.3437   35.5851 N   0  0  0  0  0  0  0  0  0  0  0  0
  -12.2636  -24.2971   34.3702 C   0  0  0  0  0  0  0  0  0  0  0  0
  -11.5249  -25.1565   33.6291 C   0  0  0  0  0  0  0  0  0  0  0  0
  -10.8367  -24.5082   32.6702 N   0  0  0  0  0  0  0  0  0  0  0  0
  -10.0791  -23.3889   33.3061 C   0  0  0  0  0  0  0  0  0  0  0  0
  -10.7453  -22.0170   33.5542 N   0  0  0  0  0  0  0  0  0  0  0  0
  -11.3483  -21.1484   32.5404 C   0  0  0  0  0  0  0  0  0  0  0  0
  -10.4025  -21.4002   31.6305 C   0  0  0  0  0  0  0  0  0  0  0  0
  -10.9047  -22.1717   30.1623 C   0  0  0  0  0  0  0  0  0  0  0  0
  -10.7442  -23.6114   29.7324 C   0  0  0  0  0  0  0  0  0  0  0  0
  -10.9898  -24.2824   28.5187 C   0  0  0  0  0  0  0  0  0  0  0  0
  -11.4441  -23.5468   27.4856 C   0  0  0  0  0  0  0  0  0  0  0  0
  -11.7256  -24.1947   26.1582 C   0  0  0  0  0  0  0  0  0  0  0  0
  -12.9017  -23.7442   25.4994 O   0  0  0  0  0  0  0  0  0  0  0  0
  -11.5900  -22.1977   27.7953 C   0  0  0  0  0  0  0  0  0  0  0  0
  -11.4613  -21.5571   29.0930 C   0  0  0  0  0  0  0  0  0  0  0  0
   -9.3479  -20.9406   32.9226 C   0  0  0  0  0  0  0  0  0  0  0  0
   -8.0645  -20.8019   33.4458 C   0  0  0  0  0  0  0  0  0  0  0  0
   -7.9799  -19.6602   34.3099 C   0  0  0  0  0  0  0  0  0  0  0  0
   -8.9621  -19.3846   35.2357 C   0  0  0  0  0  0  0  0  0  0  0  0
  -10.0199  -20.2487   35.2633 C   0  0  0  0  0  0  0  0  0  0  0  0
  -10.0861  -21.0085   34.1099 C   0  0  0  0  0  0  0  0  0  0  0  0
  -11.8302  -24.3091   31.7500 C   0  0  0  0  0  0  0  0  0  0  0  0
  -12.0730  -25.2075   30.9328 O   0  0  0  0  0  0  0  0  0  0  0  0
  -12.6890  -23.1048   32.1002 C   0  0  0  0  0  0  0  0  0  0  0  0
  -13.4638  -22.2685   31.1751 C   0  0  0  0  0  0  0  0  0  0  0  0
  -14.6152  -21.5664   31.5730 C   0  0  0  0  0  0  0  0  0  0  0  0
  -14.6582  -21.1880   32.8678 C   0  0  0  0  0  0  0  0  0  0  0  0
  -13.6793  -21.7762   33.6868 C   0  0  0  0  0  0  0  0  0  0  0  0
  -12.8718  -22.9881   33.4659 C   0  0  0  0  0  0  0  0  0  0  0  0
  -11.2676  -24.5450   38.0601 H   0  0  0  0  0  0  0  0  0  0  0  0
  -10.0561  -23.7231   37.0729 H   0  0  0  0  0  0  0  0  0  0  0  0
   -9.5723  -29.1669   37.8808 H   0  0  0  0  0  0  0  0  0  0  0  0
  -11.9195  -29.9392   39.1142 H   0  0  0  0  0  0  0  0  0  0  0  0
   -8.1808  -25.0373   41.1943 H   0  0  0  0  0  0  0  0  0  0  0  0
   -7.9324  -23.5554   40.3831 H   0  0  0  0  0  0  0  0  0  0  0  0
   -6.4632  -24.1938   38.7136 H   0  0  0  0  0  0  0  0  0  0  0  0
   -7.0386  -26.8711   38.3458 H   0  0  0  0  0  0  0  0  0  0  0  0
   -6.9105  -26.8268   40.0304 H   0  0  0  0  0  0  0  0  0  0  0  0
  -11.6605  -23.5508   36.1713 H   0  0  0  0  0  0  0  0  0  0  0  0
  -10.9426  -26.0122   33.9281 H   0  0  0  0  0  0  0  0  0  0  0  0
   -9.6927  -23.6787   34.2956 H   0  0  0  0  0  0  0  0  0  0  0  0
   -9.1660  -23.3188   32.7413 H   0  0  0  0  0  0  0  0  0  0  0  0
  -11.7129  -20.1972   32.9147 H   0  0  0  0  0  0  0  0  0  0  0  0
  -10.1661  -24.2980   30.3797 H   0  0  0  0  0  0  0  0  0  0  0  0
  -10.7854  -25.3457   28.4402 H   0  0  0  0  0  0  0  0  0  0  0  0
  -11.8510  -25.2754   26.2913 H   0  0  0  0  0  0  0  0  0  0  0  0
  -10.8818  -24.0661   25.4791 H   0  0  0  0  0  0  0  0  0  0  0  0
  -13.0482  -22.8073   25.7458 H   0  0  0  0  0  0  0  0  0  0  0  0
  -11.7802  -21.5614   26.9525 H   0  0  0  0  0  0  0  0  0  0  0  0
  -11.8723  -20.5793   29.1891 H   0  0  0  0  0  0  0  0  0  0  0  0
   -7.1648  -21.1286   32.9434 H   0  0  0  0  0  0  0  0  0  0  0  0
   -7.0804  -19.0471   34.2910 H   0  0  0  0  0  0  0  0  0  0  0  0
   -8.8409  -18.5950   35.9677 H   0  0  0  0  0  0  0  0  0  0  0  0
  -10.7580  -20.2330   36.0359 H   0  0  0  0  0  0  0  0  0  0  0  0
  -13.3550  -22.5054   30.1273 H   0  0  0  0  0  0  0  0  0  0  0  0
  -15.3483  -21.1985   30.8701 H   0  0  0  0  0  0  0  0  0  0  0  0
  -15.3043  -20.3970   33.2296 H   0  0  0  0  0  0  0  0  0  0  0  0
  -13.1709  -20.9374   34.1329 H   0  0  0  0  0  0  0  0  0  0  0  0
  1  2  2  0
  2  3  1  0
  3  4  1  0
  4  5  1  0
  5  6  1  0
  6  7  2  0
  7  8  1  0
  8  9  1  0
  4 10  1  0
 10 11  1  0
 11 12  1  0
  2 13  1  0
 13 14  1  0
 14 15  2  0
 15 16  1  0
 16 17  1  0
 17 18  1  0
 18 19  1  0
 19 20  2  0
 20 21  1  0
 21 22  2  0
 22 23  1  0
 23 24  2  0
 24 25  1  0
 25 26  1  0
 24 27  1  0
 27 28  2  0
 20 29  1  0
 29 30  2  0
 30 31  1  0
 31 32  2  0
 32 33  1  0
 33 34  2  0
 16 35  1  0
 35 36  2  0
 35 37  1  0
 37 38  2  0
 38 39  1  0
 39 40  2  0
 40 41  1  0
 41 42  2  0
 12  4  1  0
 42 14  1  0
  9  5  2  0
 34 18  1  0
 42 37  1  0
 28 21  1  0
 34 29  1  0
  3 43  1  0
  3 44  1  0
  6 45  1  0
  7 46  1  0
 10 47  1  0
 10 48  1  0
 11 49  1  0
 12 50  1  0
 12 51  1  0
 13 52  1  0
 15 53  1  0
 17 54  1  0
 17 55  1  0
 19 56  1  0
 22 57  1  0
 23 58  1  0
 25 59  1  0
 25 60  1  0
 26 61  1  0
 27 62  1  0
 28 63  1  0
 30 64  1  0
 31 65  1  0
 32 66  1  0
 33 67  1  0
 38 68  1  0
 39 69  1  0
 40 70  1  0
 41 71  1  0
M  END
>  <Energy>  (69) 
1173.0999354651217

>  <compound_id>  (69) 
419

>  <target_id>  (69) 
1

>  <reference_id>  (69) 
115

>  <inspiration_ids>  (69) 
[52, 115]

>  <energy_score>  (69) 
1022.8233181851781

>  <distance_score>  (69) 
2.651728873170588

>  <path>  (69) 
/opt/xchem-fragalysis-2/maxwin/BulkDock/SCRATCH/505733/C419-P115/C419-P115.minimised.mol

>  <scratch_subdir>  (69) 
/opt/xchem-fragalysis-2/maxwin/BulkDock/SCRATCH/505733/C419-P115

>  <fragmenstein_runtime>  (69) 
31.76365351676941

>  <fragmenstein_outcome>  (69) 
too moved

>  <fragmenstein_mode>  (69) 
expansion

>  <fragmenstein_error>  (69) 


$$$$
C421-P52
     RDKit          3D

 63 66  0  0  0  0  0  0  0  0999 V2000
   -7.5994  -28.8660   23.4026 C   0  0  0  0  0  0  0  0  0  0  0  0
   -9.0347  -28.1135   23.9668 C   0  0  0  0  0  0  0  0  0  0  0  0
  -10.0696  -26.3872   25.4399 S   0  0  0  0  0  0  0  0  0  0  0  0
   -9.9470  -24.9524   25.2503 O   0  0  0  0  0  0  0  0  0  0  0  0
  -11.5398  -26.4888   25.2318 O   0  0  0  0  0  0  0  0  0  0  0  0
   -9.8003  -26.6259   27.0691 N   0  0  0  0  0  0  0  0  0  0  0  0
  -10.9080  -26.1805   27.9261 C   0  0  0  0  0  0  0  0  0  0  0  0
  -10.6446  -24.9251   28.7316 C   0  0  0  0  0  0  0  0  0  0  0  0
   -9.6133  -25.0576   29.8432 C   0  0  0  0  0  0  0  0  0  0  0  0
   -9.3905  -23.7742   30.6643 C   0  0  0  0  0  0  0  0  0  0  0  0
  -10.5821  -22.7371   30.5599 C   0  0  0  0  0  0  0  0  0  0  0  0
  -11.7643  -23.5219   31.0582 C   0  0  0  0  0  0  0  0  0  0  0  0
  -11.6197  -23.3866   32.6065 C   0  0  0  0  0  0  0  0  0  0  0  0
  -10.5666  -22.3568   32.9559 C   0  0  0  0  0  0  0  0  0  0  0  0
  -10.7062  -21.5119   31.7193 C   0  0  0  0  0  0  0  0  0  0  0  0
  -12.0435  -20.7242   31.9774 C   0  0  0  0  0  0  0  0  0  0  0  0
  -12.9225  -20.8523   31.1872 O   0  0  0  0  0  0  0  0  0  0  0  0
  -12.0056  -20.0219   33.2299 N   0  0  0  0  0  0  0  0  0  0  0  0
  -12.9988  -19.3679   33.9296 C   0  0  0  0  0  0  0  0  0  0  0  0
  -12.6745  -18.3549   34.8119 C   0  0  0  0  0  0  0  0  0  0  0  0
  -13.7060  -17.5993   35.3540 C   0  0  0  0  0  0  0  0  0  0  0  0
  -15.0249  -17.9262   35.0540 C   0  0  0  0  0  0  0  0  0  0  0  0
  -15.2688  -18.9799   34.1867 C   0  0  0  0  0  0  0  0  0  0  0  0
  -16.6683  -19.3857   33.8408 C   0  0  0  0  0  0  0  0  0  0  0  0
  -14.2680  -19.6605   33.6005 N   0  0  0  0  0  0  0  0  0  0  0  0
  -13.0037  -23.1783   30.2025 C   0  0  0  0  0  0  0  0  0  0  0  0
  -12.8852  -22.6324   28.8975 O   0  0  0  0  0  0  0  0  0  0  0  0
  -11.8763  -21.6855   28.6760 C   0  0  0  0  0  0  0  0  0  0  0  0
  -10.6055  -22.3692   29.0255 C   0  0  0  0  0  0  0  0  0  0  0  0
  -10.4606  -23.5877   28.0391 C   0  0  0  0  0  0  0  0  0  0  0  0
   -6.8621  -29.1488   24.1805 H   0  0  0  0  0  0  0  0  0  0  0  0
   -7.9140  -29.8473   23.0147 H   0  0  0  0  0  0  0  0  0  0  0  0
   -7.0483  -28.4360   22.5759 H   0  0  0  0  0  0  0  0  0  0  0  0
   -9.3848  -29.1152   24.0762 H   0  0  0  0  0  0  0  0  0  0  0  0
   -8.3631  -28.6020   24.9142 H   0  0  0  0  0  0  0  0  0  0  0  0
   -8.8750  -26.3617   27.3989 H   0  0  0  0  0  0  0  0  0  0  0  0
  -11.1328  -27.0072   28.6132 H   0  0  0  0  0  0  0  0  0  0  0  0
  -11.8480  -26.0470   27.3828 H   0  0  0  0  0  0  0  0  0  0  0  0
  -11.6272  -24.8748   29.1723 H   0  0  0  0  0  0  0  0  0  0  0  0
   -9.9298  -25.8461   30.5308 H   0  0  0  0  0  0  0  0  0  0  0  0
   -8.6497  -25.3446   29.4186 H   0  0  0  0  0  0  0  0  0  0  0  0
   -9.1449  -24.0838   31.6820 H   0  0  0  0  0  0  0  0  0  0  0  0
   -8.4749  -23.3545   30.2682 H   0  0  0  0  0  0  0  0  0  0  0  0
  -11.6931  -24.6097   30.9929 H   0  0  0  0  0  0  0  0  0  0  0  0
  -12.5517  -23.1134   33.0878 H   0  0  0  0  0  0  0  0  0  0  0  0
  -11.1790  -24.2901   33.0223 H   0  0  0  0  0  0  0  0  0  0  0  0
  -10.7948  -21.9259   33.9320 H   0  0  0  0  0  0  0  0  0  0  0  0
   -9.5580  -22.7617   33.0688 H   0  0  0  0  0  0  0  0  0  0  0  0
   -9.9971  -20.7060   31.6562 H   0  0  0  0  0  0  0  0  0  0  0  0
  -11.0729  -20.0541   33.5954 H   0  0  0  0  0  0  0  0  0  0  0  0
  -11.6527  -18.0801   35.0130 H   0  0  0  0  0  0  0  0  0  0  0  0
  -13.4833  -16.7683   36.0176 H   0  0  0  0  0  0  0  0  0  0  0  0
  -15.8448  -17.3706   35.4978 H   0  0  0  0  0  0  0  0  0  0  0  0
  -17.2036  -18.5460   33.3868 H   0  0  0  0  0  0  0  0  0  0  0  0
  -16.6697  -20.2150   33.1263 H   0  0  0  0  0  0  0  0  0  0  0  0
  -17.2010  -19.7084   34.7406 H   0  0  0  0  0  0  0  0  0  0  0  0
  -13.4107  -24.1418   29.8954 H   0  0  0  0  0  0  0  0  0  0  0  0
  -13.7830  -22.6482   30.7379 H   0  0  0  0  0  0  0  0  0  0  0  0
  -12.0153  -20.7458   29.2060 H   0  0  0  0  0  0  0  0  0  0  0  0
  -11.8846  -21.4259   27.6120 H   0  0  0  0  0  0  0  0  0  0  0  0
   -9.8050  -21.6735   28.7653 H   0  0  0  0  0  0  0  0  0  0  0  0
   -9.4737  -23.5218   27.5953 H   0  0  0  0  0  0  0  0  0  0  0  0
  -11.1560  -23.5061   27.1945 H   0  0  0  0  0  0  0  0  0  0  0  0
  1  2  1  0
  2  3  1  0
  3  4  2  0
  3  5  2  0
  3  6  1  0
  6  7  1  0
  7  8  1  0
  8  9  1  0
  9 10  1  0
 10 11  1  0
 11 12  1  0
 12 13  1  0
 13 14  1  0
 14 15  1  0
 15 16  1  0
 16 17  2  0
 16 18  1  0
 18 19  1  0
 19 20  2  0
 20 21  1  0
 21 22  2  0
 22 23  1  0
 23 24  1  0
 23 25  2  0
 12 26  1  0
 26 27  1  0
 27 28  1  0
 28 29  1  0
 29 30  1  0
 30  8  1  0
 15 11  1  0
 25 19  1  0
 29 11  1  0
  1 31  1  0
  1 32  1  0
  1 33  1  0
  2 34  1  0
  2 35  1  0
  6 36  1  0
  7 37  1  0
  7 38  1  0
  8 39  1  0
  9 40  1  0
  9 41  1  0
 10 42  1  0
 10 43  1  0
 12 44  1  0
 13 45  1  0
 13 46  1  0
 14 47  1  0
 14 48  1  0
 15 49  1  0
 18 50  1  0
 20 51  1  0
 21 52  1  0
 22 53  1  0
 24 54  1  0
 24 55  1  0
 24 56  1  0
 26 57  1  0
 26 58  1  0
 28 59  1  0
 28 60  1  0
 29 61  1  0
 30 62  1  0
 30 63  1  0
M  END
>  <Energy>  (70) 
336.12278879901504

>  <compound_id>  (70) 
421

>  <target_id>  (70) 
1

>  <reference_id>  (70) 
52

>  <inspiration_ids>  (70) 
[52, 123]

>  <energy_score>  (70) 
302.37474088475545

>  <distance_score>  (70) 
3.9189147979035948

>  <path>  (70) 
/opt/xchem-fragalysis-2/maxwin/BulkDock/SCRATCH/505733/C421-P52/C421-P52.minimised.mol

>  <scratch_subdir>  (70) 
/opt/xchem-fragalysis-2/maxwin/BulkDock/SCRATCH/505733/C421-P52

>  <fragmenstein_runtime>  (70) 
15.407423973083496

>  <fragmenstein_outcome>  (70) 
too moved

>  <fragmenstein_mode>  (70) 
expansion

>  <fragmenstein_error>  (70) 


$$$$
C421-P123
     RDKit          3D

 63 66  0  0  0  0  0  0  0  0999 V2000
  -15.8683  -27.5888   26.0255 C   0  0  0  0  0  0  0  0  0  0  0  0
  -15.5558  -26.1044   26.0109 C   0  0  0  0  0  0  0  0  0  0  0  0
  -14.2483  -25.7215   24.8737 S   0  0  0  0  0  0  0  0  0  0  0  0
  -13.0910  -26.5620   25.0844 O   0  0  0  0  0  0  0  0  0  0  0  0
  -14.9116  -25.7543   23.5955 O   0  0  0  0  0  0  0  0  0  0  0  0
  -13.8153  -24.1120   25.1132 N   0  0  0  0  0  0  0  0  0  0  0  0
  -12.3851  -23.6604   25.3437 C   0  0  0  0  0  0  0  0  0  0  0  0
  -11.8993  -24.1122   26.6907 C   0  0  0  0  0  0  0  0  0  0  0  0
  -10.6463  -24.9293   26.7243 C   0  0  0  0  0  0  0  0  0  0  0  0
  -10.0161  -25.1274   28.1193 C   0  0  0  0  0  0  0  0  0  0  0  0
  -10.9952  -25.2486   29.2540 C   0  0  0  0  0  0  0  0  0  0  0  0
  -11.7144  -26.5935   29.0333 C   0  0  0  0  0  0  0  0  0  0  0  0
  -11.8288  -27.2386   30.3813 C   0  0  0  0  0  0  0  0  0  0  0  0
  -10.5298  -26.9433   31.0610 C   0  0  0  0  0  0  0  0  0  0  0  0
  -10.1966  -25.5246   30.6303 C   0  0  0  0  0  0  0  0  0  0  0  0
  -10.4678  -24.6566   31.8509 C   0  0  0  0  0  0  0  0  0  0  0  0
   -9.5732  -24.1980   32.4948 O   0  0  0  0  0  0  0  0  0  0  0  0
  -11.8631  -24.4732   31.9461 N   0  0  0  0  0  0  0  0  0  0  0  0
  -12.5972  -23.6596   32.7262 C   0  0  0  0  0  0  0  0  0  0  0  0
  -12.4485  -23.6313   34.0630 C   0  0  0  0  0  0  0  0  0  0  0  0
  -12.7184  -22.4252   34.6797 C   0  0  0  0  0  0  0  0  0  0  0  0
  -12.7414  -21.2766   33.9122 C   0  0  0  0  0  0  0  0  0  0  0  0
  -12.5445  -21.4938   32.5714 C   0  0  0  0  0  0  0  0  0  0  0  0
  -11.2413  -21.1089   31.9265 C   0  0  0  0  0  0  0  0  0  0  0  0
  -12.9856  -22.6026   32.0259 N   0  0  0  0  0  0  0  0  0  0  0  0
  -13.0309  -26.5683   28.3342 C   0  0  0  0  0  0  0  0  0  0  0  0
  -13.7851  -25.3679   28.4328 O   0  0  0  0  0  0  0  0  0  0  0  0
  -13.2972  -24.2757   29.1963 C   0  0  0  0  0  0  0  0  0  0  0  0
  -11.8462  -23.9373   29.1128 C   0  0  0  0  0  0  0  0  0  0  0  0
  -11.7601  -23.1223   27.8090 C   0  0  0  0  0  0  0  0  0  0  0  0
  -16.7004  -27.7947   26.7056 H   0  0  0  0  0  0  0  0  0  0  0  0
  -16.1455  -27.9441   25.0277 H   0  0  0  0  0  0  0  0  0  0  0  0
  -15.0040  -28.1718   26.3585 H   0  0  0  0  0  0  0  0  0  0  0  0
  -16.4344  -25.5493   25.6691 H   0  0  0  0  0  0  0  0  0  0  0  0
  -15.2935  -25.7730   26.9982 H   0  0  0  0  0  0  0  0  0  0  0  0
  -14.3247  -23.4484   24.5268 H   0  0  0  0  0  0  0  0  0  0  0  0
  -12.3463  -22.5822   25.2449 H   0  0  0  0  0  0  0  0  0  0  0  0
  -11.6961  -23.9969   24.5779 H   0  0  0  0  0  0  0  0  0  0  0  0
  -12.6666  -24.8007   26.9210 H   0  0  0  0  0  0  0  0  0  0  0  0
  -10.8324  -25.9016   26.2569 H   0  0  0  0  0  0  0  0  0  0  0  0
   -9.9489  -24.3522   26.1315 H   0  0  0  0  0  0  0  0  0  0  0  0
   -9.3610  -26.0045   28.1153 H   0  0  0  0  0  0  0  0  0  0  0  0
   -9.4207  -24.2424   28.3621 H   0  0  0  0  0  0  0  0  0  0  0  0
  -11.0803  -27.2598   28.4475 H   0  0  0  0  0  0  0  0  0  0  0  0
  -12.6115  -26.7591   30.9320 H   0  0  0  0  0  0  0  0  0  0  0  0
  -12.1087  -28.2870   30.3531 H   0  0  0  0  0  0  0  0  0  0  0  0
   -9.7262  -27.6016   30.7515 H   0  0  0  0  0  0  0  0  0  0  0  0
  -10.6785  -27.0590   32.1336 H   0  0  0  0  0  0  0  0  0  0  0  0
   -9.1235  -25.4260   30.4453 H   0  0  0  0  0  0  0  0  0  0  0  0
  -12.3112  -25.0727   31.3010 H   0  0  0  0  0  0  0  0  0  0  0  0
  -12.0182  -24.4816   34.5629 H   0  0  0  0  0  0  0  0  0  0  0  0
  -12.5974  -22.3627   35.7451 H   0  0  0  0  0  0  0  0  0  0  0  0
  -12.5508  -20.3178   34.3802 H   0  0  0  0  0  0  0  0  0  0  0  0
  -10.7768  -20.2554   32.4131 H   0  0  0  0  0  0  0  0  0  0  0  0
  -11.3614  -21.0011   30.8474 H   0  0  0  0  0  0  0  0  0  0  0  0
  -10.5462  -21.9370   32.0039 H   0  0  0  0  0  0  0  0  0  0  0  0
  -13.6581  -27.4235   28.6080 H   0  0  0  0  0  0  0  0  0  0  0  0
  -12.8490  -26.7704   27.2848 H   0  0  0  0  0  0  0  0  0  0  0  0
  -13.4641  -24.4598   30.2143 H   0  0  0  0  0  0  0  0  0  0  0  0
  -13.9288  -23.4257   28.9710 H   0  0  0  0  0  0  0  0  0  0  0  0
  -11.5652  -23.2180   29.8821 H   0  0  0  0  0  0  0  0  0  0  0  0
  -10.8202  -22.5723   27.7875 H   0  0  0  0  0  0  0  0  0  0  0  0
  -12.5325  -22.3594   27.7787 H   0  0  0  0  0  0  0  0  0  0  0  0
  1  2  1  0
  2  3  1  0
  3  4  2  0
  3  5  2  0
  3  6  1  0
  6  7  1  0
  7  8  1  0
  8  9  1  0
  9 10  1  0
 10 11  1  0
 11 12  1  0
 12 13  1  0
 13 14  1  0
 14 15  1  0
 15 16  1  0
 16 17  2  0
 16 18  1  0
 18 19  1  0
 19 20  2  0
 20 21  1  0
 21 22  2  0
 22 23  1  0
 23 24  1  0
 23 25  2  0
 12 26  1  0
 26 27  1  0
 27 28  1  0
 28 29  1  0
 29 30  1  0
 30  8  1  0
 15 11  1  0
 25 19  1  0
 29 11  1  0
  1 31  1  0
  1 32  1  0
  1 33  1  0
  2 34  1  0
  2 35  1  0
  6 36  1  0
  7 37  1  0
  7 38  1  0
  8 39  1  0
  9 40  1  0
  9 41  1  0
 10 42  1  0
 10 43  1  0
 12 44  1  0
 13 45  1  0
 13 46  1  0
 14 47  1  0
 14 48  1  0
 15 49  1  0
 18 50  1  0
 20 51  1  0
 21 52  1  0
 22 53  1  0
 24 54  1  0
 24 55  1  0
 24 56  1  0
 26 57  1  0
 26 58  1  0
 28 59  1  0
 28 60  1  0
 29 61  1  0
 30 62  1  0
 30 63  1  0
M  END
>  <Energy>  (71) 
110.80594547976817

>  <compound_id>  (71) 
421

>  <target_id>  (71) 
1

>  <reference_id>  (71) 
123

>  <inspiration_ids>  (71) 
[52, 123]

>  <energy_score>  (71) 
77.05789756551016

>  <distance_score>  (71) 
3.077915200318643

>  <path>  (71) 
/opt/xchem-fragalysis-2/maxwin/BulkDock/SCRATCH/505733/C421-P123/C421-P123.minimised.mol

>  <scratch_subdir>  (71) 
/opt/xchem-fragalysis-2/maxwin/BulkDock/SCRATCH/505733/C421-P123

>  <fragmenstein_runtime>  (71) 
19.51813578605652

>  <fragmenstein_outcome>  (71) 
too moved

>  <fragmenstein_mode>  (71) 
expansion

>  <fragmenstein_error>  (71) 


$$$$
C423-P52
     RDKit          3D

 31 32  0  0  0  0  0  0  0  0999 V2000
  -11.1932  -22.6681   30.2926 C   0  0  0  0  0  0  0  0  0  0  0  0
  -11.4906  -22.3193   31.7024 C   0  0  0  0  0  0  0  0  0  0  0  0
  -10.7597  -22.9110   32.7238 C   0  0  0  0  0  0  0  0  0  0  0  0
  -11.1960  -22.7003   34.0143 C   0  0  0  0  0  0  0  0  0  0  0  0
  -12.3553  -21.9474   34.2248 C   0  0  0  0  0  0  0  0  0  0  0  0
  -13.0306  -21.3810   33.1495 C   0  0  0  0  0  0  0  0  0  0  0  0
  -14.3006  -20.8134   33.2702 N   0  0  0  0  0  0  0  0  0  0  0  0
  -15.3090  -20.8208   34.4717 C   0  0  0  0  0  0  0  0  0  0  0  0
  -15.1886  -21.2388   35.5641 O   0  0  0  0  0  0  0  0  0  0  0  0
  -16.6967  -20.1751   34.0212 C   0  0  0  0  0  0  0  0  0  0  0  0
  -17.2906  -20.4715   32.6409 C   0  0  0  0  0  0  0  0  0  0  0  0
  -18.5887  -21.2190   32.8869 C   0  0  0  0  0  0  0  0  0  0  0  0
  -19.0506  -20.5879   34.1838 C   0  0  0  0  0  0  0  0  0  0  0  0
  -17.8252  -20.4917   35.0011 N   0  0  0  0  0  0  0  0  0  0  0  0
  -17.6769  -21.8788   35.4499 O   0  0  0  0  0  0  0  0  0  0  0  0
  -12.5715  -21.5143   31.8880 N   0  0  0  0  0  0  0  0  0  0  0  0
  -11.1393  -21.7628   29.6791 H   0  0  0  0  0  0  0  0  0  0  0  0
  -10.2499  -23.2126   30.1855 H   0  0  0  0  0  0  0  0  0  0  0  0
  -11.9898  -23.3056   29.8944 H   0  0  0  0  0  0  0  0  0  0  0  0
   -9.8988  -23.5403   32.5260 H   0  0  0  0  0  0  0  0  0  0  0  0
  -10.6935  -23.1553   34.8602 H   0  0  0  0  0  0  0  0  0  0  0  0
  -12.7631  -21.8655   35.2223 H   0  0  0  0  0  0  0  0  0  0  0  0
  -14.7558  -20.4491   32.4512 H   0  0  0  0  0  0  0  0  0  0  0  0
  -16.5227  -19.0926   34.0911 H   0  0  0  0  0  0  0  0  0  0  0  0
  -17.5348  -19.5136   32.1615 H   0  0  0  0  0  0  0  0  0  0  0  0
  -16.6372  -20.9817   31.9484 H   0  0  0  0  0  0  0  0  0  0  0  0
  -18.4113  -22.2938   32.9998 H   0  0  0  0  0  0  0  0  0  0  0  0
  -19.3063  -21.0712   32.0745 H   0  0  0  0  0  0  0  0  0  0  0  0
  -19.8457  -21.1621   34.6722 H   0  0  0  0  0  0  0  0  0  0  0  0
  -19.4392  -19.5780   34.0042 H   0  0  0  0  0  0  0  0  0  0  0  0
  -16.8347  -21.8557   35.9590 H   0  0  0  0  0  0  0  0  0  0  0  0
  1  2  1  0
  2  3  2  0
  3  4  1  0
  4  5  2  0
  5  6  1  0
  6  7  1  0
  7  8  1  0
  8  9  2  0
  8 10  1  0
 10 11  1  0
 11 12  1  0
 12 13  1  0
 13 14  1  0
 14 15  1  0
  6 16  2  0
 16  2  1  0
 14 10  1  0
  1 17  1  0
  1 18  1  0
  1 19  1  0
  3 20  1  0
  4 21  1  0
  5 22  1  0
  7 23  1  0
 10 24  1  0
 11 25  1  0
 11 26  1  0
 12 27  1  0
 12 28  1  0
 13 29  1  0
 13 30  1  0
 15 31  1  0
M  END
>  <Energy>  (72) 
59.471426102969808

>  <compound_id>  (72) 
423

>  <target_id>  (72) 
1

>  <reference_id>  (72) 
52

>  <inspiration_ids>  (72) 
[52, 173]

>  <energy_score>  (72) 
2.77070453733495

>  <distance_score>  (72) 
2.460964157123708

>  <path>  (72) 
/opt/xchem-fragalysis-2/maxwin/BulkDock/SCRATCH/505733/C423-P52/C423-P52.minimised.mol

>  <scratch_subdir>  (72) 
/opt/xchem-fragalysis-2/maxwin/BulkDock/SCRATCH/505733/C423-P52

>  <fragmenstein_runtime>  (72) 
4.924829483032227

>  <fragmenstein_outcome>  (72) 
too moved

>  <fragmenstein_mode>  (72) 
expansion

>  <fragmenstein_error>  (72) 


$$$$
C423-P173
     RDKit          3D

 31 32  0  0  0  0  0  0  0  0999 V2000
  -12.1862  -22.6511   30.2827 C   0  0  0  0  0  0  0  0  0  0  0  0
  -12.6364  -22.3067   31.6461 C   0  0  0  0  0  0  0  0  0  0  0  0
  -11.7734  -21.9837   32.6727 C   0  0  0  0  0  0  0  0  0  0  0  0
  -12.2894  -21.6397   33.9157 C   0  0  0  0  0  0  0  0  0  0  0  0
  -13.6603  -21.6824   34.1060 C   0  0  0  0  0  0  0  0  0  0  0  0
  -14.4519  -21.9714   33.0081 C   0  0  0  0  0  0  0  0  0  0  0  0
  -15.8194  -21.8939   33.0016 N   0  0  0  0  0  0  0  0  0  0  0  0
  -16.8289  -21.7886   34.1758 C   0  0  0  0  0  0  0  0  0  0  0  0
  -16.6451  -21.6742   35.3261 O   0  0  0  0  0  0  0  0  0  0  0  0
  -18.2358  -21.7542   33.5125 C   0  0  0  0  0  0  0  0  0  0  0  0
  -18.5492  -23.0358   32.7293 C   0  0  0  0  0  0  0  0  0  0  0  0
  -19.5142  -23.8354   33.6047 C   0  0  0  0  0  0  0  0  0  0  0  0
  -19.5880  -23.0767   34.9156 C   0  0  0  0  0  0  0  0  0  0  0  0
  -19.3611  -21.7087   34.4699 N   0  0  0  0  0  0  0  0  0  0  0  0
  -19.0922  -20.8878   35.6307 O   0  0  0  0  0  0  0  0  0  0  0  0
  -13.9669  -22.2644   31.7938 N   0  0  0  0  0  0  0  0  0  0  0  0
  -11.6581  -23.6000   30.2543 H   0  0  0  0  0  0  0  0  0  0  0  0
  -11.5808  -21.8481   29.8553 H   0  0  0  0  0  0  0  0  0  0  0  0
  -13.0427  -22.7773   29.6119 H   0  0  0  0  0  0  0  0  0  0  0  0
  -10.7062  -22.0771   32.5845 H   0  0  0  0  0  0  0  0  0  0  0  0
  -11.6174  -21.4164   34.7387 H   0  0  0  0  0  0  0  0  0  0  0  0
  -14.0879  -21.4453   35.0716 H   0  0  0  0  0  0  0  0  0  0  0  0
  -16.3204  -22.0671   32.1392 H   0  0  0  0  0  0  0  0  0  0  0  0
  -18.2728  -20.8730   32.8614 H   0  0  0  0  0  0  0  0  0  0  0  0
  -19.0335  -22.7973   31.7748 H   0  0  0  0  0  0  0  0  0  0  0  0
  -17.6694  -23.6491   32.5114 H   0  0  0  0  0  0  0  0  0  0  0  0
  -19.1740  -24.8655   33.7510 H   0  0  0  0  0  0  0  0  0  0  0  0
  -20.4998  -23.8744   33.1248 H   0  0  0  0  0  0  0  0  0  0  0  0
  -18.8103  -23.4235   35.6066 H   0  0  0  0  0  0  0  0  0  0  0  0
  -20.5631  -23.1967   35.3972 H   0  0  0  0  0  0  0  0  0  0  0  0
  -18.1716  -21.0905   35.9086 H   0  0  0  0  0  0  0  0  0  0  0  0
  1  2  1  0
  2  3  2  0
  3  4  1  0
  4  5  2  0
  5  6  1  0
  6  7  1  0
  7  8  1  0
  8  9  2  0
  8 10  1  0
 10 11  1  0
 11 12  1  0
 12 13  1  0
 13 14  1  0
 14 15  1  0
  6 16  2  0
 16  2  1  0
 14 10  1  0
  1 17  1  0
  1 18  1  0
  1 19  1  0
  3 20  1  0
  4 21  1  0
  5 22  1  0
  7 23  1  0
 10 24  1  0
 11 25  1  0
 11 26  1  0
 12 27  1  0
 12 28  1  0
 13 29  1  0
 13 30  1  0
 15 31  1  0
M  END
>  <Energy>  (73) 
54.752972545270758

>  <compound_id>  (73) 
423

>  <target_id>  (73) 
1

>  <reference_id>  (73) 
173

>  <inspiration_ids>  (73) 
[52, 173]

>  <energy_score>  (73) 
-1.9477490203626644

>  <distance_score>  (73) 
2.5778940396420027

>  <path>  (73) 
/opt/xchem-fragalysis-2/maxwin/BulkDock/SCRATCH/505733/C423-P173/C423-P173.minimised.mol

>  <scratch_subdir>  (73) 
/opt/xchem-fragalysis-2/maxwin/BulkDock/SCRATCH/505733/C423-P173

>  <fragmenstein_runtime>  (73) 
4.837529420852661

>  <fragmenstein_outcome>  (73) 
too moved

>  <fragmenstein_mode>  (73) 
expansion

>  <fragmenstein_error>  (73) 


$$$$
C424-P53
     RDKit          3D

 55 57  0  0  0  0  0  0  0  0999 V2000
   -5.3716   -0.7608   33.9181 C   0  0  0  0  0  0  0  0  0  0  0  0
   -4.0032   -0.9180   33.5335 O   0  0  0  0  0  0  0  0  0  0  0  0
   -3.2016   -1.2907   34.5734 C   0  0  0  0  0  0  0  0  0  0  0  0
   -3.5725   -1.3538   35.7422 O   0  0  0  0  0  0  0  0  0  0  0  0
   -1.7683   -1.5902   34.1464 C   0  0  0  0  0  0  0  0  0  0  0  0
   -1.4106   -1.3891   32.7578 N   0  0  0  0  0  0  0  0  0  0  0  0
   -1.6131   -2.2997   31.5288 C   0  0  0  0  0  0  0  0  0  0  0  0
   -2.1680   -3.3202   31.4279 O   0  0  0  0  0  0  0  0  0  0  0  0
   -0.8629   -1.7271   30.3868 C   0  0  0  0  0  0  0  0  0  0  0  0
   -0.7981   -0.3768   29.9540 C   0  0  0  0  0  0  0  0  0  0  0  0
    0.2379   -0.3559   29.0568 C   0  0  0  0  0  0  0  0  0  0  0  0
    0.9965    0.6936   28.3500 C   0  0  0  0  0  0  0  0  0  0  0  0
    0.3039    1.0634   27.0474 C   0  0  0  0  0  0  0  0  0  0  0  0
   -0.9715    1.7071   27.2631 N   0  0  0  0  0  0  0  0  0  0  0  0
   -1.8829    1.6792   26.1214 C   0  0  0  0  0  0  0  0  0  0  0  0
   -2.9882    2.6437   26.5066 C   0  0  0  0  0  0  0  0  0  0  0  0
   -2.4885    3.2351   27.8100 C   0  0  0  0  0  0  0  0  0  0  0  0
   -0.9954    3.0628   27.8236 C   0  0  0  0  0  0  0  0  0  0  0  0
   -0.2312    4.1157   26.9771 C   0  0  0  0  0  0  0  0  0  0  0  0
   -0.7038    4.7671   26.1299 O   0  0  0  0  0  0  0  0  0  0  0  0
    1.2419    4.0167   27.4696 N   0  0  0  0  0  0  0  0  0  0  0  0
    2.3827    4.5963   26.9830 C   0  0  0  0  0  0  0  0  0  0  0  0
    2.3645    5.5536   25.9877 C   0  0  0  0  0  0  0  0  0  0  0  0
    3.5845    6.0316   25.5252 C   0  0  0  0  0  0  0  0  0  0  0  0
    4.7655    5.5146   26.0502 C   0  0  0  0  0  0  0  0  0  0  0  0
    4.6877    4.5427   27.0414 C   0  0  0  0  0  0  0  0  0  0  0  0
    5.9297    3.9090   27.5871 C   0  0  0  0  0  0  0  0  0  0  0  0
    3.5102    4.0985   27.5293 N   0  0  0  0  0  0  0  0  0  0  0  0
    0.6615   -1.6172   28.8334 O   0  0  0  0  0  0  0  0  0  0  0  0
   -0.0121   -2.4790   29.6688 N   0  0  0  0  0  0  0  0  0  0  0  0
   -5.9651   -0.5984   33.0164 H   0  0  0  0  0  0  0  0  0  0  0  0
   -5.7464   -1.6641   34.4110 H   0  0  0  0  0  0  0  0  0  0  0  0
   -5.4832    0.1132   34.5670 H   0  0  0  0  0  0  0  0  0  0  0  0
   -1.5622   -2.6379   34.3788 H   0  0  0  0  0  0  0  0  0  0  0  0
   -1.1060   -0.9471   34.7339 H   0  0  0  0  0  0  0  0  0  0  0  0
   -0.8079   -0.6156   32.5093 H   0  0  0  0  0  0  0  0  0  0  0  0
   -1.3514    0.4697   30.3216 H   0  0  0  0  0  0  0  0  0  0  0  0
    2.0053    0.3270   28.1216 H   0  0  0  0  0  0  0  0  0  0  0  0
    1.1297    1.5500   29.0161 H   0  0  0  0  0  0  0  0  0  0  0  0
    0.1181    0.1232   26.5279 H   0  0  0  0  0  0  0  0  0  0  0  0
    0.9634    1.6661   26.4179 H   0  0  0  0  0  0  0  0  0  0  0  0
   -1.3983    2.0351   25.2063 H   0  0  0  0  0  0  0  0  0  0  0  0
   -2.2751    0.6719   25.9562 H   0  0  0  0  0  0  0  0  0  0  0  0
   -3.1100    3.4163   25.7402 H   0  0  0  0  0  0  0  0  0  0  0  0
   -3.9519    2.1423   26.6420 H   0  0  0  0  0  0  0  0  0  0  0  0
   -2.7916    4.2554   27.9867 H   0  0  0  0  0  0  0  0  0  0  0  0
   -2.8714    2.6116   28.6150 H   0  0  0  0  0  0  0  0  0  0  0  0
   -0.6440    3.0921   28.8606 H   0  0  0  0  0  0  0  0  0  0  0  0
    1.2878    3.4169   28.2740 H   0  0  0  0  0  0  0  0  0  0  0  0
    1.4366    5.9278   25.5700 H   0  0  0  0  0  0  0  0  0  0  0  0
    3.6125    6.7866   24.7444 H   0  0  0  0  0  0  0  0  0  0  0  0
    5.7259    5.8586   25.6801 H   0  0  0  0  0  0  0  0  0  0  0  0
    6.4536    3.3642   26.7956 H   0  0  0  0  0  0  0  0  0  0  0  0
    6.5959    4.6734   27.9989 H   0  0  0  0  0  0  0  0  0  0  0  0
    5.6893    3.2015   28.3873 H   0  0  0  0  0  0  0  0  0  0  0  0
  1  2  1  0
  2  3  1  0
  3  4  2  0
  3  5  1  0
  5  6  1  0
  6  7  1  0
  7  8  2  0
  7  9  1  0
  9 10  1  0
 10 11  2  0
 11 12  1  0
 12 13  1  0
 13 14  1  0
 14 15  1  0
 15 16  1  0
 16 17  1  0
 17 18  1  0
 18 19  1  0
 19 20  2  0
 19 21  1  0
 21 22  1  0
 22 23  2  0
 23 24  1  0
 24 25  2  0
 25 26  1  0
 26 27  1  0
 26 28  2  0
 11 29  1  0
 29 30  1  0
 30  9  2  0
 18 14  1  0
 28 22  1  0
  1 31  1  0
  1 32  1  0
  1 33  1  0
  5 34  1  0
  5 35  1  0
  6 36  1  0
 10 37  1  0
 12 38  1  0
 12 39  1  0
 13 40  1  0
 13 41  1  0
 15 42  1  0
 15 43  1  0
 16 44  1  0
 16 45  1  0
 17 46  1  0
 17 47  1  0
 18 48  1  0
 21 49  1  0
 23 50  1  0
 24 51  1  0
 25 52  1  0
 27 53  1  0
 27 54  1  0
 27 55  1  0
M  END
>  <Energy>  (74) 
95.633077033162309

>  <compound_id>  (74) 
424

>  <target_id>  (74) 
1

>  <reference_id>  (74) 
53

>  <inspiration_ids>  (74) 
[53, 13]

>  <energy_score>  (74) 
-8.615943871997473

>  <distance_score>  (74) 
2.1306896975651277

>  <path>  (74) 
/opt/xchem-fragalysis-2/maxwin/BulkDock/SCRATCH/505733/C424-P53/C424-P53.minimised.mol

>  <scratch_subdir>  (74) 
/opt/xchem-fragalysis-2/maxwin/BulkDock/SCRATCH/505733/C424-P53

>  <fragmenstein_runtime>  (74) 
5.106262683868408

>  <fragmenstein_outcome>  (74) 
too moved

>  <fragmenstein_mode>  (74) 
expansion

>  <fragmenstein_error>  (74) 


$$$$
C424-P13
     RDKit          3D

 55 57  0  0  0  0  0  0  0  0999 V2000
   -0.0943   -4.8037   34.9492 C   0  0  0  0  0  0  0  0  0  0  0  0
    0.2384   -4.6995   33.5650 O   0  0  0  0  0  0  0  0  0  0  0  0
    0.5176   -5.8859   32.9607 C   0  0  0  0  0  0  0  0  0  0  0  0
    0.5737   -6.9673   33.5374 O   0  0  0  0  0  0  0  0  0  0  0  0
    0.7515   -5.7362   31.4581 C   0  0  0  0  0  0  0  0  0  0  0  0
    0.6176   -4.3937   30.9477 N   0  0  0  0  0  0  0  0  0  0  0  0
   -0.6264   -3.5103   30.7790 C   0  0  0  0  0  0  0  0  0  0  0  0
   -1.7325   -3.6947   31.0958 O   0  0  0  0  0  0  0  0  0  0  0  0
   -0.2504   -2.2597   30.0947 C   0  0  0  0  0  0  0  0  0  0  0  0
   -1.1205   -1.2144   29.7064 C   0  0  0  0  0  0  0  0  0  0  0  0
   -0.2840   -0.2442   29.2307 C   0  0  0  0  0  0  0  0  0  0  0  0
   -0.4902    1.1089   28.7191 C   0  0  0  0  0  0  0  0  0  0  0  0
   -0.2245    1.1319   27.2207 C   0  0  0  0  0  0  0  0  0  0  0  0
   -1.0831    2.0220   26.4527 N   0  0  0  0  0  0  0  0  0  0  0  0
   -2.4589    1.5121   26.3981 C   0  0  0  0  0  0  0  0  0  0  0  0
   -3.2005    2.6804   25.8179 C   0  0  0  0  0  0  0  0  0  0  0  0
   -2.5805    3.8432   26.5563 C   0  0  0  0  0  0  0  0  0  0  0  0
   -1.1584    3.4287   26.8991 C   0  0  0  0  0  0  0  0  0  0  0  0
   -0.1150    4.3083   26.1611 C   0  0  0  0  0  0  0  0  0  0  0  0
   -0.3724    5.0487   25.2939 O   0  0  0  0  0  0  0  0  0  0  0  0
    1.2332    4.0370   26.8871 N   0  0  0  0  0  0  0  0  0  0  0  0
    2.4891    4.5261   26.6427 C   0  0  0  0  0  0  0  0  0  0  0  0
    2.6993    5.5441   25.7297 C   0  0  0  0  0  0  0  0  0  0  0  0
    3.9985    5.9913   25.5339 C   0  0  0  0  0  0  0  0  0  0  0  0
    5.0363    5.3870   26.2333 C   0  0  0  0  0  0  0  0  0  0  0  0
    4.7355    4.3619   27.1247 C   0  0  0  0  0  0  0  0  0  0  0  0
    5.8330    3.6485   27.8514 C   0  0  0  0  0  0  0  0  0  0  0  0
    3.4717    3.9443   27.3567 N   0  0  0  0  0  0  0  0  0  0  0  0
    0.9935   -0.6870   29.2399 O   0  0  0  0  0  0  0  0  0  0  0  0
    1.0244   -1.9606   29.7738 N   0  0  0  0  0  0  0  0  0  0  0  0
   -0.4014   -3.8145   35.2997 H   0  0  0  0  0  0  0  0  0  0  0  0
   -0.9282   -5.4969   35.0980 H   0  0  0  0  0  0  0  0  0  0  0  0
    0.7804   -5.1215   35.5247 H   0  0  0  0  0  0  0  0  0  0  0  0
    0.0079   -6.3515   30.9432 H   0  0  0  0  0  0  0  0  0  0  0  0
    1.7633   -6.0787   31.2259 H   0  0  0  0  0  0  0  0  0  0  0  0
    1.4096   -3.9575   30.4797 H   0  0  0  0  0  0  0  0  0  0  0  0
   -2.1920   -1.1709   29.8169 H   0  0  0  0  0  0  0  0  0  0  0  0
    0.1530    1.8274   29.2392 H   0  0  0  0  0  0  0  0  0  0  0  0
   -1.5202    1.3847   28.9429 H   0  0  0  0  0  0  0  0  0  0  0  0
   -0.3450    0.1224   26.8134 H   0  0  0  0  0  0  0  0  0  0  0  0
    0.8295    1.3724   27.0428 H   0  0  0  0  0  0  0  0  0  0  0  0
   -2.5398    0.6154   25.7858 H   0  0  0  0  0  0  0  0  0  0  0  0
   -2.8670    1.2821   27.3847 H   0  0  0  0  0  0  0  0  0  0  0  0
   -2.9945    2.7824   24.7465 H   0  0  0  0  0  0  0  0  0  0  0  0
   -4.2823    2.6138   25.9618 H   0  0  0  0  0  0  0  0  0  0  0  0
   -2.6386    4.7395   25.9383 H   0  0  0  0  0  0  0  0  0  0  0  0
   -3.1173    4.0047   27.4942 H   0  0  0  0  0  0  0  0  0  0  0  0
   -1.0242    3.5583   27.9798 H   0  0  0  0  0  0  0  0  0  0  0  0
    1.0837    3.3923   27.6441 H   0  0  0  0  0  0  0  0  0  0  0  0
    1.8826    5.9964   25.1786 H   0  0  0  0  0  0  0  0  0  0  0  0
    4.1988    6.7935   24.8297 H   0  0  0  0  0  0  0  0  0  0  0  0
    6.0617    5.7066   26.0783 H   0  0  0  0  0  0  0  0  0  0  0  0
    6.4913    3.1428   27.1380 H   0  0  0  0  0  0  0  0  0  0  0  0
    6.4205    4.3582   28.4423 H   0  0  0  0  0  0  0  0  0  0  0  0
    5.4255    2.8948   28.5329 H   0  0  0  0  0  0  0  0  0  0  0  0
  1  2  1  0
  2  3  1  0
  3  4  2  0
  3  5  1  0
  5  6  1  0
  6  7  1  0
  7  8  2  0
  7  9  1  0
  9 10  1  0
 10 11  2  0
 11 12  1  0
 12 13  1  0
 13 14  1  0
 14 15  1  0
 15 16  1  0
 16 17  1  0
 17 18  1  0
 18 19  1  0
 19 20  2  0
 19 21  1  0
 21 22  1  0
 22 23  2  0
 23 24  1  0
 24 25  2  0
 25 26  1  0
 26 27  1  0
 26 28  2  0
 11 29  1  0
 29 30  1  0
 30  9  2  0
 18 14  1  0
 28 22  1  0
  1 31  1  0
  1 32  1  0
  1 33  1  0
  5 34  1  0
  5 35  1  0
  6 36  1  0
 10 37  1  0
 12 38  1  0
 12 39  1  0
 13 40  1  0
 13 41  1  0
 15 42  1  0
 15 43  1  0
 16 44  1  0
 16 45  1  0
 17 46  1  0
 17 47  1  0
 18 48  1  0
 21 49  1  0
 23 50  1  0
 24 51  1  0
 25 52  1  0
 27 53  1  0
 27 54  1  0
 27 55  1  0
M  END
>  <Energy>  (75) 
81.950788888513628

>  <compound_id>  (75) 
424

>  <target_id>  (75) 
1

>  <reference_id>  (75) 
13

>  <inspiration_ids>  (75) 
[53, 13]

>  <energy_score>  (75) 
-22.298232016644647

>  <distance_score>  (75) 
2.327466008369634

>  <path>  (75) 
/opt/xchem-fragalysis-2/maxwin/BulkDock/SCRATCH/505733/C424-P13/C424-P13.minimised.mol

>  <scratch_subdir>  (75) 
/opt/xchem-fragalysis-2/maxwin/BulkDock/SCRATCH/505733/C424-P13

>  <fragmenstein_runtime>  (75) 
6.157219171524048

>  <fragmenstein_outcome>  (75) 
too moved

>  <fragmenstein_mode>  (75) 
expansion

>  <fragmenstein_error>  (75) 


$$$$
C425-P53
     RDKit          3D

 49 51  0  0  0  0  0  0  0  0999 V2000
    6.1615    3.8425   27.5093 C   0  0  0  0  0  0  0  0  0  0  0  0
    5.0597    4.3364   26.6275 C   0  0  0  0  0  0  0  0  0  0  0  0
    5.2363    5.4462   25.8109 C   0  0  0  0  0  0  0  0  0  0  0  0
    4.1828    5.8544   24.9970 C   0  0  0  0  0  0  0  0  0  0  0  0
    2.9849    5.1515   25.0242 C   0  0  0  0  0  0  0  0  0  0  0  0
    2.8910    4.0755   25.8843 C   0  0  0  0  0  0  0  0  0  0  0  0
    1.6866    3.5142   26.2049 N   0  0  0  0  0  0  0  0  0  0  0  0
    0.2750    3.7642   25.6243 C   0  0  0  0  0  0  0  0  0  0  0  0
   -0.0683    4.4317   24.7288 O   0  0  0  0  0  0  0  0  0  0  0  0
   -0.7408    3.0366   26.5188 C   0  0  0  0  0  0  0  0  0  0  0  0
   -1.1209    1.5856   26.2344 C   0  0  0  0  0  0  0  0  0  0  0  0
   -1.9626    1.1617   27.4464 C   0  0  0  0  0  0  0  0  0  0  0  0
   -1.8296   -0.2702   28.0166 C   0  0  0  0  0  0  0  0  0  0  0  0
   -2.3719   -1.2839   27.0472 C   0  0  0  0  0  0  0  0  0  0  0  0
   -0.4667   -0.7666   28.5072 C   0  0  0  0  0  0  0  0  0  0  0  0
   -1.6134    2.1914   28.5071 C   0  0  0  0  0  0  0  0  0  0  0  0
   -0.3982    2.9538   28.0078 C   0  0  0  0  0  0  0  0  0  0  0  0
   -0.0490    4.2442   28.7208 C   0  0  0  0  0  0  0  0  0  0  0  0
    0.5701    3.7645   30.0344 C   0  0  0  0  0  0  0  0  0  0  0  0
    1.1663    2.4060   29.7110 C   0  0  0  0  0  0  0  0  0  0  0  0
    0.8302    2.1819   28.3081 N   0  0  0  0  0  0  0  0  0  0  0  0
    3.8992    3.6580   26.6756 N   0  0  0  0  0  0  0  0  0  0  0  0
    6.4508    4.6193   28.2239 H   0  0  0  0  0  0  0  0  0  0  0  0
    7.0326    3.5669   26.9068 H   0  0  0  0  0  0  0  0  0  0  0  0
    5.8469    2.9596   28.0752 H   0  0  0  0  0  0  0  0  0  0  0  0
    6.1780    5.9853   25.8000 H   0  0  0  0  0  0  0  0  0  0  0  0
    4.2896    6.7218   24.3520 H   0  0  0  0  0  0  0  0  0  0  0  0
    2.1427    5.4868   24.4307 H   0  0  0  0  0  0  0  0  0  0  0  0
    1.6132    2.9382   27.0417 H   0  0  0  0  0  0  0  0  0  0  0  0
   -1.6528    3.6502   26.4258 H   0  0  0  0  0  0  0  0  0  0  0  0
   -1.7077    1.5188   25.3173 H   0  0  0  0  0  0  0  0  0  0  0  0
   -0.2317    0.9642   26.1575 H   0  0  0  0  0  0  0  0  0  0  0  0
   -3.0193    1.3094   27.1819 H   0  0  0  0  0  0  0  0  0  0  0  0
   -2.4729   -0.3077   28.9063 H   0  0  0  0  0  0  0  0  0  0  0  0
   -1.6579   -2.0864   26.9170 H   0  0  0  0  0  0  0  0  0  0  0  0
   -2.6378   -0.8688   26.0740 H   0  0  0  0  0  0  0  0  0  0  0  0
   -3.2501   -1.7496   27.4869 H   0  0  0  0  0  0  0  0  0  0  0  0
   -0.1138   -0.1994   29.3687 H   0  0  0  0  0  0  0  0  0  0  0  0
   -0.5421   -1.8040   28.8576 H   0  0  0  0  0  0  0  0  0  0  0  0
    0.2856   -0.7527   27.7134 H   0  0  0  0  0  0  0  0  0  0  0  0
   -2.4530    2.8789   28.6357 H   0  0  0  0  0  0  0  0  0  0  0  0
   -1.3919    1.6752   29.4368 H   0  0  0  0  0  0  0  0  0  0  0  0
   -0.8901    4.9233   28.8179 H   0  0  0  0  0  0  0  0  0  0  0  0
    0.7114    4.8213   28.1805 H   0  0  0  0  0  0  0  0  0  0  0  0
   -0.1804    3.6613   30.8213 H   0  0  0  0  0  0  0  0  0  0  0  0
    1.3277    4.4714   30.3880 H   0  0  0  0  0  0  0  0  0  0  0  0
    2.2526    2.4037   29.8419 H   0  0  0  0  0  0  0  0  0  0  0  0
    0.7480    1.6364   30.3668 H   0  0  0  0  0  0  0  0  0  0  0  0
    0.7544    1.1922   28.1049 H   0  0  0  0  0  0  0  0  0  0  0  0
  1  2  1  0
  2  3  2  0
  3  4  1  0
  4  5  2  0
  5  6  1  0
  6  7  1  0
  7  8  1  0
  8  9  2  0
  8 10  1  0
 10 11  1  0
 11 12  1  0
 12 13  1  0
 13 14  1  0
 13 15  1  0
 12 16  1  0
 16 17  1  0
 17 18  1  0
 18 19  1  0
 19 20  1  0
 20 21  1  0
  6 22  2  0
 22  2  1  0
 17 10  1  0
 21 17  1  0
  1 23  1  0
  1 24  1  0
  1 25  1  0
  3 26  1  0
  4 27  1  0
  5 28  1  0
  7 29  1  0
 10 30  1  0
 11 31  1  0
 11 32  1  0
 12 33  1  0
 13 34  1  0
 14 35  1  0
 14 36  1  0
 14 37  1  0
 15 38  1  0
 15 39  1  0
 15 40  1  0
 16 41  1  0
 16 42  1  0
 18 43  1  0
 18 44  1  0
 19 45  1  0
 19 46  1  0
 20 47  1  0
 20 48  1  0
 21 49  1  0
M  END
>  <Energy>  (76) 
36.158301160242381

>  <compound_id>  (76) 
425

>  <target_id>  (76) 
1

>  <reference_id>  (76) 
53

>  <inspiration_ids>  (76) 
[53, 44]

>  <energy_score>  (76) 
2.7468217301466495

>  <distance_score>  (76) 
2.14559455477249

>  <path>  (76) 
/opt/xchem-fragalysis-2/maxwin/BulkDock/SCRATCH/505733/C425-P53/C425-P53.minimised.mol

>  <scratch_subdir>  (76) 
/opt/xchem-fragalysis-2/maxwin/BulkDock/SCRATCH/505733/C425-P53

>  <fragmenstein_runtime>  (76) 
4.761174917221069

>  <fragmenstein_outcome>  (76) 
too moved

>  <fragmenstein_mode>  (76) 
expansion

>  <fragmenstein_error>  (76) 


$$$$
C425-P44
     RDKit          3D

 49 51  0  0  0  0  0  0  0  0999 V2000
    6.1996    3.9275   27.4627 C   0  0  0  0  0  0  0  0  0  0  0  0
    5.0779    4.3914   26.5903 C   0  0  0  0  0  0  0  0  0  0  0  0
    5.2390    5.4579   25.7150 C   0  0  0  0  0  0  0  0  0  0  0  0
    4.1652    5.8359   24.9120 C   0  0  0  0  0  0  0  0  0  0  0  0
    2.9652    5.1422   25.0017 C   0  0  0  0  0  0  0  0  0  0  0  0
    2.8929    4.1081   25.9119 C   0  0  0  0  0  0  0  0  0  0  0  0
    1.7058    3.5349   26.2640 N   0  0  0  0  0  0  0  0  0  0  0  0
    0.3102    3.6284   25.6049 C   0  0  0  0  0  0  0  0  0  0  0  0
   -0.0259    4.1479   24.6138 O   0  0  0  0  0  0  0  0  0  0  0  0
   -0.7024    2.9751   26.5619 C   0  0  0  0  0  0  0  0  0  0  0  0
   -1.1139    1.5240   26.3161 C   0  0  0  0  0  0  0  0  0  0  0  0
   -1.9109    1.0895   27.5356 C   0  0  0  0  0  0  0  0  0  0  0  0
   -1.7447   -0.3269   28.1399 C   0  0  0  0  0  0  0  0  0  0  0  0
   -2.3332   -1.3613   27.2249 C   0  0  0  0  0  0  0  0  0  0  0  0
   -0.3514   -0.8009   28.5650 C   0  0  0  0  0  0  0  0  0  0  0  0
   -1.5362    2.1337   28.5480 C   0  0  0  0  0  0  0  0  0  0  0  0
   -0.3388    2.9076   28.0408 C   0  0  0  0  0  0  0  0  0  0  0  0
   -0.0490    4.2113   28.7554 C   0  0  0  0  0  0  0  0  0  0  0  0
    0.6123    3.7610   30.0587 C   0  0  0  0  0  0  0  0  0  0  0  0
    1.2324    2.4103   29.7450 C   0  0  0  0  0  0  0  0  0  0  0  0
    0.9028    2.1673   28.3440 N   0  0  0  0  0  0  0  0  0  0  0  0
    3.9145    3.7282   26.7048 N   0  0  0  0  0  0  0  0  0  0  0  0
    6.5213    4.7358   28.1268 H   0  0  0  0  0  0  0  0  0  0  0  0
    7.0480    3.6086   26.8491 H   0  0  0  0  0  0  0  0  0  0  0  0
    5.8916    3.0798   28.0835 H   0  0  0  0  0  0  0  0  0  0  0  0
    6.1838    5.9873   25.6514 H   0  0  0  0  0  0  0  0  0  0  0  0
    4.2607    6.6690   24.2218 H   0  0  0  0  0  0  0  0  0  0  0  0
    2.1097    5.4465   24.4109 H   0  0  0  0  0  0  0  0  0  0  0  0
    1.6548    2.9345   27.0845 H   0  0  0  0  0  0  0  0  0  0  0  0
   -1.5992    3.6099   26.4681 H   0  0  0  0  0  0  0  0  0  0  0  0
   -1.7472    1.4650   25.4310 H   0  0  0  0  0  0  0  0  0  0  0  0
   -0.2319    0.8975   26.2398 H   0  0  0  0  0  0  0  0  0  0  0  0
   -2.9716    1.2243   27.2903 H   0  0  0  0  0  0  0  0  0  0  0  0
   -2.3402   -0.3509   29.0635 H   0  0  0  0  0  0  0  0  0  0  0  0
   -1.6889   -2.2315   27.2038 H   0  0  0  0  0  0  0  0  0  0  0  0
   -2.5126   -0.9845   26.2192 H   0  0  0  0  0  0  0  0  0  0  0  0
   -3.2787   -1.7219   27.6083 H   0  0  0  0  0  0  0  0  0  0  0  0
    0.0338   -0.2209   29.4037 H   0  0  0  0  0  0  0  0  0  0  0  0
   -0.3911   -1.8348   28.9310 H   0  0  0  0  0  0  0  0  0  0  0  0
    0.3610   -0.7825   27.7360 H   0  0  0  0  0  0  0  0  0  0  0  0
   -2.3738    2.8294   28.6271 H   0  0  0  0  0  0  0  0  0  0  0  0
   -1.3013    1.6300   29.4845 H   0  0  0  0  0  0  0  0  0  0  0  0
   -0.9349    4.8266   28.8837 H   0  0  0  0  0  0  0  0  0  0  0  0
    0.6626    4.8368   28.2038 H   0  0  0  0  0  0  0  0  0  0  0  0
    1.3624    4.4898   30.3831 H   0  0  0  0  0  0  0  0  0  0  0  0
   -0.1182    3.6587   30.8646 H   0  0  0  0  0  0  0  0  0  0  0  0
    2.3183    2.4275   29.8789 H   0  0  0  0  0  0  0  0  0  0  0  0
    0.8265    1.6391   30.4067 H   0  0  0  0  0  0  0  0  0  0  0  0
    0.8499    1.1743   28.1469 H   0  0  0  0  0  0  0  0  0  0  0  0
  1  2  1  0
  2  3  2  0
  3  4  1  0
  4  5  2  0
  5  6  1  0
  6  7  1  0
  7  8  1  0
  8  9  2  0
  8 10  1  0
 10 11  1  0
 11 12  1  0
 12 13  1  0
 13 14  1  0
 13 15  1  0
 12 16  1  0
 16 17  1  0
 17 18  1  0
 18 19  1  0
 19 20  1  0
 20 21  1  0
  6 22  2  0
 22  2  1  0
 17 10  1  0
 21 17  1  0
  1 23  1  0
  1 24  1  0
  1 25  1  0
  3 26  1  0
  4 27  1  0
  5 28  1  0
  7 29  1  0
 10 30  1  0
 11 31  1  0
 11 32  1  0
 12 33  1  0
 13 34  1  0
 14 35  1  0
 14 36  1  0
 14 37  1  0
 15 38  1  0
 15 39  1  0
 15 40  1  0
 16 41  1  0
 16 42  1  0
 18 43  1  0
 18 44  1  0
 19 45  1  0
 19 46  1  0
 20 47  1  0
 20 48  1  0
 21 49  1  0
M  END
>  <Energy>  (77) 
37.948605236236475

>  <compound_id>  (77) 
425

>  <target_id>  (77) 
1

>  <reference_id>  (77) 
44

>  <inspiration_ids>  (77) 
[53, 44]

>  <energy_score>  (77) 
4.53712580614021

>  <distance_score>  (77) 
2.189238908692906

>  <path>  (77) 
/opt/xchem-fragalysis-2/maxwin/BulkDock/SCRATCH/505733/C425-P44/C425-P44.minimised.mol

>  <scratch_subdir>  (77) 
/opt/xchem-fragalysis-2/maxwin/BulkDock/SCRATCH/505733/C425-P44

>  <fragmenstein_runtime>  (77) 
5.833559989929199

>  <fragmenstein_outcome>  (77) 
too moved

>  <fragmenstein_mode>  (77) 
expansion

>  <fragmenstein_error>  (77) 


$$$$
C428-P53
     RDKit          3D

 62 65  0  0  0  0  0  0  0  0999 V2000
    5.5884    3.1710   27.4078 C   0  0  0  0  0  0  0  0  0  0  0  0
    4.3974    4.0515   27.1822 C   0  0  0  0  0  0  0  0  0  0  0  0
    4.5699    5.3341   26.6709 C   0  0  0  0  0  0  0  0  0  0  0  0
    3.4492    6.1330   26.4893 C   0  0  0  0  0  0  0  0  0  0  0  0
    2.1970    5.6290   26.8227 C   0  0  0  0  0  0  0  0  0  0  0  0
    2.1066    4.3344   27.3150 C   0  0  0  0  0  0  0  0  0  0  0  0
    0.8814    3.7681   27.5912 N   0  0  0  0  0  0  0  0  0  0  0  0
   -0.5430    4.3787   27.5470 C   0  0  0  0  0  0  0  0  0  0  0  0
   -0.8907    5.4765   27.3445 O   0  0  0  0  0  0  0  0  0  0  0  0
   -1.5525    3.2094   27.7854 C   0  0  0  0  0  0  0  0  0  0  0  0
   -2.6173    3.2412   26.6934 C   0  0  0  0  0  0  0  0  0  0  0  0
   -2.3158    2.0713   25.7898 C   0  0  0  0  0  0  0  0  0  0  0  0
   -0.9910    1.5443   26.2775 C   0  0  0  0  0  0  0  0  0  0  0  0
   -0.9198    1.8549   27.7041 N   0  0  0  0  0  0  0  0  0  0  0  0
   -1.6925    0.8266   28.4431 C   0  0  0  0  0  0  0  0  0  0  0  0
   -0.9786    0.3220   29.6774 C   0  0  0  0  0  0  0  0  0  0  0  0
   -1.7209   -0.2411   30.7254 C   0  0  0  0  0  0  0  0  0  0  0  0
   -1.0945   -0.6859   31.8888 C   0  0  0  0  0  0  0  0  0  0  0  0
    0.2982   -0.6125   32.0099 C   0  0  0  0  0  0  0  0  0  0  0  0
    0.9813   -0.9945   33.3255 C   0  0  0  0  0  0  0  0  0  0  0  0
    1.2271    0.3102   34.0490 N   0  0  0  0  0  0  0  0  0  0  0  0
    1.7743   -0.6561   35.0703 C   0  0  0  0  0  0  0  0  0  0  0  0
    0.2513    1.2891   34.6846 C   0  0  0  0  0  0  0  0  0  0  0  0
   -0.9160    1.2163   34.8295 O   0  0  0  0  0  0  0  0  0  0  0  0
    1.0470    2.5290   35.0738 C   0  0  0  0  0  0  0  0  0  0  0  0
    1.1944    2.6421   36.5053 N   0  0  0  0  0  0  0  0  0  0  0  0
    0.2023    2.7184   37.4327 C   0  0  0  0  0  0  0  0  0  0  0  0
    0.7345    2.7985   38.6305 N   0  0  0  0  0  0  0  0  0  0  0  0
    2.1035    2.7912   38.4810 N   0  0  0  0  0  0  0  0  0  0  0  0
    2.3636    2.7096   37.1969 C   0  0  0  0  0  0  0  0  0  0  0  0
    1.0483   -0.1068   30.9387 C   0  0  0  0  0  0  0  0  0  0  0  0
    0.4154    0.3483   29.7852 C   0  0  0  0  0  0  0  0  0  0  0  0
    3.1820    3.5418   27.4978 N   0  0  0  0  0  0  0  0  0  0  0  0
    6.1173    3.0000   26.4652 H   0  0  0  0  0  0  0  0  0  0  0  0
    6.2719    3.6352   28.1253 H   0  0  0  0  0  0  0  0  0  0  0  0
    5.2838    2.1984   27.8076 H   0  0  0  0  0  0  0  0  0  0  0  0
    5.5577    5.7098   26.4254 H   0  0  0  0  0  0  0  0  0  0  0  0
    3.5441    7.1409   26.0962 H   0  0  0  0  0  0  0  0  0  0  0  0
    1.3164    6.2452   26.6791 H   0  0  0  0  0  0  0  0  0  0  0  0
    0.8246    2.7954   27.8765 H   0  0  0  0  0  0  0  0  0  0  0  0
   -1.9809    3.3848   28.7667 H   0  0  0  0  0  0  0  0  0  0  0  0
   -2.6005    4.1549   26.0950 H   0  0  0  0  0  0  0  0  0  0  0  0
   -3.6164    3.1150   27.1168 H   0  0  0  0  0  0  0  0  0  0  0  0
   -2.2630    2.3777   24.7418 H   0  0  0  0  0  0  0  0  0  0  0  0
   -3.0976    1.3122   25.8982 H   0  0  0  0  0  0  0  0  0  0  0  0
   -0.1736    2.0551   25.7566 H   0  0  0  0  0  0  0  0  0  0  0  0
   -0.8787    0.4743   26.1029 H   0  0  0  0  0  0  0  0  0  0  0  0
   -1.8966   -0.0651   27.8349 H   0  0  0  0  0  0  0  0  0  0  0  0
   -2.6659    1.2286   28.7326 H   0  0  0  0  0  0  0  0  0  0  0  0
   -2.8019   -0.3042   30.6509 H   0  0  0  0  0  0  0  0  0  0  0  0
   -1.7010   -1.0627   32.7095 H   0  0  0  0  0  0  0  0  0  0  0  0
    0.2636   -1.6666   33.8251 H   0  0  0  0  0  0  0  0  0  0  0  0
    1.8987   -1.5218   33.0156 H   0  0  0  0  0  0  0  0  0  0  0  0
    1.0074   -1.2457   35.5970 H   0  0  0  0  0  0  0  0  0  0  0  0
    2.1685   -0.0151   35.8715 H   0  0  0  0  0  0  0  0  0  0  0  0
    2.6656   -1.2249   34.7636 H   0  0  0  0  0  0  0  0  0  0  0  0
    2.0415    2.5275   34.6154 H   0  0  0  0  0  0  0  0  0  0  0  0
    0.5160    3.4187   34.7180 H   0  0  0  0  0  0  0  0  0  0  0  0
   -0.8542    2.7025   37.2013 H   0  0  0  0  0  0  0  0  0  0  0  0
    3.3456    2.6919   36.7453 H   0  0  0  0  0  0  0  0  0  0  0  0
    2.1312   -0.0337   31.0102 H   0  0  0  0  0  0  0  0  0  0  0  0
    1.0268    0.7348   28.9728 H   0  0  0  0  0  0  0  0  0  0  0  0
  1  2  1  0
  2  3  2  0
  3  4  1  0
  4  5  2  0
  5  6  1  0
  6  7  1  0
  7  8  1  0
  8  9  2  0
  8 10  1  0
 10 11  1  0
 11 12  1  0
 12 13  1  0
 13 14  1  0
 14 15  1  0
 15 16  1  0
 16 17  2  0
 17 18  1  0
 18 19  2  0
 19 20  1  0
 20 21  1  0
 21 22  1  0
 21 23  1  0
 23 24  2  0
 23 25  1  0
 25 26  1  0
 26 27  1  0
 27 28  2  0
 28 29  1  0
 29 30  2  0
 19 31  1  0
 31 32  2  0
  6 33  2  0
 33  2  1  0
 14 10  1  0
 32 16  1  0
 30 26  1  0
  1 34  1  0
  1 35  1  0
  1 36  1  0
  3 37  1  0
  4 38  1  0
  5 39  1  0
  7 40  1  0
 10 41  1  0
 11 42  1  0
 11 43  1  0
 12 44  1  0
 12 45  1  0
 13 46  1  0
 13 47  1  0
 15 48  1  0
 15 49  1  0
 17 50  1  0
 18 51  1  0
 20 52  1  0
 20 53  1  0
 22 54  1  0
 22 55  1  0
 22 56  1  0
 25 57  1  0
 25 58  1  0
 27 59  1  0
 30 60  1  0
 31 61  1  0
 32 62  1  0
M  END
>  <Energy>  (78) 
113.87794729407393

>  <compound_id>  (78) 
428

>  <target_id>  (78) 
1

>  <reference_id>  (78) 
53

>  <inspiration_ids>  (78) 
[53, 70]

>  <energy_score>  (78) 
39.00068952900983

>  <distance_score>  (78) 
1.248887172110429

>  <path>  (78) 
/opt/xchem-fragalysis-2/maxwin/BulkDock/SCRATCH/505733/C428-P53/C428-P53.minimised.mol

>  <scratch_subdir>  (78) 
/opt/xchem-fragalysis-2/maxwin/BulkDock/SCRATCH/505733/C428-P53

>  <fragmenstein_runtime>  (78) 
3.87056303024292

>  <fragmenstein_outcome>  (78) 
too moved

>  <fragmenstein_mode>  (78) 
expansion

>  <fragmenstein_error>  (78) 


$$$$
C428-P70
     RDKit          3D

 62 65  0  0  0  0  0  0  0  0999 V2000
    6.1828    2.3114   27.8327 C   0  0  0  0  0  0  0  0  0  0  0  0
    5.3000    3.4841   27.5354 C   0  0  0  0  0  0  0  0  0  0  0  0
    5.8452    4.7539   27.3776 C   0  0  0  0  0  0  0  0  0  0  0  0
    4.9865    5.8284   27.1861 C   0  0  0  0  0  0  0  0  0  0  0  0
    3.6150    5.6062   27.1803 C   0  0  0  0  0  0  0  0  0  0  0  0
    3.1507    4.3095   27.3464 C   0  0  0  0  0  0  0  0  0  0  0  0
    1.8030    4.0301   27.3658 N   0  0  0  0  0  0  0  0  0  0  0  0
    0.6631    4.8944   27.4882 C   0  0  0  0  0  0  0  0  0  0  0  0
    0.5878    6.0902   27.5263 O   0  0  0  0  0  0  0  0  0  0  0  0
   -0.6174    4.0126   27.6530 C   0  0  0  0  0  0  0  0  0  0  0  0
   -1.8477    4.7377   27.1217 C   0  0  0  0  0  0  0  0  0  0  0  0
   -2.0309    4.2266   25.7000 C   0  0  0  0  0  0  0  0  0  0  0  0
   -0.8892    3.2471   25.4921 C   0  0  0  0  0  0  0  0  0  0  0  0
   -0.5077    2.7553   26.8376 N   0  0  0  0  0  0  0  0  0  0  0  0
   -1.4828    1.7394   27.2996 C   0  0  0  0  0  0  0  0  0  0  0  0
   -0.9760    0.7361   28.3174 C   0  0  0  0  0  0  0  0  0  0  0  0
   -1.5562   -0.5417   28.3096 C   0  0  0  0  0  0  0  0  0  0  0  0
   -1.2633   -1.4789   29.2980 C   0  0  0  0  0  0  0  0  0  0  0  0
   -0.3934   -1.1583   30.3440 C   0  0  0  0  0  0  0  0  0  0  0  0
   -0.1518   -2.1838   31.4525 C   0  0  0  0  0  0  0  0  0  0  0  0
   -0.1087   -1.4718   32.7879 N   0  0  0  0  0  0  0  0  0  0  0  0
   -0.0070   -2.8934   33.2951 C   0  0  0  0  0  0  0  0  0  0  0  0
   -1.1279   -0.7641   33.5029 C   0  0  0  0  0  0  0  0  0  0  0  0
   -2.3022   -0.6312   33.2672 O   0  0  0  0  0  0  0  0  0  0  0  0
   -0.5122   -0.0542   34.7025 C   0  0  0  0  0  0  0  0  0  0  0  0
   -0.6801   -0.7922   35.9329 N   0  0  0  0  0  0  0  0  0  0  0  0
   -1.8211   -1.3482   36.4215 C   0  0  0  0  0  0  0  0  0  0  0  0
   -1.5535   -1.9571   37.5546 N   0  0  0  0  0  0  0  0  0  0  0  0
   -0.2126   -1.7932   37.8145 N   0  0  0  0  0  0  0  0  0  0  0  0
    0.2958   -1.0784   36.8378 C   0  0  0  0  0  0  0  0  0  0  0  0
    0.2505    0.0858   30.3174 C   0  0  0  0  0  0  0  0  0  0  0  0
   -0.0459    1.0255   29.3213 C   0  0  0  0  0  0  0  0  0  0  0  0
    3.9668    3.2509   27.5095 N   0  0  0  0  0  0  0  0  0  0  0  0
    7.1593    2.4172   27.3510 H   0  0  0  0  0  0  0  0  0  0  0  0
    6.3334    2.2273   28.9132 H   0  0  0  0  0  0  0  0  0  0  0  0
    5.7260    1.3851   27.4696 H   0  0  0  0  0  0  0  0  0  0  0  0
    6.9184    4.9098   27.4135 H   0  0  0  0  0  0  0  0  0  0  0  0
    5.3778    6.8334   27.0592 H   0  0  0  0  0  0  0  0  0  0  0  0
    2.9372    6.4412   27.0427 H   0  0  0  0  0  0  0  0  0  0  0  0
    1.4974    3.0650   27.4514 H   0  0  0  0  0  0  0  0  0  0  0  0
   -0.7049    3.8137   28.7252 H   0  0  0  0  0  0  0  0  0  0  0  0
   -1.7527    5.8266   27.1350 H   0  0  0  0  0  0  0  0  0  0  0  0
   -2.7253    4.4761   27.7206 H   0  0  0  0  0  0  0  0  0  0  0  0
   -1.9978    5.0407   24.9691 H   0  0  0  0  0  0  0  0  0  0  0  0
   -3.0014    3.7262   25.6031 H   0  0  0  0  0  0  0  0  0  0  0  0
   -0.0311    3.7656   25.0457 H   0  0  0  0  0  0  0  0  0  0  0  0
   -1.1516    2.4533   24.7899 H   0  0  0  0  0  0  0  0  0  0  0  0
   -1.7921    1.1492   26.4270 H   0  0  0  0  0  0  0  0  0  0  0  0
   -2.4021    2.1868   27.6969 H   0  0  0  0  0  0  0  0  0  0  0  0
   -2.2711   -0.8185   27.5377 H   0  0  0  0  0  0  0  0  0  0  0  0
   -1.7495   -2.4516   29.2494 H   0  0  0  0  0  0  0  0  0  0  0  0
   -1.0019   -2.8804   31.3637 H   0  0  0  0  0  0  0  0  0  0  0  0
    0.8125   -2.6440   31.1859 H   0  0  0  0  0  0  0  0  0  0  0  0
   -0.9552   -3.4504   33.2435 H   0  0  0  0  0  0  0  0  0  0  0  0
    0.1741   -2.8085   34.3741 H   0  0  0  0  0  0  0  0  0  0  0  0
    0.8699   -3.4629   32.9520 H   0  0  0  0  0  0  0  0  0  0  0  0
    0.5567    0.1229   34.5399 H   0  0  0  0  0  0  0  0  0  0  0  0
   -0.9961    0.9202   34.8309 H   0  0  0  0  0  0  0  0  0  0  0  0
   -2.7865   -1.3004   35.9344 H   0  0  0  0  0  0  0  0  0  0  0  0
    1.3265   -0.7651   36.7464 H   0  0  0  0  0  0  0  0  0  0  0  0
    0.9749    0.3452   31.0858 H   0  0  0  0  0  0  0  0  0  0  0  0
    0.4562    1.9866   29.3584 H   0  0  0  0  0  0  0  0  0  0  0  0
  1  2  1  0
  2  3  2  0
  3  4  1  0
  4  5  2  0
  5  6  1  0
  6  7  1  0
  7  8  1  0
  8  9  2  0
  8 10  1  0
 10 11  1  0
 11 12  1  0
 12 13  1  0
 13 14  1  0
 14 15  1  0
 15 16  1  0
 16 17  2  0
 17 18  1  0
 18 19  2  0
 19 20  1  0
 20 21  1  0
 21 22  1  0
 21 23  1  0
 23 24  2  0
 23 25  1  0
 25 26  1  0
 26 27  1  0
 27 28  2  0
 28 29  1  0
 29 30  2  0
 19 31  1  0
 31 32  2  0
  6 33  2  0
 33  2  1  0
 14 10  1  0
 32 16  1  0
 30 26  1  0
  1 34  1  0
  1 35  1  0
  1 36  1  0
  3 37  1  0
  4 38  1  0
  5 39  1  0
  7 40  1  0
 10 41  1  0
 11 42  1  0
 11 43  1  0
 12 44  1  0
 12 45  1  0
 13 46  1  0
 13 47  1  0
 15 48  1  0
 15 49  1  0
 17 50  1  0
 18 51  1  0
 20 52  1  0
 20 53  1  0
 22 54  1  0
 22 55  1  0
 22 56  1  0
 25 57  1  0
 25 58  1  0
 27 59  1  0
 30 60  1  0
 31 61  1  0
 32 62  1  0
M  END
>  <Energy>  (79) 
95.319052833555773

>  <compound_id>  (79) 
428

>  <target_id>  (79) 
1

>  <reference_id>  (79) 
70

>  <inspiration_ids>  (79) 
[53, 70]

>  <energy_score>  (79) 
10.260296935725194

>  <distance_score>  (79) 
1.7140288516896647

>  <path>  (79) 
/opt/xchem-fragalysis-2/maxwin/BulkDock/SCRATCH/505733/C428-P70/C428-P70.minimised.mol

>  <scratch_subdir>  (79) 
/opt/xchem-fragalysis-2/maxwin/BulkDock/SCRATCH/505733/C428-P70

>  <fragmenstein_runtime>  (79) 
6.958877086639404

>  <fragmenstein_outcome>  (79) 
too moved

>  <fragmenstein_mode>  (79) 
expansion

>  <fragmenstein_error>  (79) 


$$$$
C428-P53
     RDKit          3D

 62 65  0  0  0  0  0  0  0  0999 V2000
    5.9498    3.5913   27.7284 C   0  0  0  0  0  0  0  0  0  0  0  0
    5.1029    4.4101   26.8027 C   0  0  0  0  0  0  0  0  0  0  0  0
    5.6936    5.2690   25.8838 C   0  0  0  0  0  0  0  0  0  0  0  0
    4.8730    5.9980   25.0313 C   0  0  0  0  0  0  0  0  0  0  0  0
    3.4934    5.8543   25.1286 C   0  0  0  0  0  0  0  0  0  0  0  0
    2.9794    4.9935   26.0881 C   0  0  0  0  0  0  0  0  0  0  0  0
    1.6066    4.9106   26.2061 N   0  0  0  0  0  0  0  0  0  0  0  0
    0.7835    4.2936   27.2057 C   0  0  0  0  0  0  0  0  0  0  0  0
    1.0742    3.6223   28.1563 O   0  0  0  0  0  0  0  0  0  0  0  0
   -0.7022    4.6641   26.9315 C   0  0  0  0  0  0  0  0  0  0  0  0
   -1.5295    3.3943   26.7392 C   0  0  0  0  0  0  0  0  0  0  0  0
   -1.7356    3.3208   25.2434 C   0  0  0  0  0  0  0  0  0  0  0  0
   -1.8543    4.7781   24.8472 C   0  0  0  0  0  0  0  0  0  0  0  0
   -0.8366    5.4699   25.6600 N   0  0  0  0  0  0  0  0  0  0  0  0
   -1.1720    6.8834   25.9728 C   0  0  0  0  0  0  0  0  0  0  0  0
   -1.7470    7.7073   24.8341 C   0  0  0  0  0  0  0  0  0  0  0  0
   -1.0559    7.8982   23.6381 C   0  0  0  0  0  0  0  0  0  0  0  0
   -1.6558    8.5895   22.5778 C   0  0  0  0  0  0  0  0  0  0  0  0
   -2.9603    9.1141   22.6777 C   0  0  0  0  0  0  0  0  0  0  0  0
   -3.5679    9.7413   21.4212 C   0  0  0  0  0  0  0  0  0  0  0  0
   -4.7090   10.7447   21.3289 N   0  0  0  0  0  0  0  0  0  0  0  0
   -3.7315   11.5992   22.0947 C   0  0  0  0  0  0  0  0  0  0  0  0
   -5.9886   10.7657   21.9670 C   0  0  0  0  0  0  0  0  0  0  0  0
   -6.4564   10.0411   22.8119 O   0  0  0  0  0  0  0  0  0  0  0  0
   -6.8373   11.9391   21.4703 C   0  0  0  0  0  0  0  0  0  0  0  0
   -6.5682   12.3833   20.1202 N   0  0  0  0  0  0  0  0  0  0  0  0
   -6.0283   13.5778   19.7543 C   0  0  0  0  0  0  0  0  0  0  0  0
   -6.0013   13.6623   18.4449 N   0  0  0  0  0  0  0  0  0  0  0  0
   -6.5486   12.5023   17.9435 N   0  0  0  0  0  0  0  0  0  0  0  0
   -6.8894   11.7459   18.9631 C   0  0  0  0  0  0  0  0  0  0  0  0
   -3.6372    8.9344   23.8849 C   0  0  0  0  0  0  0  0  0  0  0  0
   -3.0248    8.2730   24.9554 C   0  0  0  0  0  0  0  0  0  0  0  0
    3.7628    4.2690   26.9062 N   0  0  0  0  0  0  0  0  0  0  0  0
    5.3273    2.9771   28.3870 H   0  0  0  0  0  0  0  0  0  0  0  0
    6.5668    4.2439   28.3537 H   0  0  0  0  0  0  0  0  0  0  0  0
    6.5996    2.9237   27.1538 H   0  0  0  0  0  0  0  0  0  0  0  0
    6.7729    5.3675   25.8279 H   0  0  0  0  0  0  0  0  0  0  0  0
    5.3039    6.6765   24.3007 H   0  0  0  0  0  0  0  0  0  0  0  0
    2.8419    6.4250   24.4763 H   0  0  0  0  0  0  0  0  0  0  0  0
    1.0195    5.4746   25.5965 H   0  0  0  0  0  0  0  0  0  0  0  0
   -1.0549    5.2099   27.8151 H   0  0  0  0  0  0  0  0  0  0  0  0
   -2.5012    3.5061   27.2354 H   0  0  0  0  0  0  0  0  0  0  0  0
   -1.0579    2.4832   27.1196 H   0  0  0  0  0  0  0  0  0  0  0  0
   -2.6239    2.7429   24.9803 H   0  0  0  0  0  0  0  0  0  0  0  0
   -0.8657    2.8610   24.7597 H   0  0  0  0  0  0  0  0  0  0  0  0
   -2.8701    5.1247   25.0437 H   0  0  0  0  0  0  0  0  0  0  0  0
   -1.6562    4.9048   23.7779 H   0  0  0  0  0  0  0  0  0  0  0  0
   -1.8568    6.9447   26.8242 H   0  0  0  0  0  0  0  0  0  0  0  0
   -0.2542    7.3851   26.3063 H   0  0  0  0  0  0  0  0  0  0  0  0
   -0.0639    7.4733   23.5074 H   0  0  0  0  0  0  0  0  0  0  0  0
   -1.0991    8.6831   21.6460 H   0  0  0  0  0  0  0  0  0  0  0  0
   -2.7909   10.0125   20.6846 H   0  0  0  0  0  0  0  0  0  0  0  0
   -4.0400    8.8664   20.9441 H   0  0  0  0  0  0  0  0  0  0  0  0
   -3.7090   11.4128   23.1749 H   0  0  0  0  0  0  0  0  0  0  0  0
   -4.1696   12.6085   22.0555 H   0  0  0  0  0  0  0  0  0  0  0  0
   -2.7441   11.7631   21.6353 H   0  0  0  0  0  0  0  0  0  0  0  0
   -7.8954   11.6602   21.5038 H   0  0  0  0  0  0  0  0  0  0  0  0
   -6.6874   12.7852   22.1500 H   0  0  0  0  0  0  0  0  0  0  0  0
   -5.6839   14.3317   20.4470 H   0  0  0  0  0  0  0  0  0  0  0  0
   -7.3543   10.7716   18.9093 H   0  0  0  0  0  0  0  0  0  0  0  0
   -4.6526    9.2858   24.0246 H   0  0  0  0  0  0  0  0  0  0  0  0
   -3.5857    8.1535   25.8803 H   0  0  0  0  0  0  0  0  0  0  0  0
  1  2  1  0
  2  3  2  0
  3  4  1  0
  4  5  2  0
  5  6  1  0
  6  7  1  0
  7  8  1  0
  8  9  2  0
  8 10  1  0
 10 11  1  0
 11 12  1  0
 12 13  1  0
 13 14  1  0
 14 15  1  0
 15 16  1  0
 16 17  2  0
 17 18  1  0
 18 19  2  0
 19 20  1  0
 20 21  1  0
 21 22  1  0
 21 23  1  0
 23 24  2  0
 23 25  1  0
 25 26  1  0
 26 27  1  0
 27 28  2  0
 28 29  1  0
 29 30  2  0
 19 31  1  0
 31 32  2  0
  6 33  2  0
 33  2  1  0
 14 10  1  0
 32 16  1  0
 30 26  1  0
  1 34  1  0
  1 35  1  0
  1 36  1  0
  3 37  1  0
  4 38  1  0
  5 39  1  0
  7 40  1  0
 10 41  1  0
 11 42  1  0
 11 43  1  0
 12 44  1  0
 12 45  1  0
 13 46  1  0
 13 47  1  0
 15 48  1  0
 15 49  1  0
 17 50  1  0
 18 51  1  0
 20 52  1  0
 20 53  1  0
 22 54  1  0
 22 55  1  0
 22 56  1  0
 25 57  1  0
 25 58  1  0
 27 59  1  0
 30 60  1  0
 31 61  1  0
 32 62  1  0
M  END
>  <Energy>  (80) 
111.1000902392239

>  <compound_id>  (80) 
428

>  <target_id>  (80) 
1

>  <reference_id>  (80) 
53

>  <inspiration_ids>  (80) 
[53, 92]

>  <energy_score>  (80) 
26.041334341396862

>  <distance_score>  (80) 
2.4367365509270487

>  <path>  (80) 
/opt/xchem-fragalysis-2/maxwin/BulkDock/SCRATCH/505733/C428-P53/C428-P53.minimised.mol

>  <scratch_subdir>  (80) 
/opt/xchem-fragalysis-2/maxwin/BulkDock/SCRATCH/505733/C428-P53

>  <fragmenstein_runtime>  (80) 
10.676023006439209

>  <fragmenstein_outcome>  (80) 
too moved

>  <fragmenstein_mode>  (80) 
expansion

>  <fragmenstein_error>  (80) 


$$$$
C428-P92
     RDKit          3D

 62 65  0  0  0  0  0  0  0  0999 V2000
    6.4423    3.8838   26.3714 C   0  0  0  0  0  0  0  0  0  0  0  0
    5.2411    4.6298   26.8652 C   0  0  0  0  0  0  0  0  0  0  0  0
    5.4039    5.7385   27.6885 C   0  0  0  0  0  0  0  0  0  0  0  0
    4.2712    6.3704   28.1845 C   0  0  0  0  0  0  0  0  0  0  0  0
    3.0165    5.8719   27.8551 C   0  0  0  0  0  0  0  0  0  0  0  0
    2.9403    4.7783   27.0065 C   0  0  0  0  0  0  0  0  0  0  0  0
    1.7297    4.2305   26.6474 N   0  0  0  0  0  0  0  0  0  0  0  0
    0.4012    4.4577   27.1556 C   0  0  0  0  0  0  0  0  0  0  0  0
    0.0187    5.1245   28.0750 O   0  0  0  0  0  0  0  0  0  0  0  0
   -0.6185    3.6736   26.2913 C   0  0  0  0  0  0  0  0  0  0  0  0
   -1.8715    3.2619   27.0502 C   0  0  0  0  0  0  0  0  0  0  0  0
   -2.7879    2.8652   25.9181 C   0  0  0  0  0  0  0  0  0  0  0  0
   -2.4748    3.8863   24.8321 C   0  0  0  0  0  0  0  0  0  0  0  0
   -1.1094    4.4216   25.0840 N   0  0  0  0  0  0  0  0  0  0  0  0
   -1.1433    5.8965   25.3224 C   0  0  0  0  0  0  0  0  0  0  0  0
   -1.7909    6.7594   24.2488 C   0  0  0  0  0  0  0  0  0  0  0  0
   -1.5509    6.5437   22.8892 C   0  0  0  0  0  0  0  0  0  0  0  0
   -2.1597    7.3491   21.9206 C   0  0  0  0  0  0  0  0  0  0  0  0
   -3.0126    8.3993   22.2896 C   0  0  0  0  0  0  0  0  0  0  0  0
   -3.7220    9.2366   21.2219 C   0  0  0  0  0  0  0  0  0  0  0  0
   -3.4335   10.6906   21.5071 N   0  0  0  0  0  0  0  0  0  0  0  0
   -4.4219   10.8807   20.3804 C   0  0  0  0  0  0  0  0  0  0  0  0
   -2.2632   11.4711   21.2725 C   0  0  0  0  0  0  0  0  0  0  0  0
   -1.2367   11.1933   20.7051 O   0  0  0  0  0  0  0  0  0  0  0  0
   -2.4018   12.8589   21.8995 C   0  0  0  0  0  0  0  0  0  0  0  0
   -3.1502   12.8830   23.1386 N   0  0  0  0  0  0  0  0  0  0  0  0
   -4.3549   13.4794   23.3527 C   0  0  0  0  0  0  0  0  0  0  0  0
   -4.7181   13.2927   24.6008 N   0  0  0  0  0  0  0  0  0  0  0  0
   -3.7210   12.5689   25.2192 N   0  0  0  0  0  0  0  0  0  0  0  0
   -2.7824   12.3359   24.3284 C   0  0  0  0  0  0  0  0  0  0  0  0
   -3.2370    8.6350   23.6522 C   0  0  0  0  0  0  0  0  0  0  0  0
   -2.6155    7.8374   24.6165 C   0  0  0  0  0  0  0  0  0  0  0  0
    4.0251    4.1668   26.4902 N   0  0  0  0  0  0  0  0  0  0  0  0
    7.0868    3.6016   27.2111 H   0  0  0  0  0  0  0  0  0  0  0  0
    7.0129    4.5055   25.6738 H   0  0  0  0  0  0  0  0  0  0  0  0
    6.1431    2.9656   25.8553 H   0  0  0  0  0  0  0  0  0  0  0  0
    6.3928    6.0960   27.9570 H   0  0  0  0  0  0  0  0  0  0  0  0
    4.3606    7.2336   28.8384 H   0  0  0  0  0  0  0  0  0  0  0  0
    2.1274    6.3493   28.2525 H   0  0  0  0  0  0  0  0  0  0  0  0
    1.6873    3.5438   25.9092 H   0  0  0  0  0  0  0  0  0  0  0  0
   -0.1398    2.7532   25.9304 H   0  0  0  0  0  0  0  0  0  0  0  0
   -2.2983    4.0895   27.6270 H   0  0  0  0  0  0  0  0  0  0  0  0
   -1.6865    2.4318   27.7391 H   0  0  0  0  0  0  0  0  0  0  0  0
   -3.8414    2.8630   26.2079 H   0  0  0  0  0  0  0  0  0  0  0  0
   -2.5325    1.8571   25.5712 H   0  0  0  0  0  0  0  0  0  0  0  0
   -3.2481    4.6599   24.8344 H   0  0  0  0  0  0  0  0  0  0  0  0
   -2.5031    3.4109   23.8456 H   0  0  0  0  0  0  0  0  0  0  0  0
   -0.1104    6.2600   25.3943 H   0  0  0  0  0  0  0  0  0  0  0  0
   -1.6230    6.1101   26.2819 H   0  0  0  0  0  0  0  0  0  0  0  0
   -0.8962    5.7328   22.5763 H   0  0  0  0  0  0  0  0  0  0  0  0
   -1.9588    7.1414   20.8716 H   0  0  0  0  0  0  0  0  0  0  0  0
   -3.2938    8.9171   20.2567 H   0  0  0  0  0  0  0  0  0  0  0  0
   -4.7756    8.9363   21.3404 H   0  0  0  0  0  0  0  0  0  0  0  0
   -4.5069   11.9704   20.2486 H   0  0  0  0  0  0  0  0  0  0  0  0
   -5.4543   10.5838   20.6225 H   0  0  0  0  0  0  0  0  0  0  0  0
   -4.0691   10.5402   19.3935 H   0  0  0  0  0  0  0  0  0  0  0  0
   -1.4030   13.2494   22.1290 H   0  0  0  0  0  0  0  0  0  0  0  0
   -2.8813   13.5316   21.1816 H   0  0  0  0  0  0  0  0  0  0  0  0
   -4.9147   14.0163   22.6003 H   0  0  0  0  0  0  0  0  0  0  0  0
   -1.8631   11.7864   24.4907 H   0  0  0  0  0  0  0  0  0  0  0  0
   -3.8931    9.4407   23.9754 H   0  0  0  0  0  0  0  0  0  0  0  0
   -2.7993    8.0501   25.6677 H   0  0  0  0  0  0  0  0  0  0  0  0
  1  2  1  0
  2  3  2  0
  3  4  1  0
  4  5  2  0
  5  6  1  0
  6  7  1  0
  7  8  1  0
  8  9  2  0
  8 10  1  0
 10 11  1  0
 11 12  1  0
 12 13  1  0
 13 14  1  0
 14 15  1  0
 15 16  1  0
 16 17  2  0
 17 18  1  0
 18 19  2  0
 19 20  1  0
 20 21  1  0
 21 22  1  0
 21 23  1  0
 23 24  2  0
 23 25  1  0
 25 26  1  0
 26 27  1  0
 27 28  2  0
 28 29  1  0
 29 30  2  0
 19 31  1  0
 31 32  2  0
  6 33  2  0
 33  2  1  0
 14 10  1  0
 32 16  1  0
 30 26  1  0
  1 34  1  0
  1 35  1  0
  1 36  1  0
  3 37  1  0
  4 38  1  0
  5 39  1  0
  7 40  1  0
 10 41  1  0
 11 42  1  0
 11 43  1  0
 12 44  1  0
 12 45  1  0
 13 46  1  0
 13 47  1  0
 15 48  1  0
 15 49  1  0
 17 50  1  0
 18 51  1  0
 20 52  1  0
 20 53  1  0
 22 54  1  0
 22 55  1  0
 22 56  1  0
 25 57  1  0
 25 58  1  0
 27 59  1  0
 30 60  1  0
 31 61  1  0
 32 62  1  0
M  END
>  <Energy>  (81) 
99.614486158686049

>  <compound_id>  (81) 
428

>  <target_id>  (81) 
1

>  <reference_id>  (81) 
92

>  <inspiration_ids>  (81) 
[53, 92]

>  <energy_score>  (81) 
14.555730260853693

>  <distance_score>  (81) 
2.3982119315216925

>  <path>  (81) 
/opt/xchem-fragalysis-2/maxwin/BulkDock/SCRATCH/505733/C428-P92/C428-P92.minimised.mol

>  <scratch_subdir>  (81) 
/opt/xchem-fragalysis-2/maxwin/BulkDock/SCRATCH/505733/C428-P92

>  <fragmenstein_runtime>  (81) 
15.955655813217163

>  <fragmenstein_outcome>  (81) 
too moved

>  <fragmenstein_mode>  (81) 
expansion

>  <fragmenstein_error>  (81) 


$$$$
C429-P53
     RDKit          3D

 75 80  0  0  0  0  0  0  0  0999 V2000
    7.5000    5.0608   26.4366 C   0  0  0  0  0  0  0  0  0  0  0  0
    6.1745    5.4406   27.0161 C   0  0  0  0  0  0  0  0  0  0  0  0
    5.9899    6.6887   27.5994 C   0  0  0  0  0  0  0  0  0  0  0  0
    4.7510    6.9896   28.1533 C   0  0  0  0  0  0  0  0  0  0  0  0
    3.7380    6.0400   28.1103 C   0  0  0  0  0  0  0  0  0  0  0  0
    4.0003    4.8337   27.4838 C   0  0  0  0  0  0  0  0  0  0  0  0
    3.0484    3.8545   27.3519 N   0  0  0  0  0  0  0  0  0  0  0  0
    1.7317    3.7337   27.9212 C   0  0  0  0  0  0  0  0  0  0  0  0
    1.1595    4.4179   28.7182 O   0  0  0  0  0  0  0  0  0  0  0  0
    1.0269    2.5451   27.2327 C   0  0  0  0  0  0  0  0  0  0  0  0
    0.4492    3.0839   25.9216 C   0  0  0  0  0  0  0  0  0  0  0  0
   -0.9357    3.5863   26.2769 C   0  0  0  0  0  0  0  0  0  0  0  0
   -1.3517    2.8692   27.5721 C   0  0  0  0  0  0  0  0  0  0  0  0
   -2.6951    2.1952   27.3881 C   0  0  0  0  0  0  0  0  0  0  0  0
   -2.5745    1.0768   26.5201 O   0  0  0  0  0  0  0  0  0  0  0  0
   -1.8629    0.0321   27.1670 C   0  0  0  0  0  0  0  0  0  0  0  0
   -0.4040    0.4394   27.4073 C   0  0  0  0  0  0  0  0  0  0  0  0
    0.3395   -0.6142   28.2576 C   0  0  0  0  0  0  0  0  0  0  0  0
   -0.2259   -0.7193   29.6840 C   0  0  0  0  0  0  0  0  0  0  0  0
    0.7076   -1.4258   30.7148 C   0  0  0  0  0  0  0  0  0  0  0  0
   -0.0357   -1.7265   32.0239 C   0  0  0  0  0  0  0  0  0  0  0  0
   -0.9426   -2.9195   31.7833 C   0  0  0  0  0  0  0  0  0  0  0  0
   -0.2887   -3.8367   30.7434 C   0  0  0  0  0  0  0  0  0  0  0  0
    1.1851   -4.0158   31.0457 N   0  0  0  0  0  0  0  0  0  0  0  0
    1.5795   -5.3610   30.7876 C   0  0  0  0  0  0  0  0  0  0  0  0
    2.0132   -5.8705   29.7883 O   0  0  0  0  0  0  0  0  0  0  0  0
    1.3116   -6.2069   32.0323 C   0  0  0  0  0  0  0  0  0  0  0  0
    0.1967   -7.1071   31.8367 N   0  0  0  0  0  0  0  0  0  0  0  0
   -0.8889   -7.2319   32.6448 C   0  0  0  0  0  0  0  0  0  0  0  0
   -1.7594   -8.0328   32.0755 N   0  0  0  0  0  0  0  0  0  0  0  0
   -1.2147   -8.4827   30.9022 N   0  0  0  0  0  0  0  0  0  0  0  0
   -0.0276   -7.9391   30.7849 C   0  0  0  0  0  0  0  0  0  0  0  0
    1.2889   -2.7722   30.1859 C   0  0  0  0  0  0  0  0  0  0  0  0
   -0.6660    0.6674   30.1756 C   0  0  0  0  0  0  0  0  0  0  0  0
    0.0605    1.8185   29.4848 C   0  0  0  0  0  0  0  0  0  0  0  0
   -0.1952    1.8975   27.9578 C   0  0  0  0  0  0  0  0  0  0  0  0
    5.1854    4.5257   26.9234 N   0  0  0  0  0  0  0  0  0  0  0  0
    7.5749    3.9750   26.3250 H   0  0  0  0  0  0  0  0  0  0  0  0
    8.3158    5.3820   27.0921 H   0  0  0  0  0  0  0  0  0  0  0  0
    7.6267    5.5245   25.4538 H   0  0  0  0  0  0  0  0  0  0  0  0
    6.7972    7.4128   27.6376 H   0  0  0  0  0  0  0  0  0  0  0  0
    4.5760    7.9529   28.6238 H   0  0  0  0  0  0  0  0  0  0  0  0
    2.7681    6.2622   28.5413 H   0  0  0  0  0  0  0  0  0  0  0  0
    3.2326    3.0496   26.7724 H   0  0  0  0  0  0  0  0  0  0  0  0
    1.7799    1.7713   27.0365 H   0  0  0  0  0  0  0  0  0  0  0  0
    1.0497    3.8762   25.4619 H   0  0  0  0  0  0  0  0  0  0  0  0
    0.3550    2.2953   25.1797 H   0  0  0  0  0  0  0  0  0  0  0  0
   -0.9028    4.6677   26.4591 H   0  0  0  0  0  0  0  0  0  0  0  0
   -1.6304    3.4309   25.4440 H   0  0  0  0  0  0  0  0  0  0  0  0
   -1.4688    3.6415   28.3405 H   0  0  0  0  0  0  0  0  0  0  0  0
   -3.0683    1.8631   28.3546 H   0  0  0  0  0  0  0  0  0  0  0  0
   -3.4302    2.8830   26.9594 H   0  0  0  0  0  0  0  0  0  0  0  0
   -2.3896   -0.2470   28.0833 H   0  0  0  0  0  0  0  0  0  0  0  0
   -1.9131   -0.8469   26.5224 H   0  0  0  0  0  0  0  0  0  0  0  0
    0.0589    0.4126   26.4254 H   0  0  0  0  0  0  0  0  0  0  0  0
    0.2617   -1.5853   27.7572 H   0  0  0  0  0  0  0  0  0  0  0  0
    1.4080   -0.3671   28.2922 H   0  0  0  0  0  0  0  0  0  0  0  0
   -1.1370   -1.3273   29.6123 H   0  0  0  0  0  0  0  0  0  0  0  0
    1.5415   -0.7455   30.9333 H   0  0  0  0  0  0  0  0  0  0  0  0
   -0.6081   -0.8881   32.4267 H   0  0  0  0  0  0  0  0  0  0  0  0
    0.7015   -1.9830   32.7965 H   0  0  0  0  0  0  0  0  0  0  0  0
   -1.0938   -3.4537   32.7287 H   0  0  0  0  0  0  0  0  0  0  0  0
   -1.9322   -2.6086   31.4306 H   0  0  0  0  0  0  0  0  0  0  0  0
   -0.7554   -4.8122   30.9233 H   0  0  0  0  0  0  0  0  0  0  0  0
   -0.5961   -3.6657   29.6965 H   0  0  0  0  0  0  0  0  0  0  0  0
    1.0948   -5.5725   32.8991 H   0  0  0  0  0  0  0  0  0  0  0  0
    2.1953   -6.7992   32.2726 H   0  0  0  0  0  0  0  0  0  0  0  0
   -1.0134   -6.7257   33.5920 H   0  0  0  0  0  0  0  0  0  0  0  0
    0.6697   -8.1168   29.9791 H   0  0  0  0  0  0  0  0  0  0  0  0
    1.1336   -2.9960   29.1189 H   0  0  0  0  0  0  0  0  0  0  0  0
    2.3798   -2.6142   30.1864 H   0  0  0  0  0  0  0  0  0  0  0  0
   -1.7406    0.7396   29.9915 H   0  0  0  0  0  0  0  0  0  0  0  0
   -0.5356    0.7890   31.2538 H   0  0  0  0  0  0  0  0  0  0  0  0
    1.1342    1.6915   29.6792 H   0  0  0  0  0  0  0  0  0  0  0  0
   -0.2191    2.7573   29.9737 H   0  0  0  0  0  0  0  0  0  0  0  0
  1  2  1  0
  2  3  2  0
  3  4  1  0
  4  5  2  0
  5  6  1  0
  6  7  1  0
  7  8  1  0
  8  9  2  0
  8 10  1  0
 10 11  1  0
 11 12  1  0
 12 13  1  0
 13 14  1  0
 14 15  1  0
 15 16  1  0
 16 17  1  0
 17 18  1  0
 18 19  1  0
 19 20  1  0
 20 21  1  0
 21 22  1  0
 22 23  1  0
 23 24  1  0
 24 25  1  0
 25 26  2  0
 25 27  1  0
 27 28  1  0
 28 29  1  0
 29 30  2  0
 30 31  1  0
 31 32  2  0
 24 33  1  0
 19 34  1  0
 34 35  1  0
 35 36  1  0
  6 37  2  0
 37  2  1  0
 36 10  1  0
 36 13  1  0
 36 17  1  0
 33 20  1  0
 32 28  1  0
  1 38  1  0
  1 39  1  0
  1 40  1  0
  3 41  1  0
  4 42  1  0
  5 43  1  0
  7 44  1  0
 10 45  1  0
 11 46  1  0
 11 47  1  0
 12 48  1  0
 12 49  1  0
 13 50  1  0
 14 51  1  0
 14 52  1  0
 16 53  1  0
 16 54  1  0
 17 55  1  0
 18 56  1  0
 18 57  1  0
 19 58  1  0
 20 59  1  0
 21 60  1  0
 21 61  1  0
 22 62  1  0
 22 63  1  0
 23 64  1  0
 23 65  1  0
 27 66  1  0
 27 67  1  0
 29 68  1  0
 32 69  1  0
 33 70  1  0
 33 71  1  0
 34 72  1  0
 34 73  1  0
 35 74  1  0
 35 75  1  0
M  END
>  <Energy>  (82) 
110.61914515939176

>  <compound_id>  (82) 
429

>  <target_id>  (82) 
1

>  <reference_id>  (82) 
53

>  <inspiration_ids>  (82) 
[53, 131]

>  <energy_score>  (82) 
-33.06922446321357

>  <distance_score>  (82) 
2.312348166181801

>  <path>  (82) 
/opt/xchem-fragalysis-2/maxwin/BulkDock/SCRATCH/505733/C429-P53/C429-P53.minimised.mol

>  <scratch_subdir>  (82) 
/opt/xchem-fragalysis-2/maxwin/BulkDock/SCRATCH/505733/C429-P53

>  <fragmenstein_runtime>  (82) 
19.585284948349

>  <fragmenstein_outcome>  (82) 
too moved

>  <fragmenstein_mode>  (82) 
expansion

>  <fragmenstein_error>  (82) 


$$$$
C429-P131
     RDKit          3D

 75 80  0  0  0  0  0  0  0  0999 V2000
    6.6044    4.3473   27.3956 C   0  0  0  0  0  0  0  0  0  0  0  0
    5.2640    4.4075   26.7310 C   0  0  0  0  0  0  0  0  0  0  0  0
    5.0325    5.2929   25.6851 C   0  0  0  0  0  0  0  0  0  0  0  0
    3.7748    5.3080   25.0941 C   0  0  0  0  0  0  0  0  0  0  0  0
    2.7921    4.4427   25.5656 C   0  0  0  0  0  0  0  0  0  0  0  0
    3.1006    3.5954   26.6223 C   0  0  0  0  0  0  0  0  0  0  0  0
    2.1085    2.7592   27.0980 N   0  0  0  0  0  0  0  0  0  0  0  0
    2.0887    1.8615   28.2276 C   0  0  0  0  0  0  0  0  0  0  0  0
    2.8996    1.6693   29.0884 O   0  0  0  0  0  0  0  0  0  0  0  0
    0.7820    1.0136   28.2086 C   0  0  0  0  0  0  0  0  0  0  0  0
   -0.4894    1.8042   27.8820 C   0  0  0  0  0  0  0  0  0  0  0  0
   -1.6512    0.9570   28.3660 C   0  0  0  0  0  0  0  0  0  0  0  0
   -1.0669   -0.1464   29.2546 C   0  0  0  0  0  0  0  0  0  0  0  0
   -1.2197   -1.5121   28.5896 C   0  0  0  0  0  0  0  0  0  0  0  0
   -0.4044   -2.4885   29.2234 O   0  0  0  0  0  0  0  0  0  0  0  0
    0.9669   -2.1902   29.0239 C   0  0  0  0  0  0  0  0  0  0  0  0
    1.3650   -0.9385   29.8087 C   0  0  0  0  0  0  0  0  0  0  0  0
    1.5401   -1.2752   31.3146 C   0  0  0  0  0  0  0  0  0  0  0  0
    0.3086   -0.9797   32.1751 C   0  0  0  0  0  0  0  0  0  0  0  0
    0.4169   -1.3744   33.6867 C   0  0  0  0  0  0  0  0  0  0  0  0
   -0.9719   -1.4297   34.3158 C   0  0  0  0  0  0  0  0  0  0  0  0
   -0.9859   -2.3734   35.4951 C   0  0  0  0  0  0  0  0  0  0  0  0
    0.0440   -3.5129   35.3969 C   0  0  0  0  0  0  0  0  0  0  0  0
    0.5862   -3.9993   34.0607 N   0  0  0  0  0  0  0  0  0  0  0  0
   -0.4811   -4.5308   33.2565 C   0  0  0  0  0  0  0  0  0  0  0  0
   -1.1944   -3.9945   32.4495 O   0  0  0  0  0  0  0  0  0  0  0  0
   -0.5375   -6.0360   33.5039 C   0  0  0  0  0  0  0  0  0  0  0  0
   -0.6984   -6.8206   32.2975 N   0  0  0  0  0  0  0  0  0  0  0  0
   -1.3504   -8.0111   32.2106 C   0  0  0  0  0  0  0  0  0  0  0  0
   -1.2490   -8.4784   30.9884 N   0  0  0  0  0  0  0  0  0  0  0  0
   -0.5001   -7.5847   30.2632 N   0  0  0  0  0  0  0  0  0  0  0  0
   -0.1802   -6.5901   31.0617 C   0  0  0  0  0  0  0  0  0  0  0  0
    1.2253   -2.6364   34.0699 C   0  0  0  0  0  0  0  0  0  0  0  0
   -0.0538    0.5244   32.0611 C   0  0  0  0  0  0  0  0  0  0  0  0
    0.4589    1.1969   30.7788 C   0  0  0  0  0  0  0  0  0  0  0  0
    0.4130    0.2671   29.5405 C   0  0  0  0  0  0  0  0  0  0  0  0
    4.3141    3.5662   27.1949 N   0  0  0  0  0  0  0  0  0  0  0  0
    7.3764    4.0819   26.6667 H   0  0  0  0  0  0  0  0  0  0  0  0
    6.6139    3.5944   28.1903 H   0  0  0  0  0  0  0  0  0  0  0  0
    6.8491    5.3163   27.8415 H   0  0  0  0  0  0  0  0  0  0  0  0
    5.8143    5.9603   25.3376 H   0  0  0  0  0  0  0  0  0  0  0  0
    3.5587    5.9923   24.2786 H   0  0  0  0  0  0  0  0  0  0  0  0
    1.8044    4.4537   25.1187 H   0  0  0  0  0  0  0  0  0  0  0  0
    1.2222    2.7162   26.6294 H   0  0  0  0  0  0  0  0  0  0  0  0
    0.9339    0.2652   27.4200 H   0  0  0  0  0  0  0  0  0  0  0  0
   -0.4908    2.7806   28.3812 H   0  0  0  0  0  0  0  0  0  0  0  0
   -0.6001    1.9924   26.8088 H   0  0  0  0  0  0  0  0  0  0  0  0
   -2.3415    1.5857   28.9302 H   0  0  0  0  0  0  0  0  0  0  0  0
   -2.2099    0.5514   27.5155 H   0  0  0  0  0  0  0  0  0  0  0  0
   -1.6525   -0.1978   30.1774 H   0  0  0  0  0  0  0  0  0  0  0  0
   -2.2595   -1.8458   28.6545 H   0  0  0  0  0  0  0  0  0  0  0  0
   -0.9666   -1.4551   27.5331 H   0  0  0  0  0  0  0  0  0  0  0  0
    1.5511   -3.0603   29.3423 H   0  0  0  0  0  0  0  0  0  0  0  0
    1.1733   -2.0612   27.9567 H   0  0  0  0  0  0  0  0  0  0  0  0
    2.3756   -0.6909   29.4611 H   0  0  0  0  0  0  0  0  0  0  0  0
    1.8281   -2.3272   31.3916 H   0  0  0  0  0  0  0  0  0  0  0  0
    2.3884   -0.6987   31.7081 H   0  0  0  0  0  0  0  0  0  0  0  0
   -0.5145   -1.5593   31.7415 H   0  0  0  0  0  0  0  0  0  0  0  0
    0.9678   -0.5584   34.1775 H   0  0  0  0  0  0  0  0  0  0  0  0
   -1.7156   -1.7762   33.5890 H   0  0  0  0  0  0  0  0  0  0  0  0
   -1.3028   -0.4300   34.6215 H   0  0  0  0  0  0  0  0  0  0  0  0
   -0.7837   -1.8132   36.4168 H   0  0  0  0  0  0  0  0  0  0  0  0
   -1.9953   -2.7823   35.6186 H   0  0  0  0  0  0  0  0  0  0  0  0
    0.8340   -3.4333   36.1647 H   0  0  0  0  0  0  0  0  0  0  0  0
   -0.4998   -4.3932   35.7788 H   0  0  0  0  0  0  0  0  0  0  0  0
   -1.3759   -6.2536   34.1711 H   0  0  0  0  0  0  0  0  0  0  0  0
    0.3839   -6.3958   33.9762 H   0  0  0  0  0  0  0  0  0  0  0  0
   -1.8659   -8.4853   33.0336 H   0  0  0  0  0  0  0  0  0  0  0  0
    0.3894   -5.7118   30.7872 H   0  0  0  0  0  0  0  0  0  0  0  0
    2.0002   -2.7679   33.3087 H   0  0  0  0  0  0  0  0  0  0  0  0
    1.8875   -2.4459   34.9354 H   0  0  0  0  0  0  0  0  0  0  0  0
   -1.1418    0.6346   32.1387 H   0  0  0  0  0  0  0  0  0  0  0  0
    0.3545    1.0914   32.9073 H   0  0  0  0  0  0  0  0  0  0  0  0
    1.4907    1.5095   30.9754 H   0  0  0  0  0  0  0  0  0  0  0  0
   -0.0873    2.1266   30.6097 H   0  0  0  0  0  0  0  0  0  0  0  0
  1  2  1  0
  2  3  2  0
  3  4  1  0
  4  5  2  0
  5  6  1  0
  6  7  1  0
  7  8  1  0
  8  9  2  0
  8 10  1  0
 10 11  1  0
 11 12  1  0
 12 13  1  0
 13 14  1  0
 14 15  1  0
 15 16  1  0
 16 17  1  0
 17 18  1  0
 18 19  1  0
 19 20  1  0
 20 21  1  0
 21 22  1  0
 22 23  1  0
 23 24  1  0
 24 25  1  0
 25 26  2  0
 25 27  1  0
 27 28  1  0
 28 29  1  0
 29 30  2  0
 30 31  1  0
 31 32  2  0
 24 33  1  0
 19 34  1  0
 34 35  1  0
 35 36  1  0
  6 37  2  0
 37  2  1  0
 36 10  1  0
 36 13  1  0
 36 17  1  0
 33 20  1  0
 32 28  1  0
  1 38  1  0
  1 39  1  0
  1 40  1  0
  3 41  1  0
  4 42  1  0
  5 43  1  0
  7 44  1  0
 10 45  1  0
 11 46  1  0
 11 47  1  0
 12 48  1  0
 12 49  1  0
 13 50  1  0
 14 51  1  0
 14 52  1  0
 16 53  1  0
 16 54  1  0
 17 55  1  0
 18 56  1  0
 18 57  1  0
 19 58  1  0
 20 59  1  0
 21 60  1  0
 21 61  1  0
 22 62  1  0
 22 63  1  0
 23 64  1  0
 23 65  1  0
 27 66  1  0
 27 67  1  0
 29 68  1  0
 32 69  1  0
 33 70  1  0
 33 71  1  0
 34 72  1  0
 34 73  1  0
 35 74  1  0
 35 75  1  0
M  END
>  <Energy>  (83) 
127.02095589971103

>  <compound_id>  (83) 
429

>  <target_id>  (83) 
1

>  <reference_id>  (83) 
131

>  <inspiration_ids>  (83) 
[53, 131]

>  <energy_score>  (83) 
-16.667413722892206

>  <distance_score>  (83) 
2.6356814168893488

>  <path>  (83) 
/opt/xchem-fragalysis-2/maxwin/BulkDock/SCRATCH/505733/C429-P131/C429-P131.minimised.mol

>  <scratch_subdir>  (83) 
/opt/xchem-fragalysis-2/maxwin/BulkDock/SCRATCH/505733/C429-P131

>  <fragmenstein_runtime>  (83) 
21.751091957092285

>  <fragmenstein_outcome>  (83) 
too moved

>  <fragmenstein_mode>  (83) 
expansion

>  <fragmenstein_error>  (83) 


$$$$
C430-P53
     RDKit          3D

 70 74  0  0  0  0  0  0  0  0999 V2000
    6.1384    3.3652   27.1853 C   0  0  0  0  0  0  0  0  0  0  0  0
    4.9103    4.2099   27.0639 C   0  0  0  0  0  0  0  0  0  0  0  0
    5.0045    5.5968   27.1160 C   0  0  0  0  0  0  0  0  0  0  0  0
    3.8365    6.3478   27.0837 C   0  0  0  0  0  0  0  0  0  0  0  0
    2.6158    5.6931   27.0136 C   0  0  0  0  0  0  0  0  0  0  0  0
    2.6174    4.3096   26.9323 C   0  0  0  0  0  0  0  0  0  0  0  0
    1.4480    3.6195   26.7507 N   0  0  0  0  0  0  0  0  0  0  0  0
   -0.0212    4.0782   26.8944 C   0  0  0  0  0  0  0  0  0  0  0  0
   -0.4652    5.1339   27.1146 O   0  0  0  0  0  0  0  0  0  0  0  0
   -0.8913    2.8636   26.5786 C   0  0  0  0  0  0  0  0  0  0  0  0
   -2.3746    3.1518   26.8346 C   0  0  0  0  0  0  0  0  0  0  0  0
   -3.0190    1.7955   27.0444 C   0  0  0  0  0  0  0  0  0  0  0  0
   -1.9315    0.7775   26.7286 C   0  0  0  0  0  0  0  0  0  0  0  0
   -2.2169   -0.6392   27.1845 C   0  0  0  0  0  0  0  0  0  0  0  0
   -1.0617   -1.3465   27.8499 C   0  0  0  0  0  0  0  0  0  0  0  0
   -1.0597   -1.0487   29.3506 C   0  0  0  0  0  0  0  0  0  0  0  0
   -0.0242   -1.9525   30.0189 C   0  0  0  0  0  0  0  0  0  0  0  0
    1.3928   -1.5025   29.7880 C   0  0  0  0  0  0  0  0  0  0  0  0
    2.2418   -2.4922   30.5368 C   0  0  0  0  0  0  0  0  0  0  0  0
    1.6456   -2.7445   31.9315 C   0  0  0  0  0  0  0  0  0  0  0  0
    0.3496   -3.5513   31.9695 N   0  0  0  0  0  0  0  0  0  0  0  0
    0.2046   -4.2974   33.2868 C   0  0  0  0  0  0  0  0  0  0  0  0
   -0.2989   -3.9669   34.2966 O   0  0  0  0  0  0  0  0  0  0  0  0
    0.7626   -5.6982   33.0694 C   0  0  0  0  0  0  0  0  0  0  0  0
   -0.1410   -6.5421   32.3191 N   0  0  0  0  0  0  0  0  0  0  0  0
   -0.2223   -6.6422   30.9641 C   0  0  0  0  0  0  0  0  0  0  0  0
   -1.0866   -7.5777   30.6420 N   0  0  0  0  0  0  0  0  0  0  0  0
   -1.5785   -8.1030   31.8116 N   0  0  0  0  0  0  0  0  0  0  0  0
   -0.9998   -7.4728   32.8109 C   0  0  0  0  0  0  0  0  0  0  0  0
   -0.2001   -2.2008   31.5297 C   0  0  0  0  0  0  0  0  0  0  0  0
   -1.0218    0.4514   29.6543 C   0  0  0  0  0  0  0  0  0  0  0  0
   -0.3117    1.4351   28.7064 C   0  0  0  0  0  0  0  0  0  0  0  0
   -0.6431    1.4621   27.1969 C   0  0  0  0  0  0  0  0  0  0  0  0
    3.7324    3.5598   26.9480 N   0  0  0  0  0  0  0  0  0  0  0  0
    5.9194    2.3194   26.9461 H   0  0  0  0  0  0  0  0  0  0  0  0
    6.5261    3.4111   28.2076 H   0  0  0  0  0  0  0  0  0  0  0  0
    6.9122    3.7131   26.4942 H   0  0  0  0  0  0  0  0  0  0  0  0
    5.9684    6.0878   27.2022 H   0  0  0  0  0  0  0  0  0  0  0  0
    3.8733    7.4322   27.1309 H   0  0  0  0  0  0  0  0  0  0  0  0
    1.6962    6.2672   26.9875 H   0  0  0  0  0  0  0  0  0  0  0  0
    1.4728    2.6504   26.4785 H   0  0  0  0  0  0  0  0  0  0  0  0
   -0.7815    2.7515   25.4865 H   0  0  0  0  0  0  0  0  0  0  0  0
   -2.5294    3.7786   27.7192 H   0  0  0  0  0  0  0  0  0  0  0  0
   -2.8167    3.6677   25.9754 H   0  0  0  0  0  0  0  0  0  0  0  0
   -3.2903    1.7292   28.0928 H   0  0  0  0  0  0  0  0  0  0  0  0
   -3.9189    1.6630   26.4375 H   0  0  0  0  0  0  0  0  0  0  0  0
   -1.8832    0.7269   25.6371 H   0  0  0  0  0  0  0  0  0  0  0  0
   -3.0465   -0.6603   27.8822 H   0  0  0  0  0  0  0  0  0  0  0  0
   -2.5507   -1.2220   26.3190 H   0  0  0  0  0  0  0  0  0  0  0  0
   -1.1967   -2.4234   27.7199 H   0  0  0  0  0  0  0  0  0  0  0  0
   -0.1050   -1.1080   27.3792 H   0  0  0  0  0  0  0  0  0  0  0  0
   -2.0256   -1.4049   29.7398 H   0  0  0  0  0  0  0  0  0  0  0  0
   -0.1352   -2.9449   29.5521 H   0  0  0  0  0  0  0  0  0  0  0  0
    1.5638   -0.4990   30.1933 H   0  0  0  0  0  0  0  0  0  0  0  0
    1.6697   -1.4869   28.7297 H   0  0  0  0  0  0  0  0  0  0  0  0
    3.2659   -2.1138   30.6291 H   0  0  0  0  0  0  0  0  0  0  0  0
    2.2965   -3.4400   29.9860 H   0  0  0  0  0  0  0  0  0  0  0  0
    2.3731   -3.4282   32.3977 H   0  0  0  0  0  0  0  0  0  0  0  0
    1.7073   -1.8941   32.6336 H   0  0  0  0  0  0  0  0  0  0  0  0
    1.7181   -5.6632   32.5360 H   0  0  0  0  0  0  0  0  0  0  0  0
    0.9464   -6.1670   34.0424 H   0  0  0  0  0  0  0  0  0  0  0  0
    0.3445   -6.0294   30.2773 H   0  0  0  0  0  0  0  0  0  0  0  0
   -1.1646   -7.6616   33.8631 H   0  0  0  0  0  0  0  0  0  0  0  0
   -0.0524   -1.3383   32.2017 H   0  0  0  0  0  0  0  0  0  0  0  0
   -1.2783   -2.3762   31.6748 H   0  0  0  0  0  0  0  0  0  0  0  0
   -0.6411    0.6089   30.6709 H   0  0  0  0  0  0  0  0  0  0  0  0
   -2.0713    0.7576   29.6930 H   0  0  0  0  0  0  0  0  0  0  0  0
    0.7702    1.2769   28.8009 H   0  0  0  0  0  0  0  0  0  0  0  0
   -0.4773    2.4393   29.1175 H   0  0  0  0  0  0  0  0  0  0  0  0
    0.2053    0.9984   26.6815 H   0  0  0  0  0  0  0  0  0  0  0  0
  1  2  1  0
  2  3  2  0
  3  4  1  0
  4  5  2  0
  5  6  1  0
  6  7  1  0
  7  8  1  0
  8  9  2  0
  8 10  1  0
 10 11  1  0
 11 12  1  0
 12 13  1  0
 13 14  1  0
 14 15  1  0
 15 16  1  0
 16 17  1  0
 17 18  1  0
 18 19  1  0
 19 20  1  0
 20 21  1  0
 21 22  1  0
 22 23  2  0
 22 24  1  0
 24 25  1  0
 25 26  1  0
 26 27  2  0
 27 28  1  0
 28 29  2  0
 21 30  1  0
 16 31  1  0
 31 32  1  0
 32 33  1  0
  6 34  2  0
 34  2  1  0
 33 10  1  0
 33 13  1  0
 30 17  1  0
 29 25  1  0
  1 35  1  0
  1 36  1  0
  1 37  1  0
  3 38  1  0
  4 39  1  0
  5 40  1  0
  7 41  1  0
 10 42  1  0
 11 43  1  0
 11 44  1  0
 12 45  1  0
 12 46  1  0
 13 47  1  0
 14 48  1  0
 14 49  1  0
 15 50  1  0
 15 51  1  0
 16 52  1  0
 17 53  1  0
 18 54  1  0
 18 55  1  0
 19 56  1  0
 19 57  1  0
 20 58  1  0
 20 59  1  0
 24 60  1  0
 24 61  1  0
 26 62  1  0
 29 63  1  0
 30 64  1  0
 30 65  1  0
 31 66  1  0
 31 67  1  0
 32 68  1  0
 32 69  1  0
 33 70  1  0
M  END
>  <Energy>  (84) 
112.69198618900981

>  <compound_id>  (84) 
430

>  <target_id>  (84) 
1

>  <reference_id>  (84) 
53

>  <inspiration_ids>  (84) 
[53, 134]

>  <energy_score>  (84) 
20.001350448141864

>  <distance_score>  (84) 
1.3889947117547456

>  <path>  (84) 
/opt/xchem-fragalysis-2/maxwin/BulkDock/SCRATCH/505733/C430-P53/C430-P53.minimised.mol

>  <scratch_subdir>  (84) 
/opt/xchem-fragalysis-2/maxwin/BulkDock/SCRATCH/505733/C430-P53

>  <fragmenstein_runtime>  (84) 
8.635645389556885

>  <fragmenstein_outcome>  (84) 
too moved

>  <fragmenstein_mode>  (84) 
expansion

>  <fragmenstein_error>  (84) 


$$$$
C430-P134
     RDKit          3D

 70 74  0  0  0  0  0  0  0  0999 V2000
    7.2057    4.0431   26.9659 C   0  0  0  0  0  0  0  0  0  0  0  0
    5.9160    4.7672   27.1985 C   0  0  0  0  0  0  0  0  0  0  0  0
    5.9316    6.0934   27.6180 C   0  0  0  0  0  0  0  0  0  0  0  0
    4.7227    6.7249   27.8797 C   0  0  0  0  0  0  0  0  0  0  0  0
    3.5399    6.0143   27.7243 C   0  0  0  0  0  0  0  0  0  0  0  0
    3.6118    4.7039   27.2789 C   0  0  0  0  0  0  0  0  0  0  0  0
    2.4796    3.9443   27.0996 N   0  0  0  0  0  0  0  0  0  0  0  0
    1.1301    4.1380   27.5594 C   0  0  0  0  0  0  0  0  0  0  0  0
    0.6291    5.0503   28.1499 O   0  0  0  0  0  0  0  0  0  0  0  0
    0.2826    2.9497   27.0943 C   0  0  0  0  0  0  0  0  0  0  0  0
   -1.2142    3.1647   27.3096 C   0  0  0  0  0  0  0  0  0  0  0  0
   -1.7787    1.7788   27.0778 C   0  0  0  0  0  0  0  0  0  0  0  0
   -0.8166    0.8666   27.8671 C   0  0  0  0  0  0  0  0  0  0  0  0
   -1.3926    0.5958   29.2602 C   0  0  0  0  0  0  0  0  0  0  0  0
   -0.5209    0.7655   30.4865 C   0  0  0  0  0  0  0  0  0  0  0  0
    0.7031   -0.1303   30.5989 C   0  0  0  0  0  0  0  0  0  0  0  0
    0.2875   -1.5896   30.9112 C   0  0  0  0  0  0  0  0  0  0  0  0
   -0.0919   -2.4361   29.7008 C   0  0  0  0  0  0  0  0  0  0  0  0
    0.8324   -3.6170   29.5279 C   0  0  0  0  0  0  0  0  0  0  0  0
    1.6840   -3.9268   30.7676 C   0  0  0  0  0  0  0  0  0  0  0  0
    1.0891   -3.7091   32.1471 N   0  0  0  0  0  0  0  0  0  0  0  0
   -0.1476   -4.4353   32.2772 C   0  0  0  0  0  0  0  0  0  0  0  0
   -1.2813   -4.0985   32.0474 O   0  0  0  0  0  0  0  0  0  0  0  0
    0.1341   -5.8064   32.8734 C   0  0  0  0  0  0  0  0  0  0  0  0
   -0.4698   -6.8478   32.0797 N   0  0  0  0  0  0  0  0  0  0  0  0
   -0.2601   -7.0896   30.7604 C   0  0  0  0  0  0  0  0  0  0  0  0
   -0.9667   -8.1222   30.3814 N   0  0  0  0  0  0  0  0  0  0  0  0
   -1.6476   -8.5706   31.4810 N   0  0  0  0  0  0  0  0  0  0  0  0
   -1.3351   -7.8022   32.4998 C   0  0  0  0  0  0  0  0  0  0  0  0
    1.3492   -2.2747   31.7931 C   0  0  0  0  0  0  0  0  0  0  0  0
    1.6975    0.0475   29.4441 C   0  0  0  0  0  0  0  0  0  0  0  0
    1.6330    1.4352   28.7990 C   0  0  0  0  0  0  0  0  0  0  0  0
    0.5707    1.5449   27.6956 C   0  0  0  0  0  0  0  0  0  0  0  0
    4.7709    4.0763   26.9919 N   0  0  0  0  0  0  0  0  0  0  0  0
    7.7089    4.4465   26.0822 H   0  0  0  0  0  0  0  0  0  0  0  0
    7.0318    2.9737   26.8126 H   0  0  0  0  0  0  0  0  0  0  0  0
    7.8651    4.1506   27.8332 H   0  0  0  0  0  0  0  0  0  0  0  0
    6.8678    6.6243   27.7577 H   0  0  0  0  0  0  0  0  0  0  0  0
    4.6991    7.7565   28.2190 H   0  0  0  0  0  0  0  0  0  0  0  0
    2.5905    6.4928   27.9393 H   0  0  0  0  0  0  0  0  0  0  0  0
    2.5654    3.0172   26.7102 H   0  0  0  0  0  0  0  0  0  0  0  0
    0.4323    2.8873   26.0047 H   0  0  0  0  0  0  0  0  0  0  0  0
   -1.4325    3.5082   28.3276 H   0  0  0  0  0  0  0  0  0  0  0  0
   -1.6277    3.8971   26.6094 H   0  0  0  0  0  0  0  0  0  0  0  0
   -2.8249    1.7118   27.3792 H   0  0  0  0  0  0  0  0  0  0  0  0
   -1.7494    1.5385   26.0122 H   0  0  0  0  0  0  0  0  0  0  0  0
   -0.7877   -0.1037   27.3564 H   0  0  0  0  0  0  0  0  0  0  0  0
   -2.2560    1.2436   29.4075 H   0  0  0  0  0  0  0  0  0  0  0  0
   -1.8314   -0.4086   29.2653 H   0  0  0  0  0  0  0  0  0  0  0  0
   -0.2061    1.8102   30.5717 H   0  0  0  0  0  0  0  0  0  0  0  0
   -1.1480    0.5946   31.3723 H   0  0  0  0  0  0  0  0  0  0  0  0
    1.2201    0.2447   31.4961 H   0  0  0  0  0  0  0  0  0  0  0  0
   -0.6167   -1.5355   31.5359 H   0  0  0  0  0  0  0  0  0  0  0  0
   -0.1528   -1.8778   28.7647 H   0  0  0  0  0  0  0  0  0  0  0  0
   -1.1128   -2.8136   29.8473 H   0  0  0  0  0  0  0  0  0  0  0  0
    1.5062   -3.4481   28.6790 H   0  0  0  0  0  0  0  0  0  0  0  0
    0.2269   -4.4857   29.2560 H   0  0  0  0  0  0  0  0  0  0  0  0
    1.8498   -5.0129   30.7313 H   0  0  0  0  0  0  0  0  0  0  0  0
    2.7303   -3.5884   30.6630 H   0  0  0  0  0  0  0  0  0  0  0  0
    1.2062   -6.0209   32.9323 H   0  0  0  0  0  0  0  0  0  0  0  0
   -0.2825   -5.8391   33.8855 H   0  0  0  0  0  0  0  0  0  0  0  0
    0.3919   -6.5197   30.1242 H   0  0  0  0  0  0  0  0  0  0  0  0
   -1.6973   -7.9100   33.5143 H   0  0  0  0  0  0  0  0  0  0  0  0
    2.3953   -1.9972   31.5780 H   0  0  0  0  0  0  0  0  0  0  0  0
    1.2208   -1.7967   32.7789 H   0  0  0  0  0  0  0  0  0  0  0  0
    1.5904   -0.7119   28.6649 H   0  0  0  0  0  0  0  0  0  0  0  0
    2.7071   -0.1013   29.8497 H   0  0  0  0  0  0  0  0  0  0  0  0
    2.6156    1.6032   28.3403 H   0  0  0  0  0  0  0  0  0  0  0  0
    1.5338    2.2255   29.5495 H   0  0  0  0  0  0  0  0  0  0  0  0
    1.0420    0.9868   26.8818 H   0  0  0  0  0  0  0  0  0  0  0  0
  1  2  1  0
  2  3  2  0
  3  4  1  0
  4  5  2  0
  5  6  1  0
  6  7  1  0
  7  8  1  0
  8  9  2  0
  8 10  1  0
 10 11  1  0
 11 12  1  0
 12 13  1  0
 13 14  1  0
 14 15  1  0
 15 16  1  0
 16 17  1  0
 17 18  1  0
 18 19  1  0
 19 20  1  0
 20 21  1  0
 21 22  1  0
 22 23  2  0
 22 24  1  0
 24 25  1  0
 25 26  1  0
 26 27  2  0
 27 28  1  0
 28 29  2  0
 21 30  1  0
 16 31  1  0
 31 32  1  0
 32 33  1  0
  6 34  2  0
 34  2  1  0
 33 10  1  0
 33 13  1  0
 30 17  1  0
 29 25  1  0
  1 35  1  0
  1 36  1  0
  1 37  1  0
  3 38  1  0
  4 39  1  0
  5 40  1  0
  7 41  1  0
 10 42  1  0
 11 43  1  0
 11 44  1  0
 12 45  1  0
 12 46  1  0
 13 47  1  0
 14 48  1  0
 14 49  1  0
 15 50  1  0
 15 51  1  0
 16 52  1  0
 17 53  1  0
 18 54  1  0
 18 55  1  0
 19 56  1  0
 19 57  1  0
 20 58  1  0
 20 59  1  0
 24 60  1  0
 24 61  1  0
 26 62  1  0
 29 63  1  0
 30 64  1  0
 30 65  1  0
 31 66  1  0
 31 67  1  0
 32 68  1  0
 32 69  1  0
 33 70  1  0
M  END
>  <Energy>  (85) 
102.53423603557134

>  <compound_id>  (85) 
430

>  <target_id>  (85) 
1

>  <reference_id>  (85) 
134

>  <inspiration_ids>  (85) 
[53, 134]

>  <energy_score>  (85) 
9.925806744809222

>  <distance_score>  (85) 
1.7833672647095409

>  <path>  (85) 
/opt/xchem-fragalysis-2/maxwin/BulkDock/SCRATCH/505733/C430-P134/C430-P134.minimised.mol

>  <scratch_subdir>  (85) 
/opt/xchem-fragalysis-2/maxwin/BulkDock/SCRATCH/505733/C430-P134

>  <fragmenstein_runtime>  (85) 
18.26917028427124

>  <fragmenstein_outcome>  (85) 
too moved

>  <fragmenstein_mode>  (85) 
expansion

>  <fragmenstein_error>  (85) 


$$$$
C431-P53
     RDKit          3D

 58 62  0  0  0  0  0  0  0  0999 V2000
    5.6796    4.1822   27.1655 C   0  0  0  0  0  0  0  0  0  0  0  0
    4.2102    4.4533   27.2486 C   0  0  0  0  0  0  0  0  0  0  0  0
    3.6717    5.6633   26.8382 C   0  0  0  0  0  0  0  0  0  0  0  0
    2.2960    5.8509   26.9647 C   0  0  0  0  0  0  0  0  0  0  0  0
    1.4989    4.8327   27.4963 C   0  0  0  0  0  0  0  0  0  0  0  0
    2.1169    3.6557   27.8708 C   0  0  0  0  0  0  0  0  0  0  0  0
    1.4583    2.5157   28.2762 N   0  0  0  0  0  0  0  0  0  0  0  0
   -0.0671    2.2576   28.5293 C   0  0  0  0  0  0  0  0  0  0  0  0
   -0.9744    2.9958   28.5049 O   0  0  0  0  0  0  0  0  0  0  0  0
   -0.1691    0.7318   28.7287 C   0  0  0  0  0  0  0  0  0  0  0  0
   -0.0043    0.1753   27.3003 C   0  0  0  0  0  0  0  0  0  0  0  0
   -1.3776    0.3759   26.6910 C   0  0  0  0  0  0  0  0  0  0  0  0
   -2.3229    0.1332   27.8361 C   0  0  0  0  0  0  0  0  0  0  0  0
   -1.4853    0.0337   29.1240 C   0  0  0  0  0  0  0  0  0  0  0  0
   -2.2385    0.5062   30.2458 N   0  0  0  0  0  0  0  0  0  0  0  0
   -2.3297   -0.4725   31.2725 N   0  0  0  0  0  0  0  0  0  0  0  0
   -1.1418   -1.2607   31.0381 C   0  0  0  0  0  0  0  0  0  0  0  0
   -1.1976   -2.5326   31.9639 C   0  0  0  0  0  0  0  0  0  0  0  0
   -0.0355   -3.3985   32.1851 N   0  0  0  0  0  0  0  0  0  0  0  0
    1.1949   -2.6213   32.2569 C   0  0  0  0  0  0  0  0  0  0  0  0
    1.7219   -2.2892   30.8877 C   0  0  0  0  0  0  0  0  0  0  0  0
    1.4287   -3.0249   29.7908 C   0  0  0  0  0  0  0  0  0  0  0  0
    1.9021   -2.6099   28.4890 C   0  0  0  0  0  0  0  0  0  0  0  0
    2.6339   -1.4946   28.3266 C   0  0  0  0  0  0  0  0  0  0  0  0
    2.9446   -0.7026   29.4594 C   0  0  0  0  0  0  0  0  0  0  0  0
    3.5891    0.4345   29.5919 N   0  0  0  0  0  0  0  0  0  0  0  0
    3.5842    0.7677   30.9255 N   0  0  0  0  0  0  0  0  0  0  0  0
    2.9297   -0.1702   31.5710 C   0  0  0  0  0  0  0  0  0  0  0  0
    2.4823   -1.1266   30.6984 N   0  0  0  0  0  0  0  0  0  0  0  0
   -1.1714   -1.3634   29.5707 N   0  0  0  0  0  0  0  0  0  0  0  0
    3.4457    3.4607   27.7448 N   0  0  0  0  0  0  0  0  0  0  0  0
    5.9112    3.1626   27.4904 H   0  0  0  0  0  0  0  0  0  0  0  0
    6.0278    4.2968   26.1344 H   0  0  0  0  0  0  0  0  0  0  0  0
    6.2277    4.8782   27.8080 H   0  0  0  0  0  0  0  0  0  0  0  0
    4.3006    6.4502   26.4371 H   0  0  0  0  0  0  0  0  0  0  0  0
    1.8382    6.7864   26.6555 H   0  0  0  0  0  0  0  0  0  0  0  0
    0.4258    4.9605   27.5895 H   0  0  0  0  0  0  0  0  0  0  0  0
    1.9810    1.6678   28.4590 H   0  0  0  0  0  0  0  0  0  0  0  0
    0.6269    0.4449   29.4116 H   0  0  0  0  0  0  0  0  0  0  0  0
    0.7741    0.6662   26.7150 H   0  0  0  0  0  0  0  0  0  0  0  0
    0.2132   -0.8931   27.3174 H   0  0  0  0  0  0  0  0  0  0  0  0
   -1.6196   -0.2942   25.8766 H   0  0  0  0  0  0  0  0  0  0  0  0
   -1.4868    1.3958   26.3034 H   0  0  0  0  0  0  0  0  0  0  0  0
   -2.8878   -0.7870   27.6772 H   0  0  0  0  0  0  0  0  0  0  0  0
   -3.0002    0.9917   27.8415 H   0  0  0  0  0  0  0  0  0  0  0  0
   -3.1325    0.8933   29.9527 H   0  0  0  0  0  0  0  0  0  0  0  0
   -3.1380   -1.0782   31.1436 H   0  0  0  0  0  0  0  0  0  0  0  0
   -0.2879   -0.6514   31.3561 H   0  0  0  0  0  0  0  0  0  0  0  0
   -1.5168   -2.1903   32.9592 H   0  0  0  0  0  0  0  0  0  0  0  0
   -2.0087   -3.1724   31.6008 H   0  0  0  0  0  0  0  0  0  0  0  0
   -0.1728   -3.8950   33.0670 H   0  0  0  0  0  0  0  0  0  0  0  0
    1.9581   -3.2269   32.7618 H   0  0  0  0  0  0  0  0  0  0  0  0
    1.0468   -1.7375   32.8877 H   0  0  0  0  0  0  0  0  0  0  0  0
    0.8187   -3.9213   29.8393 H   0  0  0  0  0  0  0  0  0  0  0  0
    1.6451   -3.2329   27.6453 H   0  0  0  0  0  0  0  0  0  0  0  0
    2.9885   -1.1781   27.3519 H   0  0  0  0  0  0  0  0  0  0  0  0
    2.7568   -0.1933   32.6359 H   0  0  0  0  0  0  0  0  0  0  0  0
   -1.9503   -1.9541   29.2976 H   0  0  0  0  0  0  0  0  0  0  0  0
  1  2  1  0
  2  3  2  0
  3  4  1  0
  4  5  2  0
  5  6  1  0
  6  7  1  0
  7  8  1  0
  8  9  2  0
  8 10  1  0
 10 11  1  0
 11 12  1  0
 12 13  1  0
 13 14  1  0
 14 15  1  0
 15 16  1  0
 16 17  1  0
 17 18  1  0
 18 19  1  0
 19 20  1  0
 20 21  1  0
 21 22  2  0
 22 23  1  0
 23 24  2  0
 24 25  1  0
 25 26  2  0
 26 27  1  0
 27 28  2  0
 28 29  1  0
 17 30  1  0
  6 31  2  0
 31  2  1  0
 14 10  1  0
 29 21  1  0
 30 14  1  0
 29 25  1  0
  1 32  1  0
  1 33  1  0
  1 34  1  0
  3 35  1  0
  4 36  1  0
  5 37  1  0
  7 38  1  0
 10 39  1  0
 11 40  1  0
 11 41  1  0
 12 42  1  0
 12 43  1  0
 13 44  1  0
 13 45  1  0
 15 46  1  0
 16 47  1  0
 17 48  1  0
 18 49  1  0
 18 50  1  0
 19 51  1  0
 20 52  1  0
 20 53  1  0
 22 54  1  0
 23 55  1  0
 24 56  1  0
 28 57  1  0
 30 58  1  0
M  END
>  <Energy>  (86) 
61.288733549800973

>  <compound_id>  (86) 
431

>  <target_id>  (86) 
1

>  <reference_id>  (86) 
53

>  <inspiration_ids>  (86) 
[53, 135]

>  <energy_score>  (86) 
-29.82962101232792

>  <distance_score>  (86) 
2.0278420390205745

>  <path>  (86) 
/opt/xchem-fragalysis-2/maxwin/BulkDock/SCRATCH/505733/C431-P53/C431-P53.minimised.mol

>  <scratch_subdir>  (86) 
/opt/xchem-fragalysis-2/maxwin/BulkDock/SCRATCH/505733/C431-P53

>  <fragmenstein_runtime>  (86) 
5.164177894592285

>  <fragmenstein_outcome>  (86) 
too moved

>  <fragmenstein_mode>  (86) 
expansion

>  <fragmenstein_error>  (86) 


$$$$
C431-P135
     RDKit          3D

 58 62  0  0  0  0  0  0  0  0999 V2000
    6.9290    4.5573   26.6453 C   0  0  0  0  0  0  0  0  0  0  0  0
    5.4731    4.8728   26.6315 C   0  0  0  0  0  0  0  0  0  0  0  0
    5.0006    6.1247   26.2534 C   0  0  0  0  0  0  0  0  0  0  0  0
    3.6411    6.3943   26.3814 C   0  0  0  0  0  0  0  0  0  0  0  0
    2.8079    5.4185   26.9104 C   0  0  0  0  0  0  0  0  0  0  0  0
    3.3765    4.1989   27.2340 C   0  0  0  0  0  0  0  0  0  0  0  0
    2.6761    3.1822   27.8037 N   0  0  0  0  0  0  0  0  0  0  0  0
    1.2704    3.1648   28.4325 C   0  0  0  0  0  0  0  0  0  0  0  0
    0.5216    4.0342   28.6309 O   0  0  0  0  0  0  0  0  0  0  0  0
    0.9852    1.6949   28.7256 C   0  0  0  0  0  0  0  0  0  0  0  0
    0.3795    1.1198   27.4460 C   0  0  0  0  0  0  0  0  0  0  0  0
   -1.1232    1.0149   27.6349 C   0  0  0  0  0  0  0  0  0  0  0  0
   -1.3793    1.6375   28.9895 C   0  0  0  0  0  0  0  0  0  0  0  0
   -0.0660    1.5197   29.8209 C   0  0  0  0  0  0  0  0  0  0  0  0
    0.1231    2.4019   30.9684 N   0  0  0  0  0  0  0  0  0  0  0  0
    1.1169    1.7918   31.8252 N   0  0  0  0  0  0  0  0  0  0  0  0
    1.1004    0.3631   31.5024 C   0  0  0  0  0  0  0  0  0  0  0  0
    1.1172   -0.5767   32.8046 C   0  0  0  0  0  0  0  0  0  0  0  0
   -0.0486   -1.4114   33.1382 N   0  0  0  0  0  0  0  0  0  0  0  0
   -0.0179   -2.7734   32.6285 C   0  0  0  0  0  0  0  0  0  0  0  0
   -0.0723   -2.7841   31.1433 C   0  0  0  0  0  0  0  0  0  0  0  0
   -1.2479   -2.6804   30.4866 C   0  0  0  0  0  0  0  0  0  0  0  0
   -1.2301   -2.3812   29.0745 C   0  0  0  0  0  0  0  0  0  0  0  0
   -0.0708   -2.1913   28.4288 C   0  0  0  0  0  0  0  0  0  0  0  0
    1.1652   -2.4283   29.0601 C   0  0  0  0  0  0  0  0  0  0  0  0
    2.4092   -2.4370   28.6348 N   0  0  0  0  0  0  0  0  0  0  0  0
    3.2111   -2.7721   29.7005 N   0  0  0  0  0  0  0  0  0  0  0  0
    2.4312   -2.9532   30.7421 C   0  0  0  0  0  0  0  0  0  0  0  0
    1.1203   -2.7363   30.4036 N   0  0  0  0  0  0  0  0  0  0  0  0
   -0.0031    0.2322   30.5360 N   0  0  0  0  0  0  0  0  0  0  0  0
    4.6671    3.8957   27.0698 N   0  0  0  0  0  0  0  0  0  0  0  0
    7.1100    3.5152   26.9279 H   0  0  0  0  0  0  0  0  0  0  0  0
    7.3635    4.7248   25.6550 H   0  0  0  0  0  0  0  0  0  0  0  0
    7.4446    5.1961   27.3694 H   0  0  0  0  0  0  0  0  0  0  0  0
    5.6799    6.8902   25.8925 H   0  0  0  0  0  0  0  0  0  0  0  0
    3.2415    7.3663   26.1078 H   0  0  0  0  0  0  0  0  0  0  0  0
    1.7524    5.6147   27.0605 H   0  0  0  0  0  0  0  0  0  0  0  0
    3.0818    2.2585   27.8588 H   0  0  0  0  0  0  0  0  0  0  0  0
    1.9186    1.1822   28.9812 H   0  0  0  0  0  0  0  0  0  0  0  0
    0.5883    1.7673   26.5892 H   0  0  0  0  0  0  0  0  0  0  0  0
    0.8263    0.1471   27.2445 H   0  0  0  0  0  0  0  0  0  0  0  0
   -1.4700   -0.0166   27.5970 H   0  0  0  0  0  0  0  0  0  0  0  0
   -1.6655    1.5487   26.8465 H   0  0  0  0  0  0  0  0  0  0  0  0
   -2.2228    1.1519   29.4835 H   0  0  0  0  0  0  0  0  0  0  0  0
   -1.6407    2.6854   28.8007 H   0  0  0  0  0  0  0  0  0  0  0  0
    0.3674    3.3528   30.6552 H   0  0  0  0  0  0  0  0  0  0  0  0
    0.8751    1.9395   32.8065 H   0  0  0  0  0  0  0  0  0  0  0  0
    2.0357    0.1419   30.9738 H   0  0  0  0  0  0  0  0  0  0  0  0
    2.0338   -1.1772   32.8004 H   0  0  0  0  0  0  0  0  0  0  0  0
    1.2511    0.0774   33.6761 H   0  0  0  0  0  0  0  0  0  0  0  0
   -0.9025   -0.9433   32.8445 H   0  0  0  0  0  0  0  0  0  0  0  0
   -0.8886   -3.3051   33.0335 H   0  0  0  0  0  0  0  0  0  0  0  0
    0.8469   -3.3190   33.0214 H   0  0  0  0  0  0  0  0  0  0  0  0
   -2.2008   -2.6476   31.0038 H   0  0  0  0  0  0  0  0  0  0  0  0
   -2.1671   -2.1848   28.5636 H   0  0  0  0  0  0  0  0  0  0  0  0
   -0.0739   -1.8165   27.4278 H   0  0  0  0  0  0  0  0  0  0  0  0
    2.7596   -3.2390   31.7297 H   0  0  0  0  0  0  0  0  0  0  0  0
   -0.8521    0.2090   31.0890 H   0  0  0  0  0  0  0  0  0  0  0  0
  1  2  1  0
  2  3  2  0
  3  4  1  0
  4  5  2  0
  5  6  1  0
  6  7  1  0
  7  8  1  0
  8  9  2  0
  8 10  1  0
 10 11  1  0
 11 12  1  0
 12 13  1  0
 13 14  1  0
 14 15  1  0
 15 16  1  0
 16 17  1  0
 17 18  1  0
 18 19  1  0
 19 20  1  0
 20 21  1  0
 21 22  2  0
 22 23  1  0
 23 24  2  0
 24 25  1  0
 25 26  2  0
 26 27  1  0
 27 28  2  0
 28 29  1  0
 17 30  1  0
  6 31  2  0
 31  2  1  0
 14 10  1  0
 29 21  1  0
 30 14  1  0
 29 25  1  0
  1 32  1  0
  1 33  1  0
  1 34  1  0
  3 35  1  0
  4 36  1  0
  5 37  1  0
  7 38  1  0
 10 39  1  0
 11 40  1  0
 11 41  1  0
 12 42  1  0
 12 43  1  0
 13 44  1  0
 13 45  1  0
 15 46  1  0
 16 47  1  0
 17 48  1  0
 18 49  1  0
 18 50  1  0
 19 51  1  0
 20 52  1  0
 20 53  1  0
 22 54  1  0
 23 55  1  0
 24 56  1  0
 28 57  1  0
 30 58  1  0
M  END
>  <Energy>  (87) 
56.896437113815608

>  <compound_id>  (87) 
431

>  <target_id>  (87) 
1

>  <reference_id>  (87) 
135

>  <inspiration_ids>  (87) 
[53, 135]

>  <energy_score>  (87) 
-34.221917448312325

>  <distance_score>  (87) 
2.0517229538322184

>  <path>  (87) 
/opt/xchem-fragalysis-2/maxwin/BulkDock/SCRATCH/505733/C431-P135/C431-P135.minimised.mol

>  <scratch_subdir>  (87) 
/opt/xchem-fragalysis-2/maxwin/BulkDock/SCRATCH/505733/C431-P135

>  <fragmenstein_runtime>  (87) 
6.085893869400024

>  <fragmenstein_outcome>  (87) 
too moved

>  <fragmenstein_mode>  (87) 
expansion

>  <fragmenstein_error>  (87) 


$$$$
C432-P53
     RDKit          3D

 71 75  0  0  0  0  0  0  0  0999 V2000
    3.5838   -3.4735   30.2057 N   0  0  0  0  0  0  0  0  0  0  0  0
    3.1847   -2.8297   28.9628 C   0  0  0  0  0  0  0  0  0  0  0  0
    2.1019   -1.8343   29.2441 C   0  0  0  0  0  0  0  0  0  0  0  0
    2.0794   -0.5204   28.6308 C   0  0  0  0  0  0  0  0  0  0  0  0
    3.0608    0.0700   27.6465 C   0  0  0  0  0  0  0  0  0  0  0  0
    4.0962    1.0212   28.2864 C   0  0  0  0  0  0  0  0  0  0  0  0
    5.0613    1.5232   27.2819 N   0  0  0  0  0  0  0  0  0  0  0  0
    5.4545    2.9353   27.5249 C   0  0  0  0  0  0  0  0  0  0  0  0
    4.4097    3.9483   27.0808 C   0  0  0  0  0  0  0  0  0  0  0  0
    4.6743    5.3117   27.0485 C   0  0  0  0  0  0  0  0  0  0  0  0
    3.6395    6.1871   26.7104 C   0  0  0  0  0  0  0  0  0  0  0  0
    2.3691    5.6862   26.4378 C   0  0  0  0  0  0  0  0  0  0  0  0
    2.2045    4.3189   26.4713 C   0  0  0  0  0  0  0  0  0  0  0  0
    1.0125    3.6812   26.2655 N   0  0  0  0  0  0  0  0  0  0  0  0
   -0.3954    4.2537   25.9370 C   0  0  0  0  0  0  0  0  0  0  0  0
   -0.7657    5.3600   25.8684 O   0  0  0  0  0  0  0  0  0  0  0  0
   -1.2847    3.0064   25.6806 C   0  0  0  0  0  0  0  0  0  0  0  0
   -1.1547    1.9187   26.7465 C   0  0  0  0  0  0  0  0  0  0  0  0
   -2.5452    1.3589   26.8822 C   0  0  0  0  0  0  0  0  0  0  0  0
   -3.3819    2.6017   26.7110 C   0  0  0  0  0  0  0  0  0  0  0  0
   -2.7163    3.3447   25.6459 N   0  0  0  0  0  0  0  0  0  0  0  0
    3.1944    3.4577   26.7531 N   0  0  0  0  0  0  0  0  0  0  0  0
    0.9501    0.1129   29.0980 C   0  0  0  0  0  0  0  0  0  0  0  0
    0.2886   -0.7341   29.9275 N   0  0  0  0  0  0  0  0  0  0  0  0
    0.9810   -1.9180   30.0875 C   0  0  0  0  0  0  0  0  0  0  0  0
    0.4022   -2.9036   31.0169 C   0  0  0  0  0  0  0  0  0  0  0  0
   -0.4423   -2.5439   31.7381 O   0  0  0  0  0  0  0  0  0  0  0  0
    0.9817   -4.3101   30.7823 N   0  0  0  0  0  0  0  0  0  0  0  0
    0.6040   -5.5190   31.2857 C   0  0  0  0  0  0  0  0  0  0  0  0
    0.7701   -6.6044   30.5197 C   0  0  0  0  0  0  0  0  0  0  0  0
    0.1169   -7.7809   30.7653 N   0  0  0  0  0  0  0  0  0  0  0  0
   -0.7904   -7.9310   31.7839 C   0  0  0  0  0  0  0  0  0  0  0  0
   -1.5898   -8.8534   31.7733 O   0  0  0  0  0  0  0  0  0  0  0  0
   -0.7075   -6.9178   32.8637 C   0  0  0  0  0  0  0  0  0  0  0  0
   -1.1642   -7.2095   34.1501 C   0  0  0  0  0  0  0  0  0  0  0  0
   -0.8813   -6.3417   35.2041 C   0  0  0  0  0  0  0  0  0  0  0  0
   -0.2021   -5.1530   34.9648 C   0  0  0  0  0  0  0  0  0  0  0  0
    0.2209   -4.8423   33.6729 C   0  0  0  0  0  0  0  0  0  0  0  0
   -0.0219   -5.7199   32.6050 C   0  0  0  0  0  0  0  0  0  0  0  0
    3.8167   -2.7366   30.8769 H   0  0  0  0  0  0  0  0  0  0  0  0
    4.4647   -3.9627   30.0450 H   0  0  0  0  0  0  0  0  0  0  0  0
    4.0665   -2.3486   28.5303 H   0  0  0  0  0  0  0  0  0  0  0  0
    2.8270   -3.5776   28.2471 H   0  0  0  0  0  0  0  0  0  0  0  0
    2.4894    0.6192   26.8866 H   0  0  0  0  0  0  0  0  0  0  0  0
    3.5756   -0.7327   27.1060 H   0  0  0  0  0  0  0  0  0  0  0  0
    4.6576    0.4896   29.0637 H   0  0  0  0  0  0  0  0  0  0  0  0
    3.5613    1.8358   28.7895 H   0  0  0  0  0  0  0  0  0  0  0  0
    4.5913    1.5332   26.3711 H   0  0  0  0  0  0  0  0  0  0  0  0
    5.7019    3.0886   28.5816 H   0  0  0  0  0  0  0  0  0  0  0  0
    6.3652    3.1186   26.9430 H   0  0  0  0  0  0  0  0  0  0  0  0
    5.6566    5.6970   27.3017 H   0  0  0  0  0  0  0  0  0  0  0  0
    3.8139    7.2598   26.6896 H   0  0  0  0  0  0  0  0  0  0  0  0
    1.5472    6.3555   26.2098 H   0  0  0  0  0  0  0  0  0  0  0  0
    1.0022    2.6802   26.1590 H   0  0  0  0  0  0  0  0  0  0  0  0
   -1.0112    2.6172   24.6938 H   0  0  0  0  0  0  0  0  0  0  0  0
   -0.4419    1.1358   26.4757 H   0  0  0  0  0  0  0  0  0  0  0  0
   -0.8471    2.3528   27.7054 H   0  0  0  0  0  0  0  0  0  0  0  0
   -2.6829    0.8741   27.8502 H   0  0  0  0  0  0  0  0  0  0  0  0
   -2.7476    0.6295   26.0918 H   0  0  0  0  0  0  0  0  0  0  0  0
   -4.4221    2.3739   26.4654 H   0  0  0  0  0  0  0  0  0  0  0  0
   -3.3436    3.2015   27.6230 H   0  0  0  0  0  0  0  0  0  0  0  0
   -2.8542    4.3560   25.7918 H   0  0  0  0  0  0  0  0  0  0  0  0
    0.5710    1.1067   28.9119 H   0  0  0  0  0  0  0  0  0  0  0  0
   -0.5759   -0.5347   30.4156 H   0  0  0  0  0  0  0  0  0  0  0  0
    1.7652   -4.2503   30.1415 H   0  0  0  0  0  0  0  0  0  0  0  0
    1.3295   -6.5547   29.5955 H   0  0  0  0  0  0  0  0  0  0  0  0
    0.1632   -8.5463   30.0987 H   0  0  0  0  0  0  0  0  0  0  0  0
   -1.7047   -8.1285   34.3419 H   0  0  0  0  0  0  0  0  0  0  0  0
   -1.1825   -6.5894   36.2158 H   0  0  0  0  0  0  0  0  0  0  0  0
    0.0071   -4.4688   35.7830 H   0  0  0  0  0  0  0  0  0  0  0  0
    0.7888   -3.9275   33.5269 H   0  0  0  0  0  0  0  0  0  0  0  0
  1  2  1  0
  2  3  1  0
  3  4  1  0
  4  5  1  0
  5  6  1  0
  6  7  1  0
  7  8  1  0
  8  9  1  0
  9 10  2  0
 10 11  1  0
 11 12  2  0
 12 13  1  0
 13 14  1  0
 14 15  1  0
 15 16  2  0
 15 17  1  0
 17 18  1  0
 18 19  1  0
 19 20  1  0
 20 21  1  0
 13 22  2  0
  4 23  2  0
 23 24  1  0
 24 25  1  0
 25 26  1  0
 26 27  2  0
 26 28  1  0
 28 29  1  0
 29 30  2  0
 30 31  1  0
 31 32  1  0
 32 33  2  0
 32 34  1  0
 34 35  2  0
 35 36  1  0
 36 37  2  0
 37 38  1  0
 38 39  2  0
 25  3  2  0
 39 29  1  0
 22  9  1  0
 39 34  1  0
 21 17  1  0
  1 40  1  0
  1 41  1  0
  2 42  1  0
  2 43  1  0
  5 44  1  0
  5 45  1  0
  6 46  1  0
  6 47  1  0
  7 48  1  0
  8 49  1  0
  8 50  1  0
 10 51  1  0
 11 52  1  0
 12 53  1  0
 14 54  1  0
 17 55  1  0
 18 56  1  0
 18 57  1  0
 19 58  1  0
 19 59  1  0
 20 60  1  0
 20 61  1  0
 21 62  1  0
 23 63  1  0
 24 64  1  0
 28 65  1  0
 30 66  1  0
 31 67  1  0
 35 68  1  0
 36 69  1  0
 37 70  1  0
 38 71  1  0
M  END
>  <Energy>  (88) 
91.509996115972186

>  <compound_id>  (88) 
432

>  <target_id>  (88) 
1

>  <reference_id>  (88) 
53

>  <inspiration_ids>  (88) 
[53, 141]

>  <energy_score>  (88) 
-55.548236528661505

>  <distance_score>  (88) 
1.4508019065651336

>  <path>  (88) 
/opt/xchem-fragalysis-2/maxwin/BulkDock/SCRATCH/505733/C432-P53/C432-P53.minimised.mol

>  <scratch_subdir>  (88) 
/opt/xchem-fragalysis-2/maxwin/BulkDock/SCRATCH/505733/C432-P53

>  <fragmenstein_runtime>  (88) 
18.737136363983154

>  <fragmenstein_outcome>  (88) 
too moved

>  <fragmenstein_mode>  (88) 
expansion

>  <fragmenstein_error>  (88) 


$$$$
C432-P141
     RDKit          3D

 71 75  0  0  0  0  0  0  0  0999 V2000
    3.6585   -3.4273   30.9982 N   0  0  0  0  0  0  0  0  0  0  0  0
    3.4218   -3.4281   29.5591 C   0  0  0  0  0  0  0  0  0  0  0  0
    2.2848   -2.4971   29.3144 C   0  0  0  0  0  0  0  0  0  0  0  0
    2.3759   -1.1590   28.7641 C   0  0  0  0  0  0  0  0  0  0  0  0
    3.6040   -0.4635   28.2219 C   0  0  0  0  0  0  0  0  0  0  0  0
    3.8585    0.9882   28.6833 C   0  0  0  0  0  0  0  0  0  0  0  0
    4.8712    1.5848   27.7823 N   0  0  0  0  0  0  0  0  0  0  0  0
    5.2262    2.9885   28.1013 C   0  0  0  0  0  0  0  0  0  0  0  0
    4.3200    4.0164   27.4482 C   0  0  0  0  0  0  0  0  0  0  0  0
    4.6259    5.3721   27.4379 C   0  0  0  0  0  0  0  0  0  0  0  0
    3.6859    6.2701   26.9255 C   0  0  0  0  0  0  0  0  0  0  0  0
    2.4603    5.7992   26.4670 C   0  0  0  0  0  0  0  0  0  0  0  0
    2.2624    4.4372   26.4841 C   0  0  0  0  0  0  0  0  0  0  0  0
    1.0973    3.8238   26.1315 N   0  0  0  0  0  0  0  0  0  0  0  0
   -0.3008    4.4227   25.8036 C   0  0  0  0  0  0  0  0  0  0  0  0
   -0.6448    5.5355   25.7110 O   0  0  0  0  0  0  0  0  0  0  0  0
   -1.1999    3.1793   25.6256 C   0  0  0  0  0  0  0  0  0  0  0  0
   -1.1284    2.2285   26.8238 C   0  0  0  0  0  0  0  0  0  0  0  0
   -2.5192    1.6689   26.9326 C   0  0  0  0  0  0  0  0  0  0  0  0
   -3.3525    2.8645   26.5493 C   0  0  0  0  0  0  0  0  0  0  0  0
   -2.6210    3.5088   25.4635 N   0  0  0  0  0  0  0  0  0  0  0  0
    3.1712    3.5502   26.9202 N   0  0  0  0  0  0  0  0  0  0  0  0
    1.0780   -0.6947   28.6685 C   0  0  0  0  0  0  0  0  0  0  0  0
    0.2259   -1.6917   29.0436 N   0  0  0  0  0  0  0  0  0  0  0  0
    0.9337   -2.7930   29.4787 C   0  0  0  0  0  0  0  0  0  0  0  0
    0.2105   -4.0015   29.8613 C   0  0  0  0  0  0  0  0  0  0  0  0
   -0.7799   -4.2191   29.2886 O   0  0  0  0  0  0  0  0  0  0  0  0
    0.8727   -4.7539   31.0352 N   0  0  0  0  0  0  0  0  0  0  0  0
    0.4267   -5.8246   31.7751 C   0  0  0  0  0  0  0  0  0  0  0  0
   -0.5416   -6.6322   31.3042 C   0  0  0  0  0  0  0  0  0  0  0  0
   -1.2647   -7.4783   32.1112 N   0  0  0  0  0  0  0  0  0  0  0  0
   -1.1643   -7.4569   33.4834 C   0  0  0  0  0  0  0  0  0  0  0  0
   -2.0292   -7.9042   34.2245 O   0  0  0  0  0  0  0  0  0  0  0  0
    0.0615   -6.8397   34.0167 C   0  0  0  0  0  0  0  0  0  0  0  0
    0.4117   -7.0626   35.3549 C   0  0  0  0  0  0  0  0  0  0  0  0
    1.5854   -6.5135   35.8621 C   0  0  0  0  0  0  0  0  0  0  0  0
    2.3987   -5.7400   35.0366 C   0  0  0  0  0  0  0  0  0  0  0  0
    2.0401   -5.5077   33.7029 C   0  0  0  0  0  0  0  0  0  0  0  0
    0.8636   -6.0530   33.1687 C   0  0  0  0  0  0  0  0  0  0  0  0
    3.7987   -2.4542   31.2841 H   0  0  0  0  0  0  0  0  0  0  0  0
    4.5595   -3.8765   31.1650 H   0  0  0  0  0  0  0  0  0  0  0  0
    4.3268   -3.1214   29.0289 H   0  0  0  0  0  0  0  0  0  0  0  0
    3.1773   -4.4408   29.2212 H   0  0  0  0  0  0  0  0  0  0  0  0
    3.5010   -0.4814   27.1270 H   0  0  0  0  0  0  0  0  0  0  0  0
    4.5010   -1.0509   28.4468 H   0  0  0  0  0  0  0  0  0  0  0  0
    4.2232    0.9822   29.7168 H   0  0  0  0  0  0  0  0  0  0  0  0
    2.9298    1.5674   28.6572 H   0  0  0  0  0  0  0  0  0  0  0  0
    4.4031    1.6253   26.8673 H   0  0  0  0  0  0  0  0  0  0  0  0
    5.2510    3.1473   29.1854 H   0  0  0  0  0  0  0  0  0  0  0  0
    6.2412    3.1539   27.7222 H   0  0  0  0  0  0  0  0  0  0  0  0
    5.5622    5.7362   27.8484 H   0  0  0  0  0  0  0  0  0  0  0  0
    3.8926    7.3371   26.9230 H   0  0  0  0  0  0  0  0  0  0  0  0
    1.6989    6.4837   26.1111 H   0  0  0  0  0  0  0  0  0  0  0  0
    1.0616    2.8214   26.0506 H   0  0  0  0  0  0  0  0  0  0  0  0
   -0.8778    2.6877   24.7030 H   0  0  0  0  0  0  0  0  0  0  0  0
   -0.3960    1.4310   26.6980 H   0  0  0  0  0  0  0  0  0  0  0  0
   -0.8763    2.7690   27.7458 H   0  0  0  0  0  0  0  0  0  0  0  0
   -2.7124    1.3219   27.9472 H   0  0  0  0  0  0  0  0  0  0  0  0
   -2.6642    0.8385   26.2349 H   0  0  0  0  0  0  0  0  0  0  0  0
   -4.3687    2.5891   26.2573 H   0  0  0  0  0  0  0  0  0  0  0  0
   -3.3847    3.5683   27.3811 H   0  0  0  0  0  0  0  0  0  0  0  0
   -2.7603    4.5271   25.5157 H   0  0  0  0  0  0  0  0  0  0  0  0
    0.6880    0.2355   28.2837 H   0  0  0  0  0  0  0  0  0  0  0  0
   -0.7834   -1.6788   28.9464 H   0  0  0  0  0  0  0  0  0  0  0  0
    1.6966   -4.2396   31.3479 H   0  0  0  0  0  0  0  0  0  0  0  0
   -0.8695   -6.5889   30.2735 H   0  0  0  0  0  0  0  0  0  0  0  0
   -2.1006   -7.9335   31.7627 H   0  0  0  0  0  0  0  0  0  0  0  0
   -0.2288   -7.6660   35.9964 H   0  0  0  0  0  0  0  0  0  0  0  0
    1.8572   -6.6807   36.9022 H   0  0  0  0  0  0  0  0  0  0  0  0
    3.3106   -5.3008   35.4361 H   0  0  0  0  0  0  0  0  0  0  0  0
    2.7009   -4.8943   33.0986 H   0  0  0  0  0  0  0  0  0  0  0  0
  1  2  1  0
  2  3  1  0
  3  4  1  0
  4  5  1  0
  5  6  1  0
  6  7  1  0
  7  8  1  0
  8  9  1  0
  9 10  2  0
 10 11  1  0
 11 12  2  0
 12 13  1  0
 13 14  1  0
 14 15  1  0
 15 16  2  0
 15 17  1  0
 17 18  1  0
 18 19  1  0
 19 20  1  0
 20 21  1  0
 13 22  2  0
  4 23  2  0
 23 24  1  0
 24 25  1  0
 25 26  1  0
 26 27  2  0
 26 28  1  0
 28 29  1  0
 29 30  2  0
 30 31  1  0
 31 32  1  0
 32 33  2  0
 32 34  1  0
 34 35  2  0
 35 36  1  0
 36 37  2  0
 37 38  1  0
 38 39  2  0
 25  3  2  0
 39 29  1  0
 22  9  1  0
 39 34  1  0
 21 17  1  0
  1 40  1  0
  1 41  1  0
  2 42  1  0
  2 43  1  0
  5 44  1  0
  5 45  1  0
  6 46  1  0
  6 47  1  0
  7 48  1  0
  8 49  1  0
  8 50  1  0
 10 51  1  0
 11 52  1  0
 12 53  1  0
 14 54  1  0
 17 55  1  0
 18 56  1  0
 18 57  1  0
 19 58  1  0
 19 59  1  0
 20 60  1  0
 20 61  1  0
 21 62  1  0
 23 63  1  0
 24 64  1  0
 28 65  1  0
 30 66  1  0
 31 67  1  0
 35 68  1  0
 36 69  1  0
 37 70  1  0
 38 71  1  0
M  END
>  <Energy>  (89) 
85.217024905527381

>  <compound_id>  (89) 
432

>  <target_id>  (89) 
1

>  <reference_id>  (89) 
141

>  <inspiration_ids>  (89) 
[53, 141]

>  <energy_score>  (89) 
-61.8412077390966

>  <distance_score>  (89) 
1.566792987764739

>  <path>  (89) 
/opt/xchem-fragalysis-2/maxwin/BulkDock/SCRATCH/505733/C432-P141/C432-P141.minimised.mol

>  <scratch_subdir>  (89) 
/opt/xchem-fragalysis-2/maxwin/BulkDock/SCRATCH/505733/C432-P141

>  <fragmenstein_runtime>  (89) 
16.650532960891724

>  <fragmenstein_outcome>  (89) 
too moved

>  <fragmenstein_mode>  (89) 
expansion

>  <fragmenstein_error>  (89) 


$$$$
C433-P53
     RDKit          3D

 74 80  0  0  0  0  0  0  0  0999 V2000
   -1.3132   -2.8895   33.7562 C   0  0  0  0  0  0  0  0  0  0  0  0
   -0.0400   -3.1977   34.0291 C   0  0  0  0  0  0  0  0  0  0  0  0
    0.8970   -3.9938   33.1857 C   0  0  0  0  0  0  0  0  0  0  0  0
    0.2359   -4.8390   32.2310 N   0  0  0  0  0  0  0  0  0  0  0  0
   -0.3128   -6.0824   32.4415 C   0  0  0  0  0  0  0  0  0  0  0  0
   -0.7403   -6.7973   33.9626 S   0  0  0  0  0  0  0  0  0  0  0  0
    0.7329   -6.7441   34.8658 C   0  0  0  0  0  0  0  0  0  0  0  0
    1.9056   -7.1739   34.3589 C   0  0  0  0  0  0  0  0  0  0  0  0
    3.1145   -7.1246   35.1666 C   0  0  0  0  0  0  0  0  0  0  0  0
    3.0943   -6.6492   36.4255 C   0  0  0  0  0  0  0  0  0  0  0  0
    1.8734   -6.1749   36.9719 C   0  0  0  0  0  0  0  0  0  0  0  0
    1.5755   -5.6293   38.1298 N   0  0  0  0  0  0  0  0  0  0  0  0
    0.2371   -5.3153   38.1145 N   0  0  0  0  0  0  0  0  0  0  0  0
   -0.2461   -5.6792   36.9491 C   0  0  0  0  0  0  0  0  0  0  0  0
    0.7350   -6.2434   36.1779 N   0  0  0  0  0  0  0  0  0  0  0  0
   -0.6497   -6.5959   31.2838 N   0  0  0  0  0  0  0  0  0  0  0  0
   -0.3686   -5.6501   30.3208 N   0  0  0  0  0  0  0  0  0  0  0  0
    0.0350   -4.5221   30.8981 C   0  0  0  0  0  0  0  0  0  0  0  0
    0.3134   -3.1231   30.1913 C   0  0  0  0  0  0  0  0  0  0  0  0
   -0.2342   -1.8546   30.9212 C   0  0  0  0  0  0  0  0  0  0  0  0
    0.1395   -0.4055   30.4624 C   0  0  0  0  0  0  0  0  0  0  0  0
   -0.3017    0.1339   29.0751 C   0  0  0  0  0  0  0  0  0  0  0  0
    0.2969   -0.7930   28.0239 C   0  0  0  0  0  0  0  0  0  0  0  0
   -0.6715   -1.9562   28.0269 C   0  0  0  0  0  0  0  0  0  0  0  0
   -0.1830   -3.2144   28.7381 C   0  0  0  0  0  0  0  0  0  0  0  0
   -2.0367   -1.4254   28.4496 C   0  0  0  0  0  0  0  0  0  0  0  0
   -1.8118    0.0300   28.8069 C   0  0  0  0  0  0  0  0  0  0  0  0
   -2.0776    0.9840   27.6380 C   0  0  0  0  0  0  0  0  0  0  0  0
   -1.0982    2.1238   27.8360 C   0  0  0  0  0  0  0  0  0  0  0  0
   -0.0327    1.6536   28.8616 C   0  0  0  0  0  0  0  0  0  0  0  0
    1.4178    1.9894   28.4650 C   0  0  0  0  0  0  0  0  0  0  0  0
    2.2829    1.2061   28.5393 O   0  0  0  0  0  0  0  0  0  0  0  0
    1.4273    3.4564   27.9429 N   0  0  0  0  0  0  0  0  0  0  0  0
    2.4717    4.2468   27.5167 C   0  0  0  0  0  0  0  0  0  0  0  0
    2.1997    5.4950   26.9759 C   0  0  0  0  0  0  0  0  0  0  0  0
    3.2623    6.2435   26.4778 C   0  0  0  0  0  0  0  0  0  0  0  0
    4.5519    5.7255   26.5471 C   0  0  0  0  0  0  0  0  0  0  0  0
    4.7339    4.4707   27.1148 C   0  0  0  0  0  0  0  0  0  0  0  0
    6.0965    3.8679   27.2408 C   0  0  0  0  0  0  0  0  0  0  0  0
    3.7097    3.7396   27.5955 N   0  0  0  0  0  0  0  0  0  0  0  0
   -1.8314   -3.2148   32.8642 H   0  0  0  0  0  0  0  0  0  0  0  0
   -1.8932   -2.2962   34.4590 H   0  0  0  0  0  0  0  0  0  0  0  0
    0.3836   -2.8135   34.9572 H   0  0  0  0  0  0  0  0  0  0  0  0
    1.5471   -4.5997   33.8124 H   0  0  0  0  0  0  0  0  0  0  0  0
    1.5887   -3.3302   32.6560 H   0  0  0  0  0  0  0  0  0  0  0  0
    1.9709   -7.5256   33.3385 H   0  0  0  0  0  0  0  0  0  0  0  0
    4.0451   -7.4771   34.7321 H   0  0  0  0  0  0  0  0  0  0  0  0
    3.9892   -6.6059   37.0376 H   0  0  0  0  0  0  0  0  0  0  0  0
   -1.2616   -5.5419   36.6145 H   0  0  0  0  0  0  0  0  0  0  0  0
    1.4080   -3.0268   30.1660 H   0  0  0  0  0  0  0  0  0  0  0  0
    0.1772   -1.8642   31.9258 H   0  0  0  0  0  0  0  0  0  0  0  0
   -1.3177   -1.9285   31.0452 H   0  0  0  0  0  0  0  0  0  0  0  0
    1.2304   -0.3097   30.5448 H   0  0  0  0  0  0  0  0  0  0  0  0
   -0.2709    0.2715   31.2249 H   0  0  0  0  0  0  0  0  0  0  0  0
    0.3116   -0.3107   27.0414 H   0  0  0  0  0  0  0  0  0  0  0  0
    1.3242   -1.1071   28.2363 H   0  0  0  0  0  0  0  0  0  0  0  0
   -0.8247   -2.2426   27.0123 H   0  0  0  0  0  0  0  0  0  0  0  0
   -0.9949   -3.9406   28.6719 H   0  0  0  0  0  0  0  0  0  0  0  0
    0.6367   -3.6453   28.1477 H   0  0  0  0  0  0  0  0  0  0  0  0
   -2.7715   -1.5210   27.6456 H   0  0  0  0  0  0  0  0  0  0  0  0
   -2.4203   -1.9946   29.2963 H   0  0  0  0  0  0  0  0  0  0  0  0
   -2.4030    0.3264   29.6795 H   0  0  0  0  0  0  0  0  0  0  0  0
   -3.1047    1.3524   27.6081 H   0  0  0  0  0  0  0  0  0  0  0  0
   -1.8926    0.4994   26.6712 H   0  0  0  0  0  0  0  0  0  0  0  0
   -0.6708    2.3963   26.8646 H   0  0  0  0  0  0  0  0  0  0  0  0
   -1.6203    3.0066   28.2236 H   0  0  0  0  0  0  0  0  0  0  0  0
   -0.2120    2.1828   29.8068 H   0  0  0  0  0  0  0  0  0  0  0  0
    0.4874    3.8210   27.9443 H   0  0  0  0  0  0  0  0  0  0  0  0
    1.1878    5.8793   26.9180 H   0  0  0  0  0  0  0  0  0  0  0  0
    3.0859    7.2215   26.0395 H   0  0  0  0  0  0  0  0  0  0  0  0
    5.3953    6.2942   26.1698 H   0  0  0  0  0  0  0  0  0  0  0  0
    6.0390    2.8348   27.5985 H   0  0  0  0  0  0  0  0  0  0  0  0
    6.6977    4.4440   27.9509 H   0  0  0  0  0  0  0  0  0  0  0  0
    6.6000    3.8615   26.2698 H   0  0  0  0  0  0  0  0  0  0  0  0
  1  2  2  0
  2  3  1  0
  3  4  1  0
  4  5  1  0
  5  6  1  0
  6  7  1  0
  7  8  2  0
  8  9  1  0
  9 10  2  0
 10 11  1  0
 11 12  2  0
 12 13  1  0
 13 14  2  0
 14 15  1  0
  5 16  2  0
 16 17  1  0
 17 18  2  0
 18 19  1  0
 19 20  1  0
 20 21  1  0
 21 22  1  0
 22 23  1  0
 23 24  1  0
 24 25  1  0
 24 26  1  0
 26 27  1  0
 27 28  1  0
 28 29  1  0
 29 30  1  0
 30 31  1  0
 31 32  2  0
 31 33  1  0
 33 34  1  0
 34 35  2  0
 35 36  1  0
 36 37  2  0
 37 38  1  0
 38 39  1  0
 38 40  2  0
 18  4  1  0
 25 19  1  0
 40 34  1  0
 15  7  1  0
 27 22  1  0
 15 11  1  0
 30 22  1  0
  1 41  1  0
  1 42  1  0
  2 43  1  0
  3 44  1  0
  3 45  1  0
  8 46  1  0
  9 47  1  0
 10 48  1  0
 14 49  1  0
 19 50  1  0
 20 51  1  0
 20 52  1  0
 21 53  1  0
 21 54  1  0
 23 55  1  0
 23 56  1  0
 24 57  1  0
 25 58  1  0
 25 59  1  0
 26 60  1  0
 26 61  1  0
 27 62  1  0
 28 63  1  0
 28 64  1  0
 29 65  1  0
 29 66  1  0
 30 67  1  0
 33 68  1  0
 35 69  1  0
 36 70  1  0
 37 71  1  0
 39 72  1  0
 39 73  1  0
 39 74  1  0
M  END
>  <Energy>  (90) 
112.55246658941741

>  <compound_id>  (90) 
433

>  <target_id>  (90) 
1

>  <reference_id>  (90) 
53

>  <inspiration_ids>  (90) 
[53, 142]

>  <energy_score>  (90) 
-67.72759695338931

>  <distance_score>  (90) 
2.156133690093488

>  <path>  (90) 
/opt/xchem-fragalysis-2/maxwin/BulkDock/SCRATCH/505733/C433-P53/C433-P53.minimised.mol

>  <scratch_subdir>  (90) 
/opt/xchem-fragalysis-2/maxwin/BulkDock/SCRATCH/505733/C433-P53

>  <fragmenstein_runtime>  (90) 
25.683300733566284

>  <fragmenstein_outcome>  (90) 
too moved

>  <fragmenstein_mode>  (90) 
expansion

>  <fragmenstein_error>  (90) 


$$$$
C433-P142
     RDKit          3D

 74 80  0  0  0  0  0  0  0  0999 V2000
   -2.4046   -2.8016   32.3887 C   0  0  0  0  0  0  0  0  0  0  0  0
   -1.5351   -2.9212   33.4038 C   0  0  0  0  0  0  0  0  0  0  0  0
   -0.3045   -3.7685   33.5078 C   0  0  0  0  0  0  0  0  0  0  0  0
   -0.0844   -4.5862   32.3484 N   0  0  0  0  0  0  0  0  0  0  0  0
   -0.2622   -5.9404   32.2436 C   0  0  0  0  0  0  0  0  0  0  0  0
   -0.4216   -7.0463   33.5634 S   0  0  0  0  0  0  0  0  0  0  0  0
    1.0131   -6.6725   34.4954 C   0  0  0  0  0  0  0  0  0  0  0  0
    2.1606   -6.2073   33.9523 C   0  0  0  0  0  0  0  0  0  0  0  0
    3.2834   -5.8396   34.8024 C   0  0  0  0  0  0  0  0  0  0  0  0
    3.2120   -5.9452   36.1403 C   0  0  0  0  0  0  0  0  0  0  0  0
    2.0240   -6.4415   36.7335 C   0  0  0  0  0  0  0  0  0  0  0  0
    1.6723   -6.6107   37.9876 N   0  0  0  0  0  0  0  0  0  0  0  0
    0.4104   -7.1541   37.9952 N   0  0  0  0  0  0  0  0  0  0  0  0
    0.0340   -7.3170   36.7461 C   0  0  0  0  0  0  0  0  0  0  0  0
    0.9819   -6.8213   35.8942 N   0  0  0  0  0  0  0  0  0  0  0  0
   -0.2020   -6.2806   30.9821 N   0  0  0  0  0  0  0  0  0  0  0  0
    0.1756   -5.1524   30.2723 N   0  0  0  0  0  0  0  0  0  0  0  0
    0.3234   -4.1270   31.1062 C   0  0  0  0  0  0  0  0  0  0  0  0
    0.9932   -2.7193   30.8185 C   0  0  0  0  0  0  0  0  0  0  0  0
    0.2018   -1.4264   31.1998 C   0  0  0  0  0  0  0  0  0  0  0  0
    0.4745   -0.0149   30.5674 C   0  0  0  0  0  0  0  0  0  0  0  0
    0.0796    0.2218   29.0688 C   0  0  0  0  0  0  0  0  0  0  0  0
    1.1449   -0.4529   28.2139 C   0  0  0  0  0  0  0  0  0  0  0  0
    0.7994   -1.9392   28.3187 C   0  0  0  0  0  0  0  0  0  0  0  0
    1.5851   -2.6703   29.4122 C   0  0  0  0  0  0  0  0  0  0  0  0
   -0.7380   -1.9839   28.3806 C   0  0  0  0  0  0  0  0  0  0  0  0
   -1.1937   -0.5670   28.6938 C   0  0  0  0  0  0  0  0  0  0  0  0
   -1.7822    0.2436   27.5493 C   0  0  0  0  0  0  0  0  0  0  0  0
   -1.7517    1.6195   28.1824 C   0  0  0  0  0  0  0  0  0  0  0  0
   -0.2785    1.7068   28.6707 C   0  0  0  0  0  0  0  0  0  0  0  0
    0.4800    2.4123   27.5107 C   0  0  0  0  0  0  0  0  0  0  0  0
   -0.0193    2.6161   26.4768 O   0  0  0  0  0  0  0  0  0  0  0  0
    1.8620    2.8265   28.0509 N   0  0  0  0  0  0  0  0  0  0  0  0
    2.8361    3.6209   27.4954 C   0  0  0  0  0  0  0  0  0  0  0  0
    2.5328    4.4589   26.4253 C   0  0  0  0  0  0  0  0  0  0  0  0
    3.5361    5.2598   25.8945 C   0  0  0  0  0  0  0  0  0  0  0  0
    4.8150    5.1600   26.4207 C   0  0  0  0  0  0  0  0  0  0  0  0
    5.0322    4.2812   27.4799 C   0  0  0  0  0  0  0  0  0  0  0  0
    6.4144    4.0709   28.0066 C   0  0  0  0  0  0  0  0  0  0  0  0
    4.0521    3.5441   28.0504 N   0  0  0  0  0  0  0  0  0  0  0  0
   -2.2843   -3.3007   31.4333 H   0  0  0  0  0  0  0  0  0  0  0  0
   -3.2764   -2.1606   32.4944 H   0  0  0  0  0  0  0  0  0  0  0  0
   -1.7665   -2.3675   34.3143 H   0  0  0  0  0  0  0  0  0  0  0  0
   -0.4081   -4.3880   34.4000 H   0  0  0  0  0  0  0  0  0  0  0  0
    0.5828   -3.1457   33.6599 H   0  0  0  0  0  0  0  0  0  0  0  0
    2.2950   -6.0647   32.8844 H   0  0  0  0  0  0  0  0  0  0  0  0
    4.1832   -5.4593   34.3257 H   0  0  0  0  0  0  0  0  0  0  0  0
    4.0379   -5.6630   36.7845 H   0  0  0  0  0  0  0  0  0  0  0  0
   -0.8779   -7.7876   36.4094 H   0  0  0  0  0  0  0  0  0  0  0  0
    1.8653   -2.7348   31.4920 H   0  0  0  0  0  0  0  0  0  0  0  0
    0.3368   -1.2805   32.2786 H   0  0  0  0  0  0  0  0  0  0  0  0
   -0.8562   -1.6066   31.0557 H   0  0  0  0  0  0  0  0  0  0  0  0
    1.5260    0.2537   30.7277 H   0  0  0  0  0  0  0  0  0  0  0  0
   -0.1075    0.6965   31.1696 H   0  0  0  0  0  0  0  0  0  0  0  0
    1.0768   -0.1365   27.1722 H   0  0  0  0  0  0  0  0  0  0  0  0
    2.1650   -0.2208   28.5376 H   0  0  0  0  0  0  0  0  0  0  0  0
    1.1626   -2.4165   27.4230 H   0  0  0  0  0  0  0  0  0  0  0  0
    1.7916   -3.6896   29.0592 H   0  0  0  0  0  0  0  0  0  0  0  0
    2.5817   -2.2115   29.4798 H   0  0  0  0  0  0  0  0  0  0  0  0
   -1.2034   -2.2957   27.4604 H   0  0  0  0  0  0  0  0  0  0  0  0
   -1.0995   -2.6999   29.1225 H   0  0  0  0  0  0  0  0  0  0  0  0
   -1.9247   -0.5808   29.5120 H   0  0  0  0  0  0  0  0  0  0  0  0
   -2.7566   -0.1003   27.2357 H   0  0  0  0  0  0  0  0  0  0  0  0
   -1.1536    0.2140   26.6620 H   0  0  0  0  0  0  0  0  0  0  0  0
   -2.0774    2.4086   27.4992 H   0  0  0  0  0  0  0  0  0  0  0  0
   -2.4236    1.6394   29.0391 H   0  0  0  0  0  0  0  0  0  0  0  0
   -0.2291    2.3747   29.5379 H   0  0  0  0  0  0  0  0  0  0  0  0
    2.0063    2.4124   28.9590 H   0  0  0  0  0  0  0  0  0  0  0  0
    1.5304    4.5086   26.0129 H   0  0  0  0  0  0  0  0  0  0  0  0
    3.3227    5.9311   25.0685 H   0  0  0  0  0  0  0  0  0  0  0  0
    5.6293    5.7436   26.0039 H   0  0  0  0  0  0  0  0  0  0  0  0
    6.4093    3.3906   28.8644 H   0  0  0  0  0  0  0  0  0  0  0  0
    6.8458    5.0224   28.3331 H   0  0  0  0  0  0  0  0  0  0  0  0
    7.0524    3.6357   27.2310 H   0  0  0  0  0  0  0  0  0  0  0  0
  1  2  2  0
  2  3  1  0
  3  4  1  0
  4  5  1  0
  5  6  1  0
  6  7  1  0
  7  8  2  0
  8  9  1  0
  9 10  2  0
 10 11  1  0
 11 12  2  0
 12 13  1  0
 13 14  2  0
 14 15  1  0
  5 16  2  0
 16 17  1  0
 17 18  2  0
 18 19  1  0
 19 20  1  0
 20 21  1  0
 21 22  1  0
 22 23  1  0
 23 24  1  0
 24 25  1  0
 24 26  1  0
 26 27  1  0
 27 28  1  0
 28 29  1  0
 29 30  1  0
 30 31  1  0
 31 32  2  0
 31 33  1  0
 33 34  1  0
 34 35  2  0
 35 36  1  0
 36 37  2  0
 37 38  1  0
 38 39  1  0
 38 40  2  0
 18  4  1  0
 25 19  1  0
 40 34  1  0
 15  7  1  0
 27 22  1  0
 15 11  1  0
 30 22  1  0
  1 41  1  0
  1 42  1  0
  2 43  1  0
  3 44  1  0
  3 45  1  0
  8 46  1  0
  9 47  1  0
 10 48  1  0
 14 49  1  0
 19 50  1  0
 20 51  1  0
 20 52  1  0
 21 53  1  0
 21 54  1  0
 23 55  1  0
 23 56  1  0
 24 57  1  0
 25 58  1  0
 25 59  1  0
 26 60  1  0
 26 61  1  0
 27 62  1  0
 28 63  1  0
 28 64  1  0
 29 65  1  0
 29 66  1  0
 30 67  1  0
 33 68  1  0
 35 69  1  0
 36 70  1  0
 37 71  1  0
 39 72  1  0
 39 73  1  0
 39 74  1  0
M  END
>  <Energy>  (91) 
115.73009551907363

>  <compound_id>  (91) 
433

>  <target_id>  (91) 
1

>  <reference_id>  (91) 
142

>  <inspiration_ids>  (91) 
[53, 142]

>  <energy_score>  (91) 
-64.54996802372483

>  <distance_score>  (91) 
2.188996762442626

>  <path>  (91) 
/opt/xchem-fragalysis-2/maxwin/BulkDock/SCRATCH/505733/C433-P142/C433-P142.minimised.mol

>  <scratch_subdir>  (91) 
/opt/xchem-fragalysis-2/maxwin/BulkDock/SCRATCH/505733/C433-P142

>  <fragmenstein_runtime>  (91) 
23.267949104309082

>  <fragmenstein_outcome>  (91) 
too moved

>  <fragmenstein_mode>  (91) 
expansion

>  <fragmenstein_error>  (91) 


$$$$
C434-P53
     RDKit          3D

 70 75  0  0  0  0  0  0  0  0999 V2000
   -1.7242   -1.9129   31.0223 C   0  0  0  0  0  0  0  0  0  0  0  0
   -0.7657   -2.7354   31.4683 C   0  0  0  0  0  0  0  0  0  0  0  0
    0.6121   -2.8258   30.8699 C   0  0  0  0  0  0  0  0  0  0  0  0
    1.6357   -2.6948   31.8942 N   0  0  0  0  0  0  0  0  0  0  0  0
    2.3055   -3.6879   32.5446 C   0  0  0  0  0  0  0  0  0  0  0  0
    2.3478   -5.3236   32.0144 S   0  0  0  0  0  0  0  0  0  0  0  0
    0.9927   -5.9681   32.8705 C   0  0  0  0  0  0  0  0  0  0  0  0
    0.8399   -5.8072   34.2011 C   0  0  0  0  0  0  0  0  0  0  0  0
   -0.2549   -6.4744   34.8844 C   0  0  0  0  0  0  0  0  0  0  0  0
   -1.1188   -7.2607   34.2180 C   0  0  0  0  0  0  0  0  0  0  0  0
   -0.9953   -7.4139   32.8128 C   0  0  0  0  0  0  0  0  0  0  0  0
   -1.7088   -8.0628   31.9164 N   0  0  0  0  0  0  0  0  0  0  0  0
   -1.1265   -7.8716   30.6894 N   0  0  0  0  0  0  0  0  0  0  0  0
   -0.0622   -7.1250   30.8727 C   0  0  0  0  0  0  0  0  0  0  0  0
    0.0628   -6.7729   32.1915 N   0  0  0  0  0  0  0  0  0  0  0  0
    3.0022   -3.1846   33.5350 N   0  0  0  0  0  0  0  0  0  0  0  0
    2.8614   -1.8156   33.4860 N   0  0  0  0  0  0  0  0  0  0  0  0
    2.1148   -1.5204   32.4405 C   0  0  0  0  0  0  0  0  0  0  0  0
    1.8540   -0.2108   31.8832 C   0  0  0  0  0  0  0  0  0  0  0  0
    1.0087    0.7093   32.4970 C   0  0  0  0  0  0  0  0  0  0  0  0
    0.5967    1.8352   31.7828 C   0  0  0  0  0  0  0  0  0  0  0  0
    1.0306    1.9878   30.4685 C   0  0  0  0  0  0  0  0  0  0  0  0
    0.3395    2.9458   29.5083 C   0  0  0  0  0  0  0  0  0  0  0  0
   -0.1749    2.1344   28.4002 N   0  0  0  0  0  0  0  0  0  0  0  0
   -0.8605    2.7804   27.3007 C   0  0  0  0  0  0  0  0  0  0  0  0
   -0.0197    3.9155   26.5961 C   0  0  0  0  0  0  0  0  0  0  0  0
   -0.4857    4.8669   26.1009 O   0  0  0  0  0  0  0  0  0  0  0  0
    1.4660    3.5031   26.7817 N   0  0  0  0  0  0  0  0  0  0  0  0
    2.6197    4.1832   26.4972 C   0  0  0  0  0  0  0  0  0  0  0  0
    2.5978    5.4466   25.9312 C   0  0  0  0  0  0  0  0  0  0  0  0
    3.8024    6.1242   25.7923 C   0  0  0  0  0  0  0  0  0  0  0  0
    4.9747    5.5236   26.2380 C   0  0  0  0  0  0  0  0  0  0  0  0
    4.9033    4.2528   26.7980 C   0  0  0  0  0  0  0  0  0  0  0  0
    6.1280    3.5832   27.3356 C   0  0  0  0  0  0  0  0  0  0  0  0
    3.7431    3.5773   26.9200 N   0  0  0  0  0  0  0  0  0  0  0  0
   -2.2902    3.2037   27.6098 C   0  0  0  0  0  0  0  0  0  0  0  0
   -3.1513    2.4039   26.6501 C   0  0  0  0  0  0  0  0  0  0  0  0
   -2.3470    1.1347   26.5276 C   0  0  0  0  0  0  0  0  0  0  0  0
   -0.9915    1.6545   26.3697 N   0  0  0  0  0  0  0  0  0  0  0  0
    1.9465    1.1564   29.9085 N   0  0  0  0  0  0  0  0  0  0  0  0
    2.3564    0.1011   30.6285 C   0  0  0  0  0  0  0  0  0  0  0  0
   -1.5681   -1.2598   30.1672 H   0  0  0  0  0  0  0  0  0  0  0  0
   -2.6972   -1.8822   31.5035 H   0  0  0  0  0  0  0  0  0  0  0  0
   -0.9830   -3.3712   32.3257 H   0  0  0  0  0  0  0  0  0  0  0  0
    0.7805   -2.0609   30.1065 H   0  0  0  0  0  0  0  0  0  0  0  0
    0.7276   -3.7901   30.3679 H   0  0  0  0  0  0  0  0  0  0  0  0
    1.5331   -5.2358   34.8144 H   0  0  0  0  0  0  0  0  0  0  0  0
   -0.3317   -6.3549   35.9618 H   0  0  0  0  0  0  0  0  0  0  0  0
   -1.9031   -7.8078   34.7265 H   0  0  0  0  0  0  0  0  0  0  0  0
    0.6344   -6.8129   30.1118 H   0  0  0  0  0  0  0  0  0  0  0  0
    0.6241    0.5239   33.4965 H   0  0  0  0  0  0  0  0  0  0  0  0
   -0.1025    2.5347   32.2239 H   0  0  0  0  0  0  0  0  0  0  0  0
    1.0764    3.6924   29.2030 H   0  0  0  0  0  0  0  0  0  0  0  0
   -0.4640    3.4727   30.0160 H   0  0  0  0  0  0  0  0  0  0  0  0
   -0.7754    1.4099   28.7792 H   0  0  0  0  0  0  0  0  0  0  0  0
    1.5120    2.5698   27.1820 H   0  0  0  0  0  0  0  0  0  0  0  0
    1.6731    5.9140   25.6130 H   0  0  0  0  0  0  0  0  0  0  0  0
    3.8219    7.1182   25.3554 H   0  0  0  0  0  0  0  0  0  0  0  0
    5.9231    6.0443   26.1571 H   0  0  0  0  0  0  0  0  0  0  0  0
    5.9103    2.5553   27.6436 H   0  0  0  0  0  0  0  0  0  0  0  0
    6.5036    4.1294   28.2063 H   0  0  0  0  0  0  0  0  0  0  0  0
    6.9098    3.5478   26.5710 H   0  0  0  0  0  0  0  0  0  0  0  0
   -2.4413    4.2743   27.5205 H   0  0  0  0  0  0  0  0  0  0  0  0
   -2.5568    2.9234   28.6271 H   0  0  0  0  0  0  0  0  0  0  0  0
   -4.1620    2.2284   27.0233 H   0  0  0  0  0  0  0  0  0  0  0  0
   -3.2273    2.9194   25.6849 H   0  0  0  0  0  0  0  0  0  0  0  0
   -2.6492    0.5170   25.6907 H   0  0  0  0  0  0  0  0  0  0  0  0
   -2.4281    0.5241   27.4350 H   0  0  0  0  0  0  0  0  0  0  0  0
   -0.3043    0.9493   26.6287 H   0  0  0  0  0  0  0  0  0  0  0  0
    3.0693   -0.5424   30.1195 H   0  0  0  0  0  0  0  0  0  0  0  0
  1  2  2  0
  2  3  1  0
  3  4  1  0
  4  5  1  0
  5  6  1  0
  6  7  1  0
  7  8  2  0
  8  9  1  0
  9 10  2  0
 10 11  1  0
 11 12  2  0
 12 13  1  0
 13 14  2  0
 14 15  1  0
  5 16  2  0
 16 17  1  0
 17 18  2  0
 18 19  1  0
 19 20  2  0
 20 21  1  0
 21 22  2  0
 22 23  1  0
 23 24  1  0
 24 25  1  0
 25 26  1  0
 26 27  2  0
 26 28  1  0
 28 29  1  0
 29 30  2  0
 30 31  1  0
 31 32  2  0
 32 33  1  0
 33 34  1  0
 33 35  2  0
 25 36  1  0
 36 37  1  0
 37 38  1  0
 38 39  1  0
 22 40  1  0
 40 41  2  0
 18  4  1  0
 41 19  1  0
 15  7  1  0
 39 25  1  0
 15 11  1  0
 35 29  1  0
  1 42  1  0
  1 43  1  0
  2 44  1  0
  3 45  1  0
  3 46  1  0
  8 47  1  0
  9 48  1  0
 10 49  1  0
 14 50  1  0
 20 51  1  0
 21 52  1  0
 23 53  1  0
 23 54  1  0
 24 55  1  0
 28 56  1  0
 30 57  1  0
 31 58  1  0
 32 59  1  0
 34 60  1  0
 34 61  1  0
 34 62  1  0
 36 63  1  0
 36 64  1  0
 37 65  1  0
 37 66  1  0
 38 67  1  0
 38 68  1  0
 39 69  1  0
 41 70  1  0
M  END
>  <Energy>  (92) 
100.14755766604746

>  <compound_id>  (92) 
434

>  <target_id>  (92) 
1

>  <reference_id>  (92) 
53

>  <inspiration_ids>  (92) 
[53, 147]

>  <energy_score>  (92) 
-55.5090317444014

>  <distance_score>  (92) 
0.9714768356745744

>  <path>  (92) 
/opt/xchem-fragalysis-2/maxwin/BulkDock/SCRATCH/505733/C434-P53/C434-P53.minimised.mol

>  <scratch_subdir>  (92) 
/opt/xchem-fragalysis-2/maxwin/BulkDock/SCRATCH/505733/C434-P53

>  <fragmenstein_runtime>  (92) 
12.285194396972656

>  <fragmenstein_outcome>  (92) 
acceptable

>  <fragmenstein_mode>  (92) 
expansion

>  <fragmenstein_error>  (92) 


$$$$
C434-P147
     RDKit          3D

 70 75  0  0  0  0  0  0  0  0999 V2000
   -0.7141   -1.2245   28.9066 C   0  0  0  0  0  0  0  0  0  0  0  0
   -0.1391   -2.1428   29.6947 C   0  0  0  0  0  0  0  0  0  0  0  0
    1.3451   -2.3334   29.8032 C   0  0  0  0  0  0  0  0  0  0  0  0
    1.8069   -2.3390   31.1849 N   0  0  0  0  0  0  0  0  0  0  0  0
    1.9822   -3.4291   31.9905 C   0  0  0  0  0  0  0  0  0  0  0  0
    1.8333   -5.0390   31.4129 S   0  0  0  0  0  0  0  0  0  0  0  0
    0.7730   -5.7801   32.5599 C   0  0  0  0  0  0  0  0  0  0  0  0
    0.8643   -5.6236   33.8973 C   0  0  0  0  0  0  0  0  0  0  0  0
   -0.0265   -6.3632   34.7795 C   0  0  0  0  0  0  0  0  0  0  0  0
   -0.9277   -7.2358   34.2950 C   0  0  0  0  0  0  0  0  0  0  0  0
   -1.0283   -7.4260   32.8930 C   0  0  0  0  0  0  0  0  0  0  0  0
   -1.7940   -8.1959   32.1520 N   0  0  0  0  0  0  0  0  0  0  0  0
   -1.4575   -7.9957   30.8381 N   0  0  0  0  0  0  0  0  0  0  0  0
   -0.4893   -7.1117   30.8095 C   0  0  0  0  0  0  0  0  0  0  0  0
   -0.1773   -6.6960   32.0785 N   0  0  0  0  0  0  0  0  0  0  0  0
    2.3746   -3.0493   33.1814 N   0  0  0  0  0  0  0  0  0  0  0  0
    2.4154   -1.6792   33.1895 N   0  0  0  0  0  0  0  0  0  0  0  0
    2.1054   -1.2492   31.9815 C   0  0  0  0  0  0  0  0  0  0  0  0
    1.9608    0.1322   31.5741 C   0  0  0  0  0  0  0  0  0  0  0  0
    1.0730    0.9750   32.2398 C   0  0  0  0  0  0  0  0  0  0  0  0
    0.7077    2.1786   31.6480 C   0  0  0  0  0  0  0  0  0  0  0  0
    1.2236    2.4798   30.3929 C   0  0  0  0  0  0  0  0  0  0  0  0
    0.5094    3.4598   29.4779 C   0  0  0  0  0  0  0  0  0  0  0  0
   -0.0599    2.6824   28.3737 N   0  0  0  0  0  0  0  0  0  0  0  0
   -0.7195    3.3778   27.2896 C   0  0  0  0  0  0  0  0  0  0  0  0
    0.1919    4.4854   26.6389 C   0  0  0  0  0  0  0  0  0  0  0  0
   -0.1932    5.4988   26.2031 O   0  0  0  0  0  0  0  0  0  0  0  0
    1.6322    3.9216   26.7487 N   0  0  0  0  0  0  0  0  0  0  0  0
    2.8341    4.4954   26.4492 C   0  0  0  0  0  0  0  0  0  0  0  0
    2.9148    5.7742   25.9289 C   0  0  0  0  0  0  0  0  0  0  0  0
    4.1725    6.3443   25.7977 C   0  0  0  0  0  0  0  0  0  0  0  0
    5.2899    5.6273   26.2130 C   0  0  0  0  0  0  0  0  0  0  0  0
    5.1131    4.3477   26.7265 C   0  0  0  0  0  0  0  0  0  0  0  0
    6.2729    3.5597   27.2456 C   0  0  0  0  0  0  0  0  0  0  0  0
    3.9016    3.7688   26.8223 N   0  0  0  0  0  0  0  0  0  0  0  0
   -2.1283    3.8554   27.6010 C   0  0  0  0  0  0  0  0  0  0  0  0
   -3.0333    3.0580   26.6747 C   0  0  0  0  0  0  0  0  0  0  0  0
   -2.2529    1.7911   26.4880 C   0  0  0  0  0  0  0  0  0  0  0  0
   -0.8968    2.3060   26.2949 N   0  0  0  0  0  0  0  0  0  0  0  0
    2.2127    1.7480   29.8209 N   0  0  0  0  0  0  0  0  0  0  0  0
    2.5829    0.6151   30.4357 C   0  0  0  0  0  0  0  0  0  0  0  0
   -0.1308   -0.5458   28.2863 H   0  0  0  0  0  0  0  0  0  0  0  0
   -1.7943   -1.1585   28.8177 H   0  0  0  0  0  0  0  0  0  0  0  0
   -0.7783   -2.8199   30.2556 H   0  0  0  0  0  0  0  0  0  0  0  0
    1.9008   -1.5744   29.2494 H   0  0  0  0  0  0  0  0  0  0  0  0
    1.6205   -3.2837   29.3359 H   0  0  0  0  0  0  0  0  0  0  0  0
    1.6009   -4.9876   34.3790 H   0  0  0  0  0  0  0  0  0  0  0  0
    0.0739   -6.2024   35.8498 H   0  0  0  0  0  0  0  0  0  0  0  0
   -1.5699   -7.8162   34.9469 H   0  0  0  0  0  0  0  0  0  0  0  0
    0.0039   -6.7462   29.9232 H   0  0  0  0  0  0  0  0  0  0  0  0
    0.6048    0.6593   33.1690 H   0  0  0  0  0  0  0  0  0  0  0  0
   -0.0343    2.8118   32.1145 H   0  0  0  0  0  0  0  0  0  0  0  0
    1.2468    4.2010   29.1592 H   0  0  0  0  0  0  0  0  0  0  0  0
   -0.2608    3.9981   30.0224 H   0  0  0  0  0  0  0  0  0  0  0  0
   -0.6557    1.9401   28.7198 H   0  0  0  0  0  0  0  0  0  0  0  0
    1.5982    2.9674   27.1088 H   0  0  0  0  0  0  0  0  0  0  0  0
    2.0326    6.3378   25.6497 H   0  0  0  0  0  0  0  0  0  0  0  0
    4.2787    7.3501   25.4020 H   0  0  0  0  0  0  0  0  0  0  0  0
    6.2793    6.0685   26.1488 H   0  0  0  0  0  0  0  0  0  0  0  0
    7.0575    3.4914   26.4855 H   0  0  0  0  0  0  0  0  0  0  0  0
    5.9694    2.5413   27.5094 H   0  0  0  0  0  0  0  0  0  0  0  0
    6.6824    4.0382   28.1405 H   0  0  0  0  0  0  0  0  0  0  0  0
   -2.2387    4.9284   27.4714 H   0  0  0  0  0  0  0  0  0  0  0  0
   -2.3725    3.6367   28.6368 H   0  0  0  0  0  0  0  0  0  0  0  0
   -4.0261    2.8550   27.0707 H   0  0  0  0  0  0  0  0  0  0  0  0
   -3.1550    3.5859   25.7203 H   0  0  0  0  0  0  0  0  0  0  0  0
   -2.6023    1.2252   25.6322 H   0  0  0  0  0  0  0  0  0  0  0  0
   -2.3023    1.1410   27.3672 H   0  0  0  0  0  0  0  0  0  0  0  0
   -0.8801    2.7662   25.3818 H   0  0  0  0  0  0  0  0  0  0  0  0
    3.3592    0.0582   29.9193 H   0  0  0  0  0  0  0  0  0  0  0  0
  1  2  2  0
  2  3  1  0
  3  4  1  0
  4  5  1  0
  5  6  1  0
  6  7  1  0
  7  8  2  0
  8  9  1  0
  9 10  2  0
 10 11  1  0
 11 12  2  0
 12 13  1  0
 13 14  2  0
 14 15  1  0
  5 16  2  0
 16 17  1  0
 17 18  2  0
 18 19  1  0
 19 20  2  0
 20 21  1  0
 21 22  2  0
 22 23  1  0
 23 24  1  0
 24 25  1  0
 25 26  1  0
 26 27  2  0
 26 28  1  0
 28 29  1  0
 29 30  2  0
 30 31  1  0
 31 32  2  0
 32 33  1  0
 33 34  1  0
 33 35  2  0
 25 36  1  0
 36 37  1  0
 37 38  1  0
 38 39  1  0
 22 40  1  0
 40 41  2  0
 18  4  1  0
 41 19  1  0
 15  7  1  0
 39 25  1  0
 15 11  1  0
 35 29  1  0
  1 42  1  0
  1 43  1  0
  2 44  1  0
  3 45  1  0
  3 46  1  0
  8 47  1  0
  9 48  1  0
 10 49  1  0
 14 50  1  0
 20 51  1  0
 21 52  1  0
 23 53  1  0
 23 54  1  0
 24 55  1  0
 28 56  1  0
 30 57  1  0
 31 58  1  0
 32 59  1  0
 34 60  1  0
 34 61  1  0
 34 62  1  0
 36 63  1  0
 36 64  1  0
 37 65  1  0
 37 66  1  0
 38 67  1  0
 38 68  1  0
 39 69  1  0
 41 70  1  0
M  END
>  <Energy>  (93) 
100.64510366120065

>  <compound_id>  (93) 
434

>  <target_id>  (93) 
1

>  <reference_id>  (93) 
147

>  <inspiration_ids>  (93) 
[53, 147]

>  <energy_score>  (93) 
-55.01148574925048

>  <distance_score>  (93) 
1.1604465225563256

>  <path>  (93) 
/opt/xchem-fragalysis-2/maxwin/BulkDock/SCRATCH/505733/C434-P147/C434-P147.minimised.mol

>  <scratch_subdir>  (93) 
/opt/xchem-fragalysis-2/maxwin/BulkDock/SCRATCH/505733/C434-P147

>  <fragmenstein_runtime>  (93) 
11.050033569335938

>  <fragmenstein_outcome>  (93) 
too moved

>  <fragmenstein_mode>  (93) 
expansion

>  <fragmenstein_error>  (93) 


$$$$
C435-P53
     RDKit          3D

 60 65  0  0  0  0  0  0  0  0999 V2000
    5.9221    3.7220   27.7786 C   0  0  0  0  0  0  0  0  0  0  0  0
    4.7582    4.4814   27.2223 C   0  0  0  0  0  0  0  0  0  0  0  0
    4.9406    5.7234   26.6249 C   0  0  0  0  0  0  0  0  0  0  0  0
    3.8370    6.3735   26.0827 C   0  0  0  0  0  0  0  0  0  0  0  0
    2.5935    5.7566   26.1308 C   0  0  0  0  0  0  0  0  0  0  0  0
    2.5028    4.5163   26.7365 C   0  0  0  0  0  0  0  0  0  0  0  0
    1.3390    3.7931   26.7235 N   0  0  0  0  0  0  0  0  0  0  0  0
   -0.0144    4.0734   26.0159 C   0  0  0  0  0  0  0  0  0  0  0  0
   -0.3688    5.0012   25.3995 O   0  0  0  0  0  0  0  0  0  0  0  0
   -0.8313    2.7764   26.1959 C   0  0  0  0  0  0  0  0  0  0  0  0
   -2.1375    2.7998   25.4172 C   0  0  0  0  0  0  0  0  0  0  0  0
   -3.0820    2.0079   26.2855 C   0  0  0  0  0  0  0  0  0  0  0  0
   -2.6559    2.4704   27.6542 C   0  0  0  0  0  0  0  0  0  0  0  0
   -1.1921    2.5468   27.6190 N   0  0  0  0  0  0  0  0  0  0  0  0
   -0.6106    1.3024   28.1313 C   0  0  0  0  0  0  0  0  0  0  0  0
    0.7957    1.4610   28.2637 O   0  0  0  0  0  0  0  0  0  0  0  0
    1.5021    0.4327   28.8204 C   0  0  0  0  0  0  0  0  0  0  0  0
    1.0024   -0.8345   29.1395 C   0  0  0  0  0  0  0  0  0  0  0  0
    1.8372   -1.8431   29.6443 C   0  0  0  0  0  0  0  0  0  0  0  0
    3.1886   -1.5255   29.7759 C   0  0  0  0  0  0  0  0  0  0  0  0
    4.2914   -2.2690   30.1175 N   0  0  0  0  0  0  0  0  0  0  0  0
    5.3882   -1.4979   29.8501 C   0  0  0  0  0  0  0  0  0  0  0  0
    6.9472   -2.1878   29.5689 S   0  0  0  0  0  0  0  0  0  0  0  0
    6.5143   -3.2016   28.2207 C   0  0  0  0  0  0  0  0  0  0  0  0
    6.7562   -4.5295   28.2939 C   0  0  0  0  0  0  0  0  0  0  0  0
    6.2999   -5.4122   27.2297 C   0  0  0  0  0  0  0  0  0  0  0  0
    5.5822   -4.9425   26.1953 C   0  0  0  0  0  0  0  0  0  0  0  0
    5.3089   -3.5539   26.1138 C   0  0  0  0  0  0  0  0  0  0  0  0
    4.5957   -2.8531   25.2682 N   0  0  0  0  0  0  0  0  0  0  0  0
    4.7077   -1.5312   25.6097 N   0  0  0  0  0  0  0  0  0  0  0  0
    5.4850   -1.4573   26.6644 C   0  0  0  0  0  0  0  0  0  0  0  0
    5.8345   -2.7150   27.0874 N   0  0  0  0  0  0  0  0  0  0  0  0
    5.0736   -0.2511   29.6121 N   0  0  0  0  0  0  0  0  0  0  0  0
    3.7081   -0.2686   29.4783 C   0  0  0  0  0  0  0  0  0  0  0  0
    2.8532    0.7351   29.0204 C   0  0  0  0  0  0  0  0  0  0  0  0
    3.5508    3.8864   27.2998 N   0  0  0  0  0  0  0  0  0  0  0  0
    5.5962    2.7841   28.2394 H   0  0  0  0  0  0  0  0  0  0  0  0
    6.4318    4.3163   28.5432 H   0  0  0  0  0  0  0  0  0  0  0  0
    6.6303    3.4802   26.9799 H   0  0  0  0  0  0  0  0  0  0  0  0
    5.9238    6.1794   26.5787 H   0  0  0  0  0  0  0  0  0  0  0  0
    3.9451    7.3454   25.6108 H   0  0  0  0  0  0  0  0  0  0  0  0
    1.7296    6.2394   25.6891 H   0  0  0  0  0  0  0  0  0  0  0  0
    1.2783    2.9203   27.2386 H   0  0  0  0  0  0  0  0  0  0  0  0
   -0.2168    1.9584   25.8050 H   0  0  0  0  0  0  0  0  0  0  0  0
   -2.5285    3.8169   25.2915 H   0  0  0  0  0  0  0  0  0  0  0  0
   -2.0208    2.3745   24.4189 H   0  0  0  0  0  0  0  0  0  0  0  0
   -2.9167    0.9318   26.1632 H   0  0  0  0  0  0  0  0  0  0  0  0
   -4.1325    2.2297   26.0779 H   0  0  0  0  0  0  0  0  0  0  0  0
   -3.0131    1.8064   28.4389 H   0  0  0  0  0  0  0  0  0  0  0  0
   -3.0363    3.4778   27.8479 H   0  0  0  0  0  0  0  0  0  0  0  0
   -0.8407    0.4562   27.4703 H   0  0  0  0  0  0  0  0  0  0  0  0
   -1.0224    1.1009   29.1281 H   0  0  0  0  0  0  0  0  0  0  0  0
   -0.0412   -1.0886   28.9735 H   0  0  0  0  0  0  0  0  0  0  0  0
    1.4502   -2.8331   29.8587 H   0  0  0  0  0  0  0  0  0  0  0  0
    4.3038   -3.2593   30.3049 H   0  0  0  0  0  0  0  0  0  0  0  0
    7.2632   -4.9875   29.1385 H   0  0  0  0  0  0  0  0  0  0  0  0
    6.5394   -6.4692   27.3064 H   0  0  0  0  0  0  0  0  0  0  0  0
    5.2317   -5.5901   25.4004 H   0  0  0  0  0  0  0  0  0  0  0  0
    5.7975   -0.5447   27.1505 H   0  0  0  0  0  0  0  0  0  0  0  0
    3.2512    1.7092   28.7577 H   0  0  0  0  0  0  0  0  0  0  0  0
  1  2  1  0
  2  3  2  0
  3  4  1  0
  4  5  2  0
  5  6  1  0
  6  7  1  0
  7  8  1  0
  8  9  2  0
  8 10  1  0
 10 11  1  0
 11 12  1  0
 12 13  1  0
 13 14  1  0
 14 15  1  0
 15 16  1  0
 16 17  1  0
 17 18  2  0
 18 19  1  0
 19 20  2  0
 20 21  1  0
 21 22  1  0
 22 23  1  0
 23 24  1  0
 24 25  2  0
 25 26  1  0
 26 27  2  0
 27 28  1  0
 28 29  2  0
 29 30  1  0
 30 31  2  0
 31 32  1  0
 22 33  2  0
 33 34  1  0
 34 35  2  0
  6 36  2  0
 36  2  1  0
 14 10  1  0
 35 17  1  0
 34 20  1  0
 32 24  1  0
 32 28  1  0
  1 37  1  0
  1 38  1  0
  1 39  1  0
  3 40  1  0
  4 41  1  0
  5 42  1  0
  7 43  1  0
 10 44  1  0
 11 45  1  0
 11 46  1  0
 12 47  1  0
 12 48  1  0
 13 49  1  0
 13 50  1  0
 15 51  1  0
 15 52  1  0
 18 53  1  0
 19 54  1  0
 21 55  1  0
 25 56  1  0
 26 57  1  0
 27 58  1  0
 31 59  1  0
 35 60  1  0
M  END
>  <Energy>  (94) 
44.086551783107254

>  <compound_id>  (94) 
435

>  <target_id>  (94) 
1

>  <reference_id>  (94) 
53

>  <inspiration_ids>  (94) 
[53, 155]

>  <energy_score>  (94) 
-63.61193540724588

>  <distance_score>  (94) 
1.1010363131252474

>  <path>  (94) 
/opt/xchem-fragalysis-2/maxwin/BulkDock/SCRATCH/505733/C435-P53/C435-P53.minimised.mol

>  <scratch_subdir>  (94) 
/opt/xchem-fragalysis-2/maxwin/BulkDock/SCRATCH/505733/C435-P53

>  <fragmenstein_runtime>  (94) 
10.368777990341187

>  <fragmenstein_outcome>  (94) 
too moved

>  <fragmenstein_mode>  (94) 
expansion

>  <fragmenstein_error>  (94) 


$$$$
C435-P155
     RDKit          3D

 60 65  0  0  0  0  0  0  0  0999 V2000
    6.5642    4.2429   27.0337 C   0  0  0  0  0  0  0  0  0  0  0  0
    5.1869    4.8160   26.9762 C   0  0  0  0  0  0  0  0  0  0  0  0
    4.9525    6.1092   26.5243 C   0  0  0  0  0  0  0  0  0  0  0  0
    3.6480    6.6005   26.5386 C   0  0  0  0  0  0  0  0  0  0  0  0
    2.6194    5.7920   27.0053 C   0  0  0  0  0  0  0  0  0  0  0  0
    2.9530    4.5175   27.4174 C   0  0  0  0  0  0  0  0  0  0  0  0
    2.0322    3.5853   27.7854 N   0  0  0  0  0  0  0  0  0  0  0  0
    0.4967    3.7185   28.0253 C   0  0  0  0  0  0  0  0  0  0  0  0
   -0.1910    4.6627   28.0178 O   0  0  0  0  0  0  0  0  0  0  0  0
    0.0597    2.2478   28.1801 C   0  0  0  0  0  0  0  0  0  0  0  0
   -0.0749    1.6658   26.7923 C   0  0  0  0  0  0  0  0  0  0  0  0
   -1.5569    1.7158   26.4496 C   0  0  0  0  0  0  0  0  0  0  0  0
   -2.1953    2.2916   27.6782 C   0  0  0  0  0  0  0  0  0  0  0  0
   -1.2552    2.0178   28.7747 N   0  0  0  0  0  0  0  0  0  0  0  0
   -1.3261    0.6351   29.2987 C   0  0  0  0  0  0  0  0  0  0  0  0
   -0.7723    0.5052   30.6280 O   0  0  0  0  0  0  0  0  0  0  0  0
    0.5735    0.2873   30.7370 C   0  0  0  0  0  0  0  0  0  0  0  0
    1.2342    1.1153   31.6522 C   0  0  0  0  0  0  0  0  0  0  0  0
    2.6184    1.0478   31.8393 C   0  0  0  0  0  0  0  0  0  0  0  0
    3.2999    0.1020   31.0753 C   0  0  0  0  0  0  0  0  0  0  0  0
    4.6319   -0.2086   30.9677 N   0  0  0  0  0  0  0  0  0  0  0  0
    4.7577   -1.1968   30.0350 C   0  0  0  0  0  0  0  0  0  0  0  0
    6.3425   -1.7094   29.5588 S   0  0  0  0  0  0  0  0  0  0  0  0
    5.9345   -2.8752   28.3422 C   0  0  0  0  0  0  0  0  0  0  0  0
    6.3109   -4.1643   28.4918 C   0  0  0  0  0  0  0  0  0  0  0  0
    5.9634   -5.1469   27.4736 C   0  0  0  0  0  0  0  0  0  0  0  0
    5.2436   -4.8049   26.3913 C   0  0  0  0  0  0  0  0  0  0  0  0
    4.8438   -3.4547   26.2211 C   0  0  0  0  0  0  0  0  0  0  0  0
    4.1453   -2.8569   25.2848 N   0  0  0  0  0  0  0  0  0  0  0  0
    4.0988   -1.5186   25.5786 N   0  0  0  0  0  0  0  0  0  0  0  0
    4.7574   -1.3330   26.6980 C   0  0  0  0  0  0  0  0  0  0  0  0
    5.2260   -2.5278   27.1814 N   0  0  0  0  0  0  0  0  0  0  0  0
    3.5926   -1.5857   29.5744 N   0  0  0  0  0  0  0  0  0  0  0  0
    2.6693   -0.7669   30.1880 C   0  0  0  0  0  0  0  0  0  0  0  0
    1.2740   -0.6907   30.0191 C   0  0  0  0  0  0  0  0  0  0  0  0
    4.2005    4.0181   27.4137 N   0  0  0  0  0  0  0  0  0  0  0  0
    7.1500    4.7521   27.8052 H   0  0  0  0  0  0  0  0  0  0  0  0
    7.0679    4.3616   26.0693 H   0  0  0  0  0  0  0  0  0  0  0  0
    6.5392    3.1743   27.2717 H   0  0  0  0  0  0  0  0  0  0  0  0
    5.7681    6.7337   26.1748 H   0  0  0  0  0  0  0  0  0  0  0  0
    3.4345    7.6078   26.1928 H   0  0  0  0  0  0  0  0  0  0  0  0
    1.5953    6.1470   27.0157 H   0  0  0  0  0  0  0  0  0  0  0  0
    2.3178    2.6312   27.9467 H   0  0  0  0  0  0  0  0  0  0  0  0
    0.8425    1.7465   28.7460 H   0  0  0  0  0  0  0  0  0  0  0  0
    0.5098    2.2116   26.0453 H   0  0  0  0  0  0  0  0  0  0  0  0
    0.2647    0.6268   26.8297 H   0  0  0  0  0  0  0  0  0  0  0  0
   -1.9402    0.7097   26.2534 H   0  0  0  0  0  0  0  0  0  0  0  0
   -1.7545    2.3375   25.5703 H   0  0  0  0  0  0  0  0  0  0  0  0
   -3.1899    1.8894   27.8054 H   0  0  0  0  0  0  0  0  0  0  0  0
   -2.3217    3.3746   27.5646 H   0  0  0  0  0  0  0  0  0  0  0  0
   -0.9480   -0.1331   28.6148 H   0  0  0  0  0  0  0  0  0  0  0  0
   -2.3697    0.3835   29.4677 H   0  0  0  0  0  0  0  0  0  0  0  0
    0.6600    1.8572   32.2047 H   0  0  0  0  0  0  0  0  0  0  0  0
    3.1260    1.7157   32.5266 H   0  0  0  0  0  0  0  0  0  0  0  0
    5.3955    0.2452   31.4452 H   0  0  0  0  0  0  0  0  0  0  0  0
    6.8635   -4.5163   29.3574 H   0  0  0  0  0  0  0  0  0  0  0  0
    6.2867   -6.1729   27.6238 H   0  0  0  0  0  0  0  0  0  0  0  0
    4.9743   -5.5330   25.6358 H   0  0  0  0  0  0  0  0  0  0  0  0
    4.9045   -0.3838   27.1891 H   0  0  0  0  0  0  0  0  0  0  0  0
    0.7837   -1.3686   29.3308 H   0  0  0  0  0  0  0  0  0  0  0  0
  1  2  1  0
  2  3  2  0
  3  4  1  0
  4  5  2  0
  5  6  1  0
  6  7  1  0
  7  8  1  0
  8  9  2  0
  8 10  1  0
 10 11  1  0
 11 12  1  0
 12 13  1  0
 13 14  1  0
 14 15  1  0
 15 16  1  0
 16 17  1  0
 17 18  2  0
 18 19  1  0
 19 20  2  0
 20 21  1  0
 21 22  1  0
 22 23  1  0
 23 24  1  0
 24 25  2  0
 25 26  1  0
 26 27  2  0
 27 28  1  0
 28 29  2  0
 29 30  1  0
 30 31  2  0
 31 32  1  0
 22 33  2  0
 33 34  1  0
 34 35  2  0
  6 36  2  0
 36  2  1  0
 14 10  1  0
 35 17  1  0
 34 20  1  0
 32 24  1  0
 32 28  1  0
  1 37  1  0
  1 38  1  0
  1 39  1  0
  3 40  1  0
  4 41  1  0
  5 42  1  0
  7 43  1  0
 10 44  1  0
 11 45  1  0
 11 46  1  0
 12 47  1  0
 12 48  1  0
 13 49  1  0
 13 50  1  0
 15 51  1  0
 15 52  1  0
 18 53  1  0
 19 54  1  0
 21 55  1  0
 25 56  1  0
 26 57  1  0
 27 58  1  0
 31 59  1  0
 35 60  1  0
M  END
>  <Energy>  (95) 
51.680949037690603

>  <compound_id>  (95) 
435

>  <target_id>  (95) 
1

>  <reference_id>  (95) 
155

>  <inspiration_ids>  (95) 
[53, 155]

>  <energy_score>  (95) 
-56.01753815266176

>  <distance_score>  (95) 
1.1578477095097837

>  <path>  (95) 
/opt/xchem-fragalysis-2/maxwin/BulkDock/SCRATCH/505733/C435-P155/C435-P155.minimised.mol

>  <scratch_subdir>  (95) 
/opt/xchem-fragalysis-2/maxwin/BulkDock/SCRATCH/505733/C435-P155

>  <fragmenstein_runtime>  (95) 
9.813973426818848

>  <fragmenstein_outcome>  (95) 
too moved

>  <fragmenstein_mode>  (95) 
expansion

>  <fragmenstein_error>  (95) 


$$$$
C437-P53
     RDKit          3D

 63 66  0  0  0  0  0  0  0  0999 V2000
    6.1680    3.5718   27.4268 C   0  0  0  0  0  0  0  0  0  0  0  0
    4.8723    4.1778   26.9899 C   0  0  0  0  0  0  0  0  0  0  0  0
    4.8545    5.3793   26.2880 C   0  0  0  0  0  0  0  0  0  0  0  0
    3.6280    5.9156   25.9149 C   0  0  0  0  0  0  0  0  0  0  0  0
    2.4628    5.2396   26.2554 C   0  0  0  0  0  0  0  0  0  0  0  0
    2.5739    4.0468   26.9537 C   0  0  0  0  0  0  0  0  0  0  0  0
    1.4665    3.3507   27.3669 N   0  0  0  0  0  0  0  0  0  0  0  0
   -0.0304    3.7290   27.3234 C   0  0  0  0  0  0  0  0  0  0  0  0
   -0.5624    4.6584   26.8595 O   0  0  0  0  0  0  0  0  0  0  0  0
   -0.7783    2.6548   28.1449 C   0  0  0  0  0  0  0  0  0  0  0  0
   -2.1697    2.4146   27.5941 C   0  0  0  0  0  0  0  0  0  0  0  0
   -2.1676    0.9514   27.2349 C   0  0  0  0  0  0  0  0  0  0  0  0
   -1.1741    0.2912   28.2024 C   0  0  0  0  0  0  0  0  0  0  0  0
   -0.6900   -1.0233   27.5918 C   0  0  0  0  0  0  0  0  0  0  0  0
    0.2216   -1.9266   28.4276 C   0  0  0  0  0  0  0  0  0  0  0  0
    0.0610   -1.7168   29.9231 C   0  0  0  0  0  0  0  0  0  0  0  0
    0.8010   -3.0206   30.9287 S   0  0  0  0  0  0  0  0  0  0  0  0
    0.9381   -2.5021   32.2745 O   0  0  0  0  0  0  0  0  0  0  0  0
    1.9461   -3.5529   30.2230 O   0  0  0  0  0  0  0  0  0  0  0  0
   -0.3517   -4.2669   31.1013 N   0  0  0  0  0  0  0  0  0  0  0  0
    0.2211   -5.6531   30.8856 C   0  0  0  0  0  0  0  0  0  0  0  0
   -0.5073   -6.7612   31.6675 C   0  0  0  0  0  0  0  0  0  0  0  0
   -0.1100   -6.7014   33.0970 C   0  0  0  0  0  0  0  0  0  0  0  0
    1.1117   -7.1698   33.4100 N   0  0  0  0  0  0  0  0  0  0  0  0
    1.5782   -6.8316   34.6235 C   0  0  0  0  0  0  0  0  0  0  0  0
    0.8820   -6.0586   35.5137 C   0  0  0  0  0  0  0  0  0  0  0  0
   -0.3491   -5.6613   35.0796 C   0  0  0  0  0  0  0  0  0  0  0  0
   -1.1015   -4.8292   35.8436 O   0  0  0  0  0  0  0  0  0  0  0  0
   -0.8867   -5.9583   33.8934 N   0  0  0  0  0  0  0  0  0  0  0  0
   -1.3718   -1.3501   30.2565 C   0  0  0  0  0  0  0  0  0  0  0  0
   -1.7057    0.0304   29.6453 C   0  0  0  0  0  0  0  0  0  0  0  0
   -0.0991    1.3201   28.2037 N   0  0  0  0  0  0  0  0  0  0  0  0
    3.7485    3.5088   27.3247 N   0  0  0  0  0  0  0  0  0  0  0  0
    6.0041    2.6107   27.9249 H   0  0  0  0  0  0  0  0  0  0  0  0
    6.8167    3.3987   26.5631 H   0  0  0  0  0  0  0  0  0  0  0  0
    6.6778    4.2376   28.1300 H   0  0  0  0  0  0  0  0  0  0  0  0
    5.7770    5.8933   26.0390 H   0  0  0  0  0  0  0  0  0  0  0  0
    3.5756    6.8532   25.3695 H   0  0  0  0  0  0  0  0  0  0  0  0
    1.4984    5.6501   25.9781 H   0  0  0  0  0  0  0  0  0  0  0  0
    1.5872    2.5144   27.9210 H   0  0  0  0  0  0  0  0  0  0  0  0
   -0.8366    3.0561   29.1619 H   0  0  0  0  0  0  0  0  0  0  0  0
   -2.4453    3.0275   26.7309 H   0  0  0  0  0  0  0  0  0  0  0  0
   -2.8954    2.5953   28.3790 H   0  0  0  0  0  0  0  0  0  0  0  0
   -1.8250    0.8470   26.1961 H   0  0  0  0  0  0  0  0  0  0  0  0
   -3.1589    0.5180   27.2764 H   0  0  0  0  0  0  0  0  0  0  0  0
   -1.5692   -1.6080   27.2940 H   0  0  0  0  0  0  0  0  0  0  0  0
   -0.1447   -0.7687   26.6899 H   0  0  0  0  0  0  0  0  0  0  0  0
    0.0204   -2.9722   28.1647 H   0  0  0  0  0  0  0  0  0  0  0  0
    1.2682   -1.7456   28.1511 H   0  0  0  0  0  0  0  0  0  0  0  0
    0.6880   -0.8531   30.1925 H   0  0  0  0  0  0  0  0  0  0  0  0
   -0.6837   -4.1757   32.0717 H   0  0  0  0  0  0  0  0  0  0  0  0
    1.2840   -5.6772   31.1509 H   0  0  0  0  0  0  0  0  0  0  0  0
    0.1375   -5.8559   29.8177 H   0  0  0  0  0  0  0  0  0  0  0  0
   -1.5875   -6.6813   31.5582 H   0  0  0  0  0  0  0  0  0  0  0  0
   -0.2156   -7.7376   31.2621 H   0  0  0  0  0  0  0  0  0  0  0  0
    2.5694   -7.2008   34.8672 H   0  0  0  0  0  0  0  0  0  0  0  0
    1.2744   -5.7739   36.4783 H   0  0  0  0  0  0  0  0  0  0  0  0
   -1.8217   -4.5969   35.2188 H   0  0  0  0  0  0  0  0  0  0  0  0
   -2.0587   -2.1111   29.8680 H   0  0  0  0  0  0  0  0  0  0  0  0
   -1.5292   -1.3102   31.3405 H   0  0  0  0  0  0  0  0  0  0  0  0
   -2.7817    0.1844   29.7053 H   0  0  0  0  0  0  0  0  0  0  0  0
   -1.2639    0.7635   30.3291 H   0  0  0  0  0  0  0  0  0  0  0  0
    0.4471    1.2532   29.0612 H   0  0  0  0  0  0  0  0  0  0  0  0
  1  2  1  0
  2  3  2  0
  3  4  1  0
  4  5  2  0
  5  6  1  0
  6  7  1  0
  7  8  1  0
  8  9  2  0
  8 10  1  0
 10 11  1  0
 11 12  1  0
 12 13  1  0
 13 14  1  0
 14 15  1  0
 15 16  1  0
 16 17  1  0
 17 18  2  0
 17 19  2  0
 17 20  1  0
 20 21  1  0
 21 22  1  0
 22 23  1  0
 23 24  2  0
 24 25  1  0
 25 26  2  0
 26 27  1  0
 27 28  1  0
 27 29  2  0
 16 30  1  0
 30 31  1  0
 13 32  1  0
  6 33  2  0
 33  2  1  0
 32 10  1  0
 31 13  1  0
 29 23  1  0
  1 34  1  0
  1 35  1  0
  1 36  1  0
  3 37  1  0
  4 38  1  0
  5 39  1  0
  7 40  1  0
 10 41  1  0
 11 42  1  0
 11 43  1  0
 12 44  1  0
 12 45  1  0
 14 46  1  0
 14 47  1  0
 15 48  1  0
 15 49  1  0
 16 50  1  0
 20 51  1  0
 21 52  1  0
 21 53  1  0
 22 54  1  0
 22 55  1  0
 25 56  1  0
 26 57  1  0
 28 58  1  0
 30 59  1  0
 30 60  1  0
 31 61  1  0
 31 62  1  0
 32 63  1  0
M  END
>  <Energy>  (96) 
-65.470527059961015

>  <compound_id>  (96) 
437

>  <target_id>  (96) 
1

>  <reference_id>  (96) 
53

>  <inspiration_ids>  (96) 
[53, 180]

>  <energy_score>  (96) 
-294.8914713947456

>  <distance_score>  (96) 
1.5621676402520999

>  <path>  (96) 
/opt/xchem-fragalysis-2/maxwin/BulkDock/SCRATCH/505733/C437-P53/C437-P53.minimised.mol

>  <scratch_subdir>  (96) 
/opt/xchem-fragalysis-2/maxwin/BulkDock/SCRATCH/505733/C437-P53

>  <fragmenstein_runtime>  (96) 
7.134215354919434

>  <fragmenstein_outcome>  (96) 
too moved

>  <fragmenstein_mode>  (96) 
expansion

>  <fragmenstein_error>  (96) 


$$$$
C437-P180
     RDKit          3D

 63 66  0  0  0  0  0  0  0  0999 V2000
    6.1079    3.6517   27.6193 C   0  0  0  0  0  0  0  0  0  0  0  0
    4.9088    4.4387   27.1960 C   0  0  0  0  0  0  0  0  0  0  0  0
    5.0463    5.6616   26.5478 C   0  0  0  0  0  0  0  0  0  0  0  0
    3.9021    6.3915   26.2452 C   0  0  0  0  0  0  0  0  0  0  0  0
    2.6613    5.8887   26.6120 C   0  0  0  0  0  0  0  0  0  0  0  0
    2.6172    4.6625   27.2530 C   0  0  0  0  0  0  0  0  0  0  0  0
    1.4305    4.0880   27.6226 N   0  0  0  0  0  0  0  0  0  0  0  0
   -0.0238    4.5786   27.4363 C   0  0  0  0  0  0  0  0  0  0  0  0
   -0.4341    5.5840   27.0080 O   0  0  0  0  0  0  0  0  0  0  0  0
   -0.9128    3.3963   27.8436 C   0  0  0  0  0  0  0  0  0  0  0  0
   -1.3672    2.6665   26.6042 C   0  0  0  0  0  0  0  0  0  0  0  0
   -1.8140    1.3558   27.1999 C   0  0  0  0  0  0  0  0  0  0  0  0
   -0.7783    1.0147   28.2920 C   0  0  0  0  0  0  0  0  0  0  0  0
    0.3132    0.0986   27.7006 C   0  0  0  0  0  0  0  0  0  0  0  0
    1.2052   -0.5870   28.7398 C   0  0  0  0  0  0  0  0  0  0  0  0
    0.4238   -1.4764   29.7300 C   0  0  0  0  0  0  0  0  0  0  0  0
    0.9328   -3.2054   29.5451 S   0  0  0  0  0  0  0  0  0  0  0  0
    2.2732   -3.3403   30.0754 O   0  0  0  0  0  0  0  0  0  0  0  0
    0.6197   -3.6636   28.2137 O   0  0  0  0  0  0  0  0  0  0  0  0
   -0.0924   -4.1241   30.5699 N   0  0  0  0  0  0  0  0  0  0  0  0
    0.4873   -5.5088   30.8268 C   0  0  0  0  0  0  0  0  0  0  0  0
   -0.4334   -6.4500   31.6283 C   0  0  0  0  0  0  0  0  0  0  0  0
   -0.1394   -6.4318   33.0839 C   0  0  0  0  0  0  0  0  0  0  0  0
    1.0602   -6.9070   33.4730 N   0  0  0  0  0  0  0  0  0  0  0  0
    1.3794   -6.7029   34.7614 C   0  0  0  0  0  0  0  0  0  0  0  0
    0.5474   -6.0864   35.6579 C   0  0  0  0  0  0  0  0  0  0  0  0
   -0.6588   -5.6980   35.1474 C   0  0  0  0  0  0  0  0  0  0  0  0
   -1.5381   -5.0221   35.9316 O   0  0  0  0  0  0  0  0  0  0  0  0
   -1.0532   -5.8674   33.8834 N   0  0  0  0  0  0  0  0  0  0  0  0
   -1.0753   -1.1950   29.6408 C   0  0  0  0  0  0  0  0  0  0  0  0
   -1.2999    0.3375   29.5946 C   0  0  0  0  0  0  0  0  0  0  0  0
   -0.1732    2.3347   28.6031 N   0  0  0  0  0  0  0  0  0  0  0  0
    3.7086    3.9321   27.5449 N   0  0  0  0  0  0  0  0  0  0  0  0
    5.8831    2.5803   27.6263 H   0  0  0  0  0  0  0  0  0  0  0  0
    6.9499    3.8158   26.9402 H   0  0  0  0  0  0  0  0  0  0  0  0
    6.4103    3.9528   28.6270 H   0  0  0  0  0  0  0  0  0  0  0  0
    6.0262    6.0513   26.2927 H   0  0  0  0  0  0  0  0  0  0  0  0
    3.9752    7.3509   25.7417 H   0  0  0  0  0  0  0  0  0  0  0  0
    1.7618    6.4508   26.3895 H   0  0  0  0  0  0  0  0  0  0  0  0
    1.4248    3.1241   27.9490 H   0  0  0  0  0  0  0  0  0  0  0  0
   -1.7485    3.7651   28.4467 H   0  0  0  0  0  0  0  0  0  0  0  0
   -0.5509    2.5219   25.8871 H   0  0  0  0  0  0  0  0  0  0  0  0
   -2.1810    3.1862   26.0876 H   0  0  0  0  0  0  0  0  0  0  0  0
   -1.9429    0.5768   26.4460 H   0  0  0  0  0  0  0  0  0  0  0  0
   -2.7781    1.6101   27.6130 H   0  0  0  0  0  0  0  0  0  0  0  0
   -0.1682   -0.6874   27.1175 H   0  0  0  0  0  0  0  0  0  0  0  0
    0.9559    0.6698   27.0240 H   0  0  0  0  0  0  0  0  0  0  0  0
    1.9870   -1.1527   28.2198 H   0  0  0  0  0  0  0  0  0  0  0  0
    1.7307    0.1899   29.3105 H   0  0  0  0  0  0  0  0  0  0  0  0
    0.7631   -1.2218   30.7440 H   0  0  0  0  0  0  0  0  0  0  0  0
   -0.9697   -4.2015   30.0509 H   0  0  0  0  0  0  0  0  0  0  0  0
    1.4614   -5.4046   31.3166 H   0  0  0  0  0  0  0  0  0  0  0  0
    0.6461   -5.9713   29.8460 H   0  0  0  0  0  0  0  0  0  0  0  0
   -1.4802   -6.2126   31.4548 H   0  0  0  0  0  0  0  0  0  0  0  0
   -0.2773   -7.4777   31.2770 H   0  0  0  0  0  0  0  0  0  0  0  0
    2.3617   -7.0496   35.0672 H   0  0  0  0  0  0  0  0  0  0  0  0
    0.8187   -5.9126   36.6887 H   0  0  0  0  0  0  0  0  0  0  0  0
   -2.2084   -4.7271   35.2787 H   0  0  0  0  0  0  0  0  0  0  0  0
   -1.5194   -1.6783   28.7633 H   0  0  0  0  0  0  0  0  0  0  0  0
   -1.5756   -1.6116   30.5225 H   0  0  0  0  0  0  0  0  0  0  0  0
   -2.3373    0.5875   29.7971 H   0  0  0  0  0  0  0  0  0  0  0  0
   -0.7629    0.7471   30.4632 H   0  0  0  0  0  0  0  0  0  0  0  0
   -0.2469    2.5682   29.5932 H   0  0  0  0  0  0  0  0  0  0  0  0
  1  2  1  0
  2  3  2  0
  3  4  1  0
  4  5  2  0
  5  6  1  0
  6  7  1  0
  7  8  1  0
  8  9  2  0
  8 10  1  0
 10 11  1  0
 11 12  1  0
 12 13  1  0
 13 14  1  0
 14 15  1  0
 15 16  1  0
 16 17  1  0
 17 18  2  0
 17 19  2  0
 17 20  1  0
 20 21  1  0
 21 22  1  0
 22 23  1  0
 23 24  2  0
 24 25  1  0
 25 26  2  0
 26 27  1  0
 27 28  1  0
 27 29  2  0
 16 30  1  0
 30 31  1  0
 13 32  1  0
  6 33  2  0
 33  2  1  0
 32 10  1  0
 31 13  1  0
 29 23  1  0
  1 34  1  0
  1 35  1  0
  1 36  1  0
  3 37  1  0
  4 38  1  0
  5 39  1  0
  7 40  1  0
 10 41  1  0
 11 42  1  0
 11 43  1  0
 12 44  1  0
 12 45  1  0
 14 46  1  0
 14 47  1  0
 15 48  1  0
 15 49  1  0
 16 50  1  0
 20 51  1  0
 21 52  1  0
 21 53  1  0
 22 54  1  0
 22 55  1  0
 25 56  1  0
 26 57  1  0
 28 58  1  0
 30 59  1  0
 30 60  1  0
 31 61  1  0
 31 62  1  0
 32 63  1  0
M  END
>  <Energy>  (97) 
-66.879365634826897

>  <compound_id>  (97) 
437

>  <target_id>  (97) 
1

>  <reference_id>  (97) 
180

>  <inspiration_ids>  (97) 
[53, 180]

>  <energy_score>  (97) 
-296.30030996961233

>  <distance_score>  (97) 
1.7239925633019024

>  <path>  (97) 
/opt/xchem-fragalysis-2/maxwin/BulkDock/SCRATCH/505733/C437-P180/C437-P180.minimised.mol

>  <scratch_subdir>  (97) 
/opt/xchem-fragalysis-2/maxwin/BulkDock/SCRATCH/505733/C437-P180

>  <fragmenstein_runtime>  (97) 
6.412129878997803

>  <fragmenstein_outcome>  (97) 
too moved

>  <fragmenstein_mode>  (97) 
expansion

>  <fragmenstein_error>  (97) 


$$$$
C438-P53
     RDKit          3D

 60 63  0  0  0  0  0  0  0  0999 V2000
    6.0385    3.7799   27.5698 C   0  0  0  0  0  0  0  0  0  0  0  0
    4.8714    4.5156   26.9903 C   0  0  0  0  0  0  0  0  0  0  0  0
    5.0531    5.7138   26.3089 C   0  0  0  0  0  0  0  0  0  0  0  0
    3.9421    6.3527   25.7654 C   0  0  0  0  0  0  0  0  0  0  0  0
    2.6877    5.7750   25.9053 C   0  0  0  0  0  0  0  0  0  0  0  0
    2.6027    4.5819   26.5951 C   0  0  0  0  0  0  0  0  0  0  0  0
    1.4182    3.9239   26.7755 N   0  0  0  0  0  0  0  0  0  0  0  0
   -0.0311    4.3191   26.3632 C   0  0  0  0  0  0  0  0  0  0  0  0
   -0.4194    5.2283   25.7407 O   0  0  0  0  0  0  0  0  0  0  0  0
   -0.8994    3.2401   27.0286 C   0  0  0  0  0  0  0  0  0  0  0  0
   -2.3766    3.3215   26.7503 C   0  0  0  0  0  0  0  0  0  0  0  0
   -2.8771    1.9098   26.9682 C   0  0  0  0  0  0  0  0  0  0  0  0
   -1.6527    1.0133   26.8447 C   0  0  0  0  0  0  0  0  0  0  0  0
   -1.3927    0.1717   28.0800 C   0  0  0  0  0  0  0  0  0  0  0  0
   -1.7454   -1.1758   28.0332 C   0  0  0  0  0  0  0  0  0  0  0  0
   -1.5698   -1.9957   29.1416 C   0  0  0  0  0  0  0  0  0  0  0  0
   -1.0360   -1.4845   30.3179 C   0  0  0  0  0  0  0  0  0  0  0  0
   -0.8846   -2.5529   31.7199 S   0  0  0  0  0  0  0  0  0  0  0  0
   -0.6968   -1.7231   32.8886 O   0  0  0  0  0  0  0  0  0  0  0  0
   -1.9474   -3.5345   31.6468 O   0  0  0  0  0  0  0  0  0  0  0  0
    0.5703   -3.3117   31.4218 N   0  0  0  0  0  0  0  0  0  0  0  0
    0.7468   -4.1954   30.2672 C   0  0  0  0  0  0  0  0  0  0  0  0
    1.5347   -5.4469   30.6339 C   0  0  0  0  0  0  0  0  0  0  0  0
    0.7855   -6.2808   31.6309 C   0  0  0  0  0  0  0  0  0  0  0  0
   -0.3236   -6.9271   31.2164 N   0  0  0  0  0  0  0  0  0  0  0  0
   -1.0529   -7.5066   32.1870 C   0  0  0  0  0  0  0  0  0  0  0  0
   -0.7192   -7.4676   33.5177 C   0  0  0  0  0  0  0  0  0  0  0  0
    0.4724   -6.8603   33.8048 C   0  0  0  0  0  0  0  0  0  0  0  0
    0.9763   -6.8497   35.0714 O   0  0  0  0  0  0  0  0  0  0  0  0
    1.2467   -6.2686   32.8927 N   0  0  0  0  0  0  0  0  0  0  0  0
   -0.6704   -0.1469   30.3956 C   0  0  0  0  0  0  0  0  0  0  0  0
   -0.8420    0.6691   29.2739 C   0  0  0  0  0  0  0  0  0  0  0  0
   -0.5359    1.9028   26.5252 N   0  0  0  0  0  0  0  0  0  0  0  0
    3.6577    3.9511   27.1480 N   0  0  0  0  0  0  0  0  0  0  0  0
    5.7120    2.8742   28.0913 H   0  0  0  0  0  0  0  0  0  0  0  0
    6.7305    3.4843   26.7751 H   0  0  0  0  0  0  0  0  0  0  0  0
    6.5669    4.4138   28.2887 H   0  0  0  0  0  0  0  0  0  0  0  0
    6.0417    6.1479   26.1991 H   0  0  0  0  0  0  0  0  0  0  0  0
    4.0529    7.2909   25.2292 H   0  0  0  0  0  0  0  0  0  0  0  0
    1.8144    6.2541   25.4780 H   0  0  0  0  0  0  0  0  0  0  0  0
    1.3888    3.1218   27.3822 H   0  0  0  0  0  0  0  0  0  0  0  0
   -0.7363    3.3270   28.1081 H   0  0  0  0  0  0  0  0  0  0  0  0
   -2.5971    3.6624   25.7327 H   0  0  0  0  0  0  0  0  0  0  0  0
   -2.8515    3.9877   27.4667 H   0  0  0  0  0  0  0  0  0  0  0  0
   -3.3097    1.8425   27.9639 H   0  0  0  0  0  0  0  0  0  0  0  0
   -3.6557    1.6563   26.2420 H   0  0  0  0  0  0  0  0  0  0  0  0
   -1.7909    0.3449   25.9897 H   0  0  0  0  0  0  0  0  0  0  0  0
   -2.1714   -1.6006   27.1244 H   0  0  0  0  0  0  0  0  0  0  0  0
   -1.8615   -3.0354   29.0746 H   0  0  0  0  0  0  0  0  0  0  0  0
    1.3598   -3.0233   31.9972 H   0  0  0  0  0  0  0  0  0  0  0  0
    1.2946   -3.6413   29.4970 H   0  0  0  0  0  0  0  0  0  0  0  0
   -0.2170   -4.4853   29.8406 H   0  0  0  0  0  0  0  0  0  0  0  0
    2.5131   -5.1690   31.0437 H   0  0  0  0  0  0  0  0  0  0  0  0
    1.7207   -6.0472   29.7371 H   0  0  0  0  0  0  0  0  0  0  0  0
   -1.9560   -8.0121   31.8637 H   0  0  0  0  0  0  0  0  0  0  0  0
   -1.3431   -7.9215   34.2706 H   0  0  0  0  0  0  0  0  0  0  0  0
    0.3562   -7.3224   35.6471 H   0  0  0  0  0  0  0  0  0  0  0  0
   -0.2548    0.2680   31.3104 H   0  0  0  0  0  0  0  0  0  0  0  0
   -0.5448    1.7077   29.3618 H   0  0  0  0  0  0  0  0  0  0  0  0
    0.3278    1.5333   26.9090 H   0  0  0  0  0  0  0  0  0  0  0  0
  1  2  1  0
  2  3  2  0
  3  4  1  0
  4  5  2  0
  5  6  1  0
  6  7  1  0
  7  8  1  0
  8  9  2  0
  8 10  1  0
 10 11  1  0
 11 12  1  0
 12 13  1  0
 13 14  1  0
 14 15  2  0
 15 16  1  0
 16 17  2  0
 17 18  1  0
 18 19  2  0
 18 20  2  0
 18 21  1  0
 21 22  1  0
 22 23  1  0
 23 24  1  0
 24 25  2  0
 25 26  1  0
 26 27  2  0
 27 28  1  0
 28 29  1  0
 28 30  2  0
 17 31  1  0
 31 32  2  0
 13 33  1  0
  6 34  2  0
 34  2  1  0
 33 10  1  0
 32 14  1  0
 30 24  1  0
  1 35  1  0
  1 36  1  0
  1 37  1  0
  3 38  1  0
  4 39  1  0
  5 40  1  0
  7 41  1  0
 10 42  1  0
 11 43  1  0
 11 44  1  0
 12 45  1  0
 12 46  1  0
 13 47  1  0
 15 48  1  0
 16 49  1  0
 21 50  1  0
 22 51  1  0
 22 52  1  0
 23 53  1  0
 23 54  1  0
 26 55  1  0
 27 56  1  0
 29 57  1  0
 31 58  1  0
 32 59  1  0
 33 60  1  0
M  END
>  <Energy>  (98) 
-44.808120882302724

>  <compound_id>  (98) 
438

>  <target_id>  (98) 
1

>  <reference_id>  (98) 
53

>  <inspiration_ids>  (98) 
[53, 186]

>  <energy_score>  (98) 
-85.60766984574701

>  <distance_score>  (98) 
0.6683712750637157

>  <path>  (98) 
/opt/xchem-fragalysis-2/maxwin/BulkDock/SCRATCH/505733/C438-P53/C438-P53.minimised.mol

>  <scratch_subdir>  (98) 
/opt/xchem-fragalysis-2/maxwin/BulkDock/SCRATCH/505733/C438-P53

>  <fragmenstein_runtime>  (98) 
13.277930974960327

>  <fragmenstein_outcome>  (98) 
acceptable

>  <fragmenstein_mode>  (98) 
expansion

>  <fragmenstein_error>  (98) 


$$$$
C438-P186
     RDKit          3D

 60 63  0  0  0  0  0  0  0  0999 V2000
    7.3451    4.0394   26.7632 C   0  0  0  0  0  0  0  0  0  0  0  0
    6.0306    4.6548   26.4304 C   0  0  0  0  0  0  0  0  0  0  0  0
    5.9315    5.8943   25.8045 C   0  0  0  0  0  0  0  0  0  0  0  0
    4.6740    6.4665   25.6260 C   0  0  0  0  0  0  0  0  0  0  0  0
    3.5637    5.8030   26.1145 C   0  0  0  0  0  0  0  0  0  0  0  0
    3.7784    4.5816   26.7248 C   0  0  0  0  0  0  0  0  0  0  0  0
    2.7922    3.9212   27.3700 N   0  0  0  0  0  0  0  0  0  0  0  0
    1.4013    4.3926   27.8141 C   0  0  0  0  0  0  0  0  0  0  0  0
    0.8517    5.4010   27.6284 O   0  0  0  0  0  0  0  0  0  0  0  0
    0.9118    3.2369   28.6777 C   0  0  0  0  0  0  0  0  0  0  0  0
   -0.5504    3.3852   28.9464 C   0  0  0  0  0  0  0  0  0  0  0  0
   -1.1246    1.9945   28.8519 C   0  0  0  0  0  0  0  0  0  0  0  0
   -0.0454    1.1299   28.2380 C   0  0  0  0  0  0  0  0  0  0  0  0
    0.0285   -0.0646   29.1254 C   0  0  0  0  0  0  0  0  0  0  0  0
   -0.8475   -1.1172   28.7953 C   0  0  0  0  0  0  0  0  0  0  0  0
   -1.2294   -1.9950   29.7719 C   0  0  0  0  0  0  0  0  0  0  0  0
   -0.7040   -1.8160   31.0480 C   0  0  0  0  0  0  0  0  0  0  0  0
   -0.9953   -3.0528   32.2446 S   0  0  0  0  0  0  0  0  0  0  0  0
   -0.8920   -2.4428   33.5476 O   0  0  0  0  0  0  0  0  0  0  0  0
   -2.1387   -3.8302   31.8213 O   0  0  0  0  0  0  0  0  0  0  0  0
    0.3889   -3.9269   31.9587 N   0  0  0  0  0  0  0  0  0  0  0  0
    0.6272   -4.5053   30.6304 C   0  0  0  0  0  0  0  0  0  0  0  0
    1.3087   -5.8487   30.7540 C   0  0  0  0  0  0  0  0  0  0  0  0
    0.5601   -6.6919   31.7412 C   0  0  0  0  0  0  0  0  0  0  0  0
   -0.5703   -7.2961   31.3322 N   0  0  0  0  0  0  0  0  0  0  0  0
   -1.3455   -7.7837   32.3150 C   0  0  0  0  0  0  0  0  0  0  0  0
   -1.0480   -7.6738   33.6533 C   0  0  0  0  0  0  0  0  0  0  0  0
    0.1661   -7.1131   33.9399 C   0  0  0  0  0  0  0  0  0  0  0  0
    0.6457   -7.0540   35.2129 O   0  0  0  0  0  0  0  0  0  0  0  0
    1.0001   -6.6400   33.0141 N   0  0  0  0  0  0  0  0  0  0  0  0
    0.2112   -0.8130   31.3712 C   0  0  0  0  0  0  0  0  0  0  0  0
    0.6064    0.0571   30.3874 C   0  0  0  0  0  0  0  0  0  0  0  0
    1.1608    1.9196   28.0485 N   0  0  0  0  0  0  0  0  0  0  0  0
    4.9612    3.9772   26.8587 N   0  0  0  0  0  0  0  0  0  0  0  0
    7.2412    2.9699   26.9734 H   0  0  0  0  0  0  0  0  0  0  0  0
    8.0452    4.1508   25.9295 H   0  0  0  0  0  0  0  0  0  0  0  0
    7.7717    4.5247   27.6465 H   0  0  0  0  0  0  0  0  0  0  0  0
    6.8219    6.4208   25.4752 H   0  0  0  0  0  0  0  0  0  0  0  0
    4.5696    7.4349   25.1462 H   0  0  0  0  0  0  0  0  0  0  0  0
    2.5765    6.2418   26.0355 H   0  0  0  0  0  0  0  0  0  0  0  0
    2.9878    3.0117   27.7775 H   0  0  0  0  0  0  0  0  0  0  0  0
    1.4745    3.2731   29.6201 H   0  0  0  0  0  0  0  0  0  0  0  0
   -1.0950    4.0843   28.3109 H   0  0  0  0  0  0  0  0  0  0  0  0
   -0.5738    3.8153   29.9457 H   0  0  0  0  0  0  0  0  0  0  0  0
   -2.0924    1.9578   28.3592 H   0  0  0  0  0  0  0  0  0  0  0  0
   -1.3498    1.6096   29.8496 H   0  0  0  0  0  0  0  0  0  0  0  0
   -0.2974    0.6941   27.2970 H   0  0  0  0  0  0  0  0  0  0  0  0
   -1.2989   -1.1969   27.8084 H   0  0  0  0  0  0  0  0  0  0  0  0
   -1.9055   -2.8099   29.5317 H   0  0  0  0  0  0  0  0  0  0  0  0
    1.1310   -3.8700   32.6551 H   0  0  0  0  0  0  0  0  0  0  0  0
    1.2606   -3.8290   30.0468 H   0  0  0  0  0  0  0  0  0  0  0  0
   -0.3141   -4.6404   30.0883 H   0  0  0  0  0  0  0  0  0  0  0  0
    2.3345   -5.7006   31.1026 H   0  0  0  0  0  0  0  0  0  0  0  0
    1.3502   -6.3426   29.7786 H   0  0  0  0  0  0  0  0  0  0  0  0
   -2.2580   -8.2724   31.9895 H   0  0  0  0  0  0  0  0  0  0  0  0
   -1.7085   -8.0620   34.4123 H   0  0  0  0  0  0  0  0  0  0  0  0
   -0.0618   -7.3108   35.8241 H   0  0  0  0  0  0  0  0  0  0  0  0
    0.6273   -0.7297   32.3721 H   0  0  0  0  0  0  0  0  0  0  0  0
    1.2718    0.8831   30.6231 H   0  0  0  0  0  0  0  0  0  0  0  0
    1.2085    2.0875   27.0302 H   0  0  0  0  0  0  0  0  0  0  0  0
  1  2  1  0
  2  3  2  0
  3  4  1  0
  4  5  2  0
  5  6  1  0
  6  7  1  0
  7  8  1  0
  8  9  2  0
  8 10  1  0
 10 11  1  0
 11 12  1  0
 12 13  1  0
 13 14  1  0
 14 15  2  0
 15 16  1  0
 16 17  2  0
 17 18  1  0
 18 19  2  0
 18 20  2  0
 18 21  1  0
 21 22  1  0
 22 23  1  0
 23 24  1  0
 24 25  2  0
 25 26  1  0
 26 27  2  0
 27 28  1  0
 28 29  1  0
 28 30  2  0
 17 31  1  0
 31 32  2  0
 13 33  1  0
  6 34  2  0
 34  2  1  0
 33 10  1  0
 32 14  1  0
 30 24  1  0
  1 35  1  0
  1 36  1  0
  1 37  1  0
  3 38  1  0
  4 39  1  0
  5 40  1  0
  7 41  1  0
 10 42  1  0
 11 43  1  0
 11 44  1  0
 12 45  1  0
 12 46  1  0
 13 47  1  0
 15 48  1  0
 16 49  1  0
 21 50  1  0
 22 51  1  0
 22 52  1  0
 23 53  1  0
 23 54  1  0
 26 55  1  0
 27 56  1  0
 29 57  1  0
 31 58  1  0
 32 59  1  0
 33 60  1  0
M  END
>  <Energy>  (99) 
-23.459757809861497

>  <compound_id>  (99) 
438

>  <target_id>  (99) 
1

>  <reference_id>  (99) 
186

>  <inspiration_ids>  (99) 
[53, 186]

>  <energy_score>  (99) 
-64.25930677330476

>  <distance_score>  (99) 
1.640946040245878

>  <path>  (99) 
/opt/xchem-fragalysis-2/maxwin/BulkDock/SCRATCH/505733/C438-P186/C438-P186.minimised.mol

>  <scratch_subdir>  (99) 
/opt/xchem-fragalysis-2/maxwin/BulkDock/SCRATCH/505733/C438-P186

>  <fragmenstein_runtime>  (99) 
12.505634307861328

>  <fragmenstein_outcome>  (99) 
too moved

>  <fragmenstein_mode>  (99) 
expansion

>  <fragmenstein_error>  (99) 


$$$$
C439-P53
     RDKit          3D

 68 71  0  0  0  0  0  0  0  0999 V2000
    5.9162    3.7271   27.8583 C   0  0  0  0  0  0  0  0  0  0  0  0
    4.7401    4.3615   27.1838 C   0  0  0  0  0  0  0  0  0  0  0  0
    4.9321    5.3678   26.2415 C   0  0  0  0  0  0  0  0  0  0  0  0
    3.8235    5.8926   25.5883 C   0  0  0  0  0  0  0  0  0  0  0  0
    2.5647    5.3847   25.8787 C   0  0  0  0  0  0  0  0  0  0  0  0
    2.4649    4.3906   26.8371 C   0  0  0  0  0  0  0  0  0  0  0  0
    1.2528    3.8370   27.1571 N   0  0  0  0  0  0  0  0  0  0  0  0
   -0.1029    3.8661   26.3960 C   0  0  0  0  0  0  0  0  0  0  0  0
   -0.4113    4.4309   25.4200 O   0  0  0  0  0  0  0  0  0  0  0  0
   -1.0590    2.9744   27.2331 C   0  0  0  0  0  0  0  0  0  0  0  0
   -2.5158    3.3184   26.9456 C   0  0  0  0  0  0  0  0  0  0  0  0
   -3.1098    2.0832   26.3123 C   0  0  0  0  0  0  0  0  0  0  0  0
   -2.2593    0.9656   26.8608 C   0  0  0  0  0  0  0  0  0  0  0  0
   -0.9281    1.5588   26.8288 N   0  0  0  0  0  0  0  0  0  0  0  0
    0.1177    0.7623   27.4491 C   0  0  0  0  0  0  0  0  0  0  0  0
    0.0691    0.5831   28.9682 C   0  0  0  0  0  0  0  0  0  0  0  0
    1.4411    0.1531   29.4953 C   0  0  0  0  0  0  0  0  0  0  0  0
    1.0946   -0.5068   30.8113 C   0  0  0  0  0  0  0  0  0  0  0  0
   -0.1166   -1.2548   30.4585 N   0  0  0  0  0  0  0  0  0  0  0  0
   -0.8377   -2.2022   31.6023 S   0  0  0  0  0  0  0  0  0  0  0  0
   -2.0199   -2.8513   31.0872 O   0  0  0  0  0  0  0  0  0  0  0  0
   -0.8500   -1.4990   32.8599 O   0  0  0  0  0  0  0  0  0  0  0  0
    0.3715   -3.3573   31.6660 N   0  0  0  0  0  0  0  0  0  0  0  0
    0.5789   -4.1385   30.4135 C   0  0  0  0  0  0  0  0  0  0  0  0
    1.6343   -5.2190   30.6189 C   0  0  0  0  0  0  0  0  0  0  0  0
    1.1534   -6.1568   31.6823 C   0  0  0  0  0  0  0  0  0  0  0  0
    0.0919   -6.9182   31.3858 N   0  0  0  0  0  0  0  0  0  0  0  0
   -0.5119   -7.5298   32.4182 C   0  0  0  0  0  0  0  0  0  0  0  0
   -1.6951   -8.3508   32.0709 C   0  0  0  0  0  0  0  0  0  0  0  0
   -0.0819   -7.4141   33.7205 C   0  0  0  0  0  0  0  0  0  0  0  0
    1.0346   -6.6482   33.9005 C   0  0  0  0  0  0  0  0  0  0  0  0
    1.5963   -6.4893   35.1314 O   0  0  0  0  0  0  0  0  0  0  0  0
    1.6640   -6.0064   32.9145 N   0  0  0  0  0  0  0  0  0  0  0  0
   -0.8891   -0.5237   29.4516 C   0  0  0  0  0  0  0  0  0  0  0  0
    3.5173    3.8871   27.5093 N   0  0  0  0  0  0  0  0  0  0  0  0
    6.5477    3.2230   27.1200 H   0  0  0  0  0  0  0  0  0  0  0  0
    5.5916    2.9840   28.5938 H   0  0  0  0  0  0  0  0  0  0  0  0
    6.5085    4.4849   28.3805 H   0  0  0  0  0  0  0  0  0  0  0  0
    5.9277    5.7326   26.0106 H   0  0  0  0  0  0  0  0  0  0  0  0
    3.9376    6.6769   24.8458 H   0  0  0  0  0  0  0  0  0  0  0  0
    1.6908    5.7708   25.3655 H   0  0  0  0  0  0  0  0  0  0  0  0
    1.1972    3.1811   27.9190 H   0  0  0  0  0  0  0  0  0  0  0  0
   -0.8822    3.1457   28.3001 H   0  0  0  0  0  0  0  0  0  0  0  0
   -2.6358    4.1643   26.2692 H   0  0  0  0  0  0  0  0  0  0  0  0
   -3.0256    3.5427   27.8847 H   0  0  0  0  0  0  0  0  0  0  0  0
   -2.9739    2.1622   25.2319 H   0  0  0  0  0  0  0  0  0  0  0  0
   -4.1752    1.9658   26.5268 H   0  0  0  0  0  0  0  0  0  0  0  0
   -2.5771    0.7363   27.8793 H   0  0  0  0  0  0  0  0  0  0  0  0
   -2.3286    0.0615   26.2500 H   0  0  0  0  0  0  0  0  0  0  0  0
    1.0850    1.1912   27.1652 H   0  0  0  0  0  0  0  0  0  0  0  0
    0.1247   -0.2293   26.9826 H   0  0  0  0  0  0  0  0  0  0  0  0
   -0.1943    1.5198   29.4722 H   0  0  0  0  0  0  0  0  0  0  0  0
    2.1266    0.9970   29.6188 H   0  0  0  0  0  0  0  0  0  0  0  0
    1.9102   -0.5746   28.8206 H   0  0  0  0  0  0  0  0  0  0  0  0
    0.8767    0.2427   31.5798 H   0  0  0  0  0  0  0  0  0  0  0  0
    1.9061   -1.1571   31.1469 H   0  0  0  0  0  0  0  0  0  0  0  0
    0.2339   -3.9351   32.4984 H   0  0  0  0  0  0  0  0  0  0  0  0
    0.9191   -3.4732   29.6135 H   0  0  0  0  0  0  0  0  0  0  0  0
   -0.3656   -4.5939   30.1014 H   0  0  0  0  0  0  0  0  0  0  0  0
    1.7995   -5.7737   29.6894 H   0  0  0  0  0  0  0  0  0  0  0  0
    2.5912   -4.7736   30.9145 H   0  0  0  0  0  0  0  0  0  0  0  0
   -2.2692   -8.6030   32.9613 H   0  0  0  0  0  0  0  0  0  0  0  0
   -1.3763   -9.2548   31.5500 H   0  0  0  0  0  0  0  0  0  0  0  0
   -2.3400   -7.7664   31.4229 H   0  0  0  0  0  0  0  0  0  0  0  0
   -0.5794   -7.9140   34.5377 H   0  0  0  0  0  0  0  0  0  0  0  0
    1.0228   -6.9089   35.7902 H   0  0  0  0  0  0  0  0  0  0  0  0
   -1.7903   -0.0855   29.8920 H   0  0  0  0  0  0  0  0  0  0  0  0
   -1.1727   -1.2119   28.6492 H   0  0  0  0  0  0  0  0  0  0  0  0
  1  2  1  0
  2  3  2  0
  3  4  1  0
  4  5  2  0
  5  6  1  0
  6  7  1  0
  7  8  1  0
  8  9  2  0
  8 10  1  0
 10 11  1  0
 11 12  1  0
 12 13  1  0
 13 14  1  0
 14 15  1  0
 15 16  1  0
 16 17  1  0
 17 18  1  0
 18 19  1  0
 19 20  1  0
 20 21  2  0
 20 22  2  0
 20 23  1  0
 23 24  1  0
 24 25  1  0
 25 26  1  0
 26 27  2  0
 27 28  1  0
 28 29  1  0
 28 30  2  0
 30 31  1  0
 31 32  1  0
 31 33  2  0
 19 34  1  0
  6 35  2  0
 35  2  1  0
 14 10  1  0
 34 16  1  0
 33 26  1  0
  1 36  1  0
  1 37  1  0
  1 38  1  0
  3 39  1  0
  4 40  1  0
  5 41  1  0
  7 42  1  0
 10 43  1  0
 11 44  1  0
 11 45  1  0
 12 46  1  0
 12 47  1  0
 13 48  1  0
 13 49  1  0
 15 50  1  0
 15 51  1  0
 16 52  1  0
 17 53  1  0
 17 54  1  0
 18 55  1  0
 18 56  1  0
 23 57  1  0
 24 58  1  0
 24 59  1  0
 25 60  1  0
 25 61  1  0
 29 62  1  0
 29 63  1  0
 29 64  1  0
 30 65  1  0
 32 66  1  0
 34 67  1  0
 34 68  1  0
M  END
>  <Energy>  (100) 
-177.05516535758872

>  <compound_id>  (100) 
439

>  <target_id>  (100) 
1

>  <reference_id>  (100) 
53

>  <inspiration_ids>  (100) 
[53, 187]

>  <energy_score>  (100) 
-79.90251624461172

>  <distance_score>  (100) 
0.8138862960448815

>  <path>  (100) 
/opt/xchem-fragalysis-2/maxwin/BulkDock/SCRATCH/505733/C439-P53/C439-P53.minimised.mol

>  <scratch_subdir>  (100) 
/opt/xchem-fragalysis-2/maxwin/BulkDock/SCRATCH/505733/C439-P53

>  <fragmenstein_runtime>  (100) 
5.936385631561279

>  <fragmenstein_outcome>  (100) 
acceptable

>  <fragmenstein_mode>  (100) 
expansion

>  <fragmenstein_error>  (100) 


$$$$
C439-P187
     RDKit          3D

 68 71  0  0  0  0  0  0  0  0999 V2000
    6.0165    3.7440   27.8870 C   0  0  0  0  0  0  0  0  0  0  0  0
    4.8727    4.4232   27.2019 C   0  0  0  0  0  0  0  0  0  0  0  0
    5.1103    5.3970   26.2363 C   0  0  0  0  0  0  0  0  0  0  0  0
    4.0272    5.9623   25.5735 C   0  0  0  0  0  0  0  0  0  0  0  0
    2.7468    5.5238   25.8770 C   0  0  0  0  0  0  0  0  0  0  0  0
    2.6035    4.5595   26.8593 C   0  0  0  0  0  0  0  0  0  0  0  0
    1.3700    4.0635   27.1820 N   0  0  0  0  0  0  0  0  0  0  0  0
    0.0275    4.1158   26.4042 C   0  0  0  0  0  0  0  0  0  0  0  0
   -0.2484    4.6566   25.4058 O   0  0  0  0  0  0  0  0  0  0  0  0
   -0.9636    3.2728   27.2464 C   0  0  0  0  0  0  0  0  0  0  0  0
   -2.4047    3.6031   26.8537 C   0  0  0  0  0  0  0  0  0  0  0  0
   -2.9867    2.3200   26.3003 C   0  0  0  0  0  0  0  0  0  0  0  0
   -2.1565    1.2583   26.9763 C   0  0  0  0  0  0  0  0  0  0  0  0
   -0.8211    1.8353   26.9364 N   0  0  0  0  0  0  0  0  0  0  0  0
    0.1953    1.0569   27.6305 C   0  0  0  0  0  0  0  0  0  0  0  0
    0.0671    0.8464   29.1409 C   0  0  0  0  0  0  0  0  0  0  0  0
    1.4219    0.4243   29.7212 C   0  0  0  0  0  0  0  0  0  0  0  0
    1.0376   -0.3388   30.9680 C   0  0  0  0  0  0  0  0  0  0  0  0
   -0.1315   -1.1001   30.5085 N   0  0  0  0  0  0  0  0  0  0  0  0
   -0.9011   -2.0787   31.6044 S   0  0  0  0  0  0  0  0  0  0  0  0
   -2.0626   -2.7100   31.0271 O   0  0  0  0  0  0  0  0  0  0  0  0
   -0.9598   -1.4048   32.8766 O   0  0  0  0  0  0  0  0  0  0  0  0
    0.2983   -3.2424   31.6919 N   0  0  0  0  0  0  0  0  0  0  0  0
    0.5057   -4.0358   30.4493 C   0  0  0  0  0  0  0  0  0  0  0  0
    1.5400   -5.1298   30.6820 C   0  0  0  0  0  0  0  0  0  0  0  0
    1.0258   -6.0581   31.7393 C   0  0  0  0  0  0  0  0  0  0  0  0
    0.0005   -6.8519   31.4055 N   0  0  0  0  0  0  0  0  0  0  0  0
   -0.6093   -7.4925   32.4177 C   0  0  0  0  0  0  0  0  0  0  0  0
   -1.7349   -8.3790   32.0432 C   0  0  0  0  0  0  0  0  0  0  0  0
   -0.2225   -7.3758   33.7342 C   0  0  0  0  0  0  0  0  0  0  0  0
    0.8611   -6.5739   33.9514 C   0  0  0  0  0  0  0  0  0  0  0  0
    1.3899   -6.4240   35.1984 O   0  0  0  0  0  0  0  0  0  0  0  0
    1.5001   -5.9060   32.9864 N   0  0  0  0  0  0  0  0  0  0  0  0
   -0.8948   -0.2923   29.5484 C   0  0  0  0  0  0  0  0  0  0  0  0
    3.6300    4.0187   27.5407 N   0  0  0  0  0  0  0  0  0  0  0  0
    6.6189    3.1921   27.1587 H   0  0  0  0  0  0  0  0  0  0  0  0
    5.6570    3.0346   28.6395 H   0  0  0  0  0  0  0  0  0  0  0  0
    6.6489    4.4815   28.3911 H   0  0  0  0  0  0  0  0  0  0  0  0
    6.1223    5.7070   25.9960 H   0  0  0  0  0  0  0  0  0  0  0  0
    4.1787    6.7249   24.8153 H   0  0  0  0  0  0  0  0  0  0  0  0
    1.8909    5.9390   25.3565 H   0  0  0  0  0  0  0  0  0  0  0  0
    1.2809    3.4373   27.9653 H   0  0  0  0  0  0  0  0  0  0  0  0
   -0.8349    3.4968   28.3116 H   0  0  0  0  0  0  0  0  0  0  0  0
   -2.5017    4.4014   26.1147 H   0  0  0  0  0  0  0  0  0  0  0  0
   -2.9446    3.9121   27.7493 H   0  0  0  0  0  0  0  0  0  0  0  0
   -2.8322    2.2925   25.2164 H   0  0  0  0  0  0  0  0  0  0  0  0
   -4.0570    2.2233   26.5001 H   0  0  0  0  0  0  0  0  0  0  0  0
   -2.4831    1.1444   28.0087 H   0  0  0  0  0  0  0  0  0  0  0  0
   -2.2162    0.2982   26.4602 H   0  0  0  0  0  0  0  0  0  0  0  0
    1.1765    1.4843   27.4015 H   0  0  0  0  0  0  0  0  0  0  0  0
    0.2380    0.0651   27.1698 H   0  0  0  0  0  0  0  0  0  0  0  0
   -0.2380    1.7738   29.6379 H   0  0  0  0  0  0  0  0  0  0  0  0
    2.0685    1.2802   29.9378 H   0  0  0  0  0  0  0  0  0  0  0  0
    1.9562   -0.2391   29.0288 H   0  0  0  0  0  0  0  0  0  0  0  0
    0.7629    0.3504   31.7737 H   0  0  0  0  0  0  0  0  0  0  0  0
    1.8528   -0.9883   31.2964 H   0  0  0  0  0  0  0  0  0  0  0  0
    0.1358   -3.8130   32.5258 H   0  0  0  0  0  0  0  0  0  0  0  0
    0.8657   -3.3802   29.6496 H   0  0  0  0  0  0  0  0  0  0  0  0
   -0.4418   -4.4813   30.1285 H   0  0  0  0  0  0  0  0  0  0  0  0
    1.7145   -5.6898   29.7569 H   0  0  0  0  0  0  0  0  0  0  0  0
    2.4977   -4.6981   30.9949 H   0  0  0  0  0  0  0  0  0  0  0  0
   -2.4103   -7.8446   31.3805 H   0  0  0  0  0  0  0  0  0  0  0  0
   -2.2884   -8.6542   32.9380 H   0  0  0  0  0  0  0  0  0  0  0  0
   -1.3574   -9.2711   31.5415 H   0  0  0  0  0  0  0  0  0  0  0  0
   -0.7187   -7.9179   34.5284 H   0  0  0  0  0  0  0  0  0  0  0  0
    0.7883   -6.8373   35.8382 H   0  0  0  0  0  0  0  0  0  0  0  0
   -1.7946    0.1209   30.0155 H   0  0  0  0  0  0  0  0  0  0  0  0
   -1.1840   -0.9228   28.7021 H   0  0  0  0  0  0  0  0  0  0  0  0
  1  2  1  0
  2  3  2  0
  3  4  1  0
  4  5  2  0
  5  6  1  0
  6  7  1  0
  7  8  1  0
  8  9  2  0
  8 10  1  0
 10 11  1  0
 11 12  1  0
 12 13  1  0
 13 14  1  0
 14 15  1  0
 15 16  1  0
 16 17  1  0
 17 18  1  0
 18 19  1  0
 19 20  1  0
 20 21  2  0
 20 22  2  0
 20 23  1  0
 23 24  1  0
 24 25  1  0
 25 26  1  0
 26 27  2  0
 27 28  1  0
 28 29  1  0
 28 30  2  0
 30 31  1  0
 31 32  1  0
 31 33  2  0
 19 34  1  0
  6 35  2  0
 35  2  1  0
 14 10  1  0
 34 16  1  0
 33 26  1  0
  1 36  1  0
  1 37  1  0
  1 38  1  0
  3 39  1  0
  4 40  1  0
  5 41  1  0
  7 42  1  0
 10 43  1  0
 11 44  1  0
 11 45  1  0
 12 46  1  0
 12 47  1  0
 13 48  1  0
 13 49  1  0
 15 50  1  0
 15 51  1  0
 16 52  1  0
 17 53  1  0
 17 54  1  0
 18 55  1  0
 18 56  1  0
 23 57  1  0
 24 58  1  0
 24 59  1  0
 25 60  1  0
 25 61  1  0
 29 62  1  0
 29 63  1  0
 29 64  1  0
 30 65  1  0
 32 66  1  0
 34 67  1  0
 34 68  1  0
M  END
>  <Energy>  (101) 
-177.51179622657457

>  <compound_id>  (101) 
439

>  <target_id>  (101) 
1

>  <reference_id>  (101) 
187

>  <inspiration_ids>  (101) 
[53, 187]

>  <energy_score>  (101) 
-80.35914711360245

>  <distance_score>  (101) 
0.8794958798263801

>  <path>  (101) 
/opt/xchem-fragalysis-2/maxwin/BulkDock/SCRATCH/505733/C439-P187/C439-P187.minimised.mol

>  <scratch_subdir>  (101) 
/opt/xchem-fragalysis-2/maxwin/BulkDock/SCRATCH/505733/C439-P187

>  <fragmenstein_runtime>  (101) 
7.904093503952026

>  <fragmenstein_outcome>  (101) 
acceptable

>  <fragmenstein_mode>  (101) 
expansion

>  <fragmenstein_error>  (101) 


$$$$
C440-P53
     RDKit          3D

 63 66  0  0  0  0  0  0  0  0999 V2000
    6.1507    3.6956   27.2486 C   0  0  0  0  0  0  0  0  0  0  0  0
    4.9203    4.5088   27.0006 C   0  0  0  0  0  0  0  0  0  0  0  0
    5.0076    5.8043   26.5034 C   0  0  0  0  0  0  0  0  0  0  0  0
    3.8375    6.5406   26.3395 C   0  0  0  0  0  0  0  0  0  0  0  0
    2.6197    5.9699   26.6846 C   0  0  0  0  0  0  0  0  0  0  0  0
    2.6292    4.6731   27.1606 C   0  0  0  0  0  0  0  0  0  0  0  0
    1.4830    3.9995   27.4756 N   0  0  0  0  0  0  0  0  0  0  0  0
   -0.0061    4.4515   27.4093 C   0  0  0  0  0  0  0  0  0  0  0  0
   -0.4704    5.4915   27.1492 O   0  0  0  0  0  0  0  0  0  0  0  0
   -0.7795    3.1425   27.6739 C   0  0  0  0  0  0  0  0  0  0  0  0
   -2.2735    3.2997   27.8309 C   0  0  0  0  0  0  0  0  0  0  0  0
   -2.8593    2.7921   26.5401 C   0  0  0  0  0  0  0  0  0  0  0  0
   -1.8876    1.6792   26.1742 C   0  0  0  0  0  0  0  0  0  0  0  0
   -2.2525    0.3274   26.8275 C   0  0  0  0  0  0  0  0  0  0  0  0
   -1.4591   -0.1703   27.9298 N   0  0  0  0  0  0  0  0  0  0  0  0
   -0.1374   -0.4904   27.8772 C   0  0  0  0  0  0  0  0  0  0  0  0
    0.1974   -0.9555   29.1161 C   0  0  0  0  0  0  0  0  0  0  0  0
   -1.0293   -1.0863   29.7964 C   0  0  0  0  0  0  0  0  0  0  0  0
   -1.1412   -1.9766   31.3000 S   0  0  0  0  0  0  0  0  0  0  0  0
   -2.3132   -2.8257   31.2228 O   0  0  0  0  0  0  0  0  0  0  0  0
   -0.9749   -0.9922   32.3465 O   0  0  0  0  0  0  0  0  0  0  0  0
    0.2113   -3.0239   31.3713 N   0  0  0  0  0  0  0  0  0  0  0  0
    0.3274   -3.9998   30.2441 C   0  0  0  0  0  0  0  0  0  0  0  0
    1.2279   -5.1673   30.6196 C   0  0  0  0  0  0  0  0  0  0  0  0
    0.5051   -6.0329   31.6045 C   0  0  0  0  0  0  0  0  0  0  0  0
    0.6255   -5.7005   32.9054 N   0  0  0  0  0  0  0  0  0  0  0  0
   -0.1334   -6.3832   33.7832 C   0  0  0  0  0  0  0  0  0  0  0  0
   -0.0136   -6.0237   35.2336 C   0  0  0  0  0  0  0  0  0  0  0  0
   -1.0058   -7.3693   33.3796 C   0  0  0  0  0  0  0  0  0  0  0  0
   -1.0523   -7.6184   32.0302 C   0  0  0  0  0  0  0  0  0  0  0  0
   -1.9081   -8.5387   31.5030 O   0  0  0  0  0  0  0  0  0  0  0  0
   -0.3225   -6.9698   31.1205 N   0  0  0  0  0  0  0  0  0  0  0  0
   -2.0382   -0.5239   29.1050 N   0  0  0  0  0  0  0  0  0  0  0  0
   -0.5903    2.2742   26.4875 N   0  0  0  0  0  0  0  0  0  0  0  0
    3.7442    3.9343   27.3187 N   0  0  0  0  0  0  0  0  0  0  0  0
    5.8952    2.6542   27.4697 H   0  0  0  0  0  0  0  0  0  0  0  0
    6.7980    3.7037   26.3671 H   0  0  0  0  0  0  0  0  0  0  0  0
    6.7037    4.1031   28.1005 H   0  0  0  0  0  0  0  0  0  0  0  0
    5.9689    6.2437   26.2575 H   0  0  0  0  0  0  0  0  0  0  0  0
    3.8736    7.5562   25.9559 H   0  0  0  0  0  0  0  0  0  0  0  0
    1.6987    6.5289   26.5645 H   0  0  0  0  0  0  0  0  0  0  0  0
    1.5270    3.0089   27.6519 H   0  0  0  0  0  0  0  0  0  0  0  0
   -0.3751    2.6738   28.5800 H   0  0  0  0  0  0  0  0  0  0  0  0
   -2.6043    2.6334   28.6273 H   0  0  0  0  0  0  0  0  0  0  0  0
   -2.5828    4.3089   28.0741 H   0  0  0  0  0  0  0  0  0  0  0  0
   -3.8972    2.4623   26.6448 H   0  0  0  0  0  0  0  0  0  0  0  0
   -2.8353    3.5830   25.7794 H   0  0  0  0  0  0  0  0  0  0  0  0
   -1.9588    1.5608   25.0954 H   0  0  0  0  0  0  0  0  0  0  0  0
   -3.2623    0.4126   27.2002 H   0  0  0  0  0  0  0  0  0  0  0  0
   -2.2449   -0.4667   26.0768 H   0  0  0  0  0  0  0  0  0  0  0  0
    0.4576   -0.3684   26.9873 H   0  0  0  0  0  0  0  0  0  0  0  0
    1.1785   -1.2740   29.4384 H   0  0  0  0  0  0  0  0  0  0  0  0
    0.1896   -3.4836   32.2906 H   0  0  0  0  0  0  0  0  0  0  0  0
   -0.6575   -4.3587   29.9450 H   0  0  0  0  0  0  0  0  0  0  0  0
    0.7769   -3.5012   29.3829 H   0  0  0  0  0  0  0  0  0  0  0  0
    1.4745   -5.7588   29.7318 H   0  0  0  0  0  0  0  0  0  0  0  0
    2.1724   -4.8159   31.0508 H   0  0  0  0  0  0  0  0  0  0  0  0
    0.3114   -6.8938   35.8126 H   0  0  0  0  0  0  0  0  0  0  0  0
    0.7205   -5.2245   35.3772 H   0  0  0  0  0  0  0  0  0  0  0  0
   -0.9763   -5.6755   35.6198 H   0  0  0  0  0  0  0  0  0  0  0  0
   -1.6145   -7.9036   34.0931 H   0  0  0  0  0  0  0  0  0  0  0  0
   -2.4444   -8.9207   32.2210 H   0  0  0  0  0  0  0  0  0  0  0  0
    0.1530    1.6041   26.6294 H   0  0  0  0  0  0  0  0  0  0  0  0
  1  2  1  0
  2  3  2  0
  3  4  1  0
  4  5  2  0
  5  6  1  0
  6  7  1  0
  7  8  1  0
  8  9  2  0
  8 10  1  0
 10 11  1  0
 11 12  1  0
 12 13  1  0
 13 14  1  0
 14 15  1  0
 15 16  1  0
 16 17  2  0
 17 18  1  0
 18 19  1  0
 19 20  2  0
 19 21  2  0
 19 22  1  0
 22 23  1  0
 23 24  1  0
 24 25  1  0
 25 26  2  0
 26 27  1  0
 27 28  1  0
 27 29  2  0
 29 30  1  0
 30 31  1  0
 30 32  2  0
 18 33  2  0
 13 34  1  0
  6 35  2  0
 35  2  1  0
 34 10  1  0
 33 15  1  0
 32 25  1  0
  1 36  1  0
  1 37  1  0
  1 38  1  0
  3 39  1  0
  4 40  1  0
  5 41  1  0
  7 42  1  0
 10 43  1  0
 11 44  1  0
 11 45  1  0
 12 46  1  0
 12 47  1  0
 13 48  1  0
 14 49  1  0
 14 50  1  0
 16 51  1  0
 17 52  1  0
 22 53  1  0
 23 54  1  0
 23 55  1  0
 24 56  1  0
 24 57  1  0
 28 58  1  0
 28 59  1  0
 28 60  1  0
 29 61  1  0
 31 62  1  0
 34 63  1  0
M  END
>  <Energy>  (102) 
47.492795302898713

>  <compound_id>  (102) 
440

>  <target_id>  (102) 
1

>  <reference_id>  (102) 
53

>  <inspiration_ids>  (102) 
[53, 188]

>  <energy_score>  (102) 
-48.10456203819058

>  <distance_score>  (102) 
1.053476446309382

>  <path>  (102) 
/opt/xchem-fragalysis-2/maxwin/BulkDock/SCRATCH/505733/C440-P53/C440-P53.minimised.mol

>  <scratch_subdir>  (102) 
/opt/xchem-fragalysis-2/maxwin/BulkDock/SCRATCH/505733/C440-P53

>  <fragmenstein_runtime>  (102) 
5.978082180023193

>  <fragmenstein_outcome>  (102) 
too moved

>  <fragmenstein_mode>  (102) 
expansion

>  <fragmenstein_error>  (102) 


$$$$
C440-P188
     RDKit          3D

 63 66  0  0  0  0  0  0  0  0999 V2000
    6.0618    3.6459   27.4715 C   0  0  0  0  0  0  0  0  0  0  0  0
    5.0301    4.5710   26.9065 C   0  0  0  0  0  0  0  0  0  0  0  0
    5.3969    5.6635   26.1303 C   0  0  0  0  0  0  0  0  0  0  0  0
    4.4033    6.5136   25.6510 C   0  0  0  0  0  0  0  0  0  0  0  0
    3.0763    6.2572   25.9622 C   0  0  0  0  0  0  0  0  0  0  0  0
    2.8053    5.1528   26.7416 C   0  0  0  0  0  0  0  0  0  0  0  0
    1.5336    4.8138   27.1011 N   0  0  0  0  0  0  0  0  0  0  0  0
    0.1705    5.4120   26.6661 C   0  0  0  0  0  0  0  0  0  0  0  0
   -0.0704    6.3359   25.9933 O   0  0  0  0  0  0  0  0  0  0  0  0
   -0.8840    4.4919   27.3443 C   0  0  0  0  0  0  0  0  0  0  0  0
   -1.8992    3.9716   26.3444 C   0  0  0  0  0  0  0  0  0  0  0  0
   -1.3226    2.6505   25.9189 C   0  0  0  0  0  0  0  0  0  0  0  0
   -0.7543    2.0962   27.2184 C   0  0  0  0  0  0  0  0  0  0  0  0
   -1.8568    1.4828   28.0633 C   0  0  0  0  0  0  0  0  0  0  0  0
   -1.5036    0.1983   28.6111 N   0  0  0  0  0  0  0  0  0  0  0  0
   -1.6221   -0.9614   27.9231 C   0  0  0  0  0  0  0  0  0  0  0  0
   -1.4520   -1.9631   28.8305 C   0  0  0  0  0  0  0  0  0  0  0  0
   -1.2808   -1.3089   30.0683 C   0  0  0  0  0  0  0  0  0  0  0  0
   -1.1139   -2.1990   31.5618 S   0  0  0  0  0  0  0  0  0  0  0  0
   -2.1918   -3.1717   31.5388 O   0  0  0  0  0  0  0  0  0  0  0  0
   -0.9974   -1.2227   32.6218 O   0  0  0  0  0  0  0  0  0  0  0  0
    0.3466   -3.0679   31.4976 N   0  0  0  0  0  0  0  0  0  0  0  0
    0.4972   -3.9982   30.3456 C   0  0  0  0  0  0  0  0  0  0  0  0
    1.3359   -5.2101   30.7110 C   0  0  0  0  0  0  0  0  0  0  0  0
    0.5423   -6.0717   31.6502 C   0  0  0  0  0  0  0  0  0  0  0  0
    0.6473   -5.7923   32.9654 N   0  0  0  0  0  0  0  0  0  0  0  0
   -0.1701   -6.4663   33.7994 C   0  0  0  0  0  0  0  0  0  0  0  0
   -0.0751   -6.1657   35.2654 C   0  0  0  0  0  0  0  0  0  0  0  0
   -1.0771   -7.3972   33.3429 C   0  0  0  0  0  0  0  0  0  0  0  0
   -1.1021   -7.5947   31.9854 C   0  0  0  0  0  0  0  0  0  0  0  0
   -1.9723   -8.4707   31.4100 O   0  0  0  0  0  0  0  0  0  0  0  0
   -0.3141   -6.9550   31.1155 N   0  0  0  0  0  0  0  0  0  0  0  0
   -1.2934    0.0327   29.9323 N   0  0  0  0  0  0  0  0  0  0  0  0
   -0.2055    3.2767   27.8968 N   0  0  0  0  0  0  0  0  0  0  0  0
    3.7464    4.3094   27.2132 N   0  0  0  0  0  0  0  0  0  0  0  0
    6.6330    4.1556   28.2535 H   0  0  0  0  0  0  0  0  0  0  0  0
    5.5938    2.7585   27.9098 H   0  0  0  0  0  0  0  0  0  0  0  0
    6.7494    3.3124   26.6885 H   0  0  0  0  0  0  0  0  0  0  0  0
    6.4402    5.8605   25.9057 H   0  0  0  0  0  0  0  0  0  0  0  0
    4.6637    7.3776   25.0463 H   0  0  0  0  0  0  0  0  0  0  0  0
    2.2931    6.9142   25.6039 H   0  0  0  0  0  0  0  0  0  0  0  0
    1.3767    3.9541   27.6234 H   0  0  0  0  0  0  0  0  0  0  0  0
   -1.3530    5.0697   28.1448 H   0  0  0  0  0  0  0  0  0  0  0  0
   -2.8542    3.7703   26.8366 H   0  0  0  0  0  0  0  0  0  0  0  0
   -2.0658    4.6289   25.4862 H   0  0  0  0  0  0  0  0  0  0  0  0
   -2.0794    2.0121   25.4544 H   0  0  0  0  0  0  0  0  0  0  0  0
   -0.5196    2.8229   25.1916 H   0  0  0  0  0  0  0  0  0  0  0  0
    0.0485    1.3805   27.0170 H   0  0  0  0  0  0  0  0  0  0  0  0
   -2.1143    2.1198   28.9018 H   0  0  0  0  0  0  0  0  0  0  0  0
   -2.7641    1.3433   27.4675 H   0  0  0  0  0  0  0  0  0  0  0  0
   -1.8863   -0.9724   26.8798 H   0  0  0  0  0  0  0  0  0  0  0  0
   -1.5252   -3.0183   28.6274 H   0  0  0  0  0  0  0  0  0  0  0  0
    0.4582   -3.5313   32.4079 H   0  0  0  0  0  0  0  0  0  0  0  0
   -0.4770   -4.3464   29.9921 H   0  0  0  0  0  0  0  0  0  0  0  0
    0.9870   -3.4495   29.5341 H   0  0  0  0  0  0  0  0  0  0  0  0
    1.5774   -5.7832   29.8092 H   0  0  0  0  0  0  0  0  0  0  0  0
    2.2807   -4.9138   31.1804 H   0  0  0  0  0  0  0  0  0  0  0  0
    0.1878   -7.0717   35.8206 H   0  0  0  0  0  0  0  0  0  0  0  0
    0.6941   -5.4112   35.4586 H   0  0  0  0  0  0  0  0  0  0  0  0
   -1.0310   -5.7817   35.6354 H   0  0  0  0  0  0  0  0  0  0  0  0
   -1.7192   -7.9369   34.0240 H   0  0  0  0  0  0  0  0  0  0  0  0
   -2.5787   -8.8215   32.0911 H   0  0  0  0  0  0  0  0  0  0  0  0
   -0.3562    3.2377   28.9081 H   0  0  0  0  0  0  0  0  0  0  0  0
  1  2  1  0
  2  3  2  0
  3  4  1  0
  4  5  2  0
  5  6  1  0
  6  7  1  0
  7  8  1  0
  8  9  2  0
  8 10  1  0
 10 11  1  0
 11 12  1  0
 12 13  1  0
 13 14  1  0
 14 15  1  0
 15 16  1  0
 16 17  2  0
 17 18  1  0
 18 19  1  0
 19 20  2  0
 19 21  2  0
 19 22  1  0
 22 23  1  0
 23 24  1  0
 24 25  1  0
 25 26  2  0
 26 27  1  0
 27 28  1  0
 27 29  2  0
 29 30  1  0
 30 31  1  0
 30 32  2  0
 18 33  2  0
 13 34  1  0
  6 35  2  0
 35  2  1  0
 34 10  1  0
 33 15  1  0
 32 25  1  0
  1 36  1  0
  1 37  1  0
  1 38  1  0
  3 39  1  0
  4 40  1  0
  5 41  1  0
  7 42  1  0
 10 43  1  0
 11 44  1  0
 11 45  1  0
 12 46  1  0
 12 47  1  0
 13 48  1  0
 14 49  1  0
 14 50  1  0
 16 51  1  0
 17 52  1  0
 22 53  1  0
 23 54  1  0
 23 55  1  0
 24 56  1  0
 24 57  1  0
 28 58  1  0
 28 59  1  0
 28 60  1  0
 29 61  1  0
 31 62  1  0
 34 63  1  0
M  END
>  <Energy>  (103) 
38.857944156454586

>  <compound_id>  (103) 
440

>  <target_id>  (103) 
1

>  <reference_id>  (103) 
188

>  <inspiration_ids>  (103) 
[53, 188]

>  <energy_score>  (103) 
-56.73941318463551

>  <distance_score>  (103) 
1.3832847797193417

>  <path>  (103) 
/opt/xchem-fragalysis-2/maxwin/BulkDock/SCRATCH/505733/C440-P188/C440-P188.minimised.mol

>  <scratch_subdir>  (103) 
/opt/xchem-fragalysis-2/maxwin/BulkDock/SCRATCH/505733/C440-P188

>  <fragmenstein_runtime>  (103) 
6.851391553878784

>  <fragmenstein_outcome>  (103) 
too moved

>  <fragmenstein_mode>  (103) 
expansion

>  <fragmenstein_error>  (103) 


$$$$
C441-P53
     RDKit          3D

 60 63  0  0  0  0  0  0  0  0999 V2000
    6.4103    4.8284   27.1773 C   0  0  0  0  0  0  0  0  0  0  0  0
    5.1381    5.2859   26.5398 C   0  0  0  0  0  0  0  0  0  0  0  0
    5.1192    5.9561   25.3256 C   0  0  0  0  0  0  0  0  0  0  0  0
    3.8894    6.2054   24.7083 C   0  0  0  0  0  0  0  0  0  0  0  0
    2.7169    5.7390   25.2870 C   0  0  0  0  0  0  0  0  0  0  0  0
    2.8452    5.1147   26.4995 C   0  0  0  0  0  0  0  0  0  0  0  0
    1.8708    4.4162   27.1263 N   0  0  0  0  0  0  0  0  0  0  0  0
    0.4980    3.8884   26.5948 C   0  0  0  0  0  0  0  0  0  0  0  0
   -0.0248    4.0465   25.5620 O   0  0  0  0  0  0  0  0  0  0  0  0
    0.0639    3.0140   27.7695 C   0  0  0  0  0  0  0  0  0  0  0  0
    1.2111    1.9861   28.0346 C   0  0  0  0  0  0  0  0  0  0  0  0
    0.5112    0.6950   28.3286 C   0  0  0  0  0  0  0  0  0  0  0  0
   -0.8483    1.2178   28.7190 C   0  0  0  0  0  0  0  0  0  0  0  0
   -1.7792    0.1384   28.9728 N   0  0  0  0  0  0  0  0  0  0  0  0
   -1.9300   -0.9501   28.1539 C   0  0  0  0  0  0  0  0  0  0  0  0
   -1.6964   -2.0313   28.9712 C   0  0  0  0  0  0  0  0  0  0  0  0
   -1.6254   -1.5173   30.2807 C   0  0  0  0  0  0  0  0  0  0  0  0
   -1.2017   -2.4583   31.6857 S   0  0  0  0  0  0  0  0  0  0  0  0
   -2.1178   -3.5781   31.6610 O   0  0  0  0  0  0  0  0  0  0  0  0
   -1.1489   -1.5400   32.8017 O   0  0  0  0  0  0  0  0  0  0  0  0
    0.3704   -3.0860   31.4989 N   0  0  0  0  0  0  0  0  0  0  0  0
    0.6127   -3.9689   30.3262 C   0  0  0  0  0  0  0  0  0  0  0  0
    1.5606   -5.1121   30.6764 C   0  0  0  0  0  0  0  0  0  0  0  0
    0.8246   -6.0757   31.5603 C   0  0  0  0  0  0  0  0  0  0  0  0
    0.7180   -5.7377   32.8621 N   0  0  0  0  0  0  0  0  0  0  0  0
   -0.1516   -6.4476   33.6114 C   0  0  0  0  0  0  0  0  0  0  0  0
   -0.2540   -6.1003   35.0652 C   0  0  0  0  0  0  0  0  0  0  0  0
   -0.8932   -7.4782   33.0827 C   0  0  0  0  0  0  0  0  0  0  0  0
   -0.6548   -7.7592   31.7659 C   0  0  0  0  0  0  0  0  0  0  0  0
   -1.2540   -8.8123   31.1573 O   0  0  0  0  0  0  0  0  0  0  0  0
    0.1833   -7.0952   30.9702 N   0  0  0  0  0  0  0  0  0  0  0  0
   -1.8725   -0.1992   30.2894 N   0  0  0  0  0  0  0  0  0  0  0  0
   -1.1368    2.1528   27.6256 N   0  0  0  0  0  0  0  0  0  0  0  0
    4.0074    4.9250   27.1570 N   0  0  0  0  0  0  0  0  0  0  0  0
    6.2290    4.4379   28.1840 H   0  0  0  0  0  0  0  0  0  0  0  0
    6.8662    4.0348   26.5776 H   0  0  0  0  0  0  0  0  0  0  0  0
    7.1142    5.6623   27.2613 H   0  0  0  0  0  0  0  0  0  0  0  0
    6.0427    6.2558   24.8405 H   0  0  0  0  0  0  0  0  0  0  0  0
    3.8542    6.7100   23.7462 H   0  0  0  0  0  0  0  0  0  0  0  0
    1.7598    5.8419   24.7900 H   0  0  0  0  0  0  0  0  0  0  0  0
    1.9795    4.1592   28.0933 H   0  0  0  0  0  0  0  0  0  0  0  0
   -0.0763    3.6739   28.6385 H   0  0  0  0  0  0  0  0  0  0  0  0
    1.7980    2.2869   28.9115 H   0  0  0  0  0  0  0  0  0  0  0  0
    1.8963    1.8472   27.1899 H   0  0  0  0  0  0  0  0  0  0  0  0
    1.0055    0.1331   29.1284 H   0  0  0  0  0  0  0  0  0  0  0  0
    0.4898    0.0593   27.4346 H   0  0  0  0  0  0  0  0  0  0  0  0
   -0.7557    1.7673   29.6653 H   0  0  0  0  0  0  0  0  0  0  0  0
   -1.9815   -0.8550   27.0756 H   0  0  0  0  0  0  0  0  0  0  0  0
   -1.5498   -3.0467   28.6504 H   0  0  0  0  0  0  0  0  0  0  0  0
    0.5918   -3.5468   32.3919 H   0  0  0  0  0  0  0  0  0  0  0  0
   -0.3226   -4.3860   29.9444 H   0  0  0  0  0  0  0  0  0  0  0  0
    1.0572   -3.3530   29.5368 H   0  0  0  0  0  0  0  0  0  0  0  0
    1.8848   -5.6259   29.7647 H   0  0  0  0  0  0  0  0  0  0  0  0
    2.4568   -4.7443   31.1886 H   0  0  0  0  0  0  0  0  0  0  0  0
    0.1864   -5.1173   35.2604 H   0  0  0  0  0  0  0  0  0  0  0  0
    0.2802   -6.8448   35.6635 H   0  0  0  0  0  0  0  0  0  0  0  0
   -1.2980   -6.0714   35.3874 H   0  0  0  0  0  0  0  0  0  0  0  0
   -1.5926   -8.0525   33.6694 H   0  0  0  0  0  0  0  0  0  0  0  0
   -0.6391   -8.9365   30.4068 H   0  0  0  0  0  0  0  0  0  0  0  0
   -1.9781    2.6993   27.8259 H   0  0  0  0  0  0  0  0  0  0  0  0
  1  2  1  0
  2  3  2  0
  3  4  1  0
  4  5  2  0
  5  6  1  0
  6  7  1  0
  7  8  1  0
  8  9  2  0
  8 10  1  0
 10 11  1  0
 11 12  1  0
 12 13  1  0
 13 14  1  0
 14 15  1  0
 15 16  2  0
 16 17  1  0
 17 18  1  0
 18 19  2  0
 18 20  2  0
 18 21  1  0
 21 22  1  0
 22 23  1  0
 23 24  1  0
 24 25  2  0
 25 26  1  0
 26 27  1  0
 26 28  2  0
 28 29  1  0
 29 30  1  0
 29 31  2  0
 17 32  2  0
 13 33  1  0
  6 34  2  0
 34  2  1  0
 33 10  1  0
 32 14  1  0
 31 24  1  0
  1 35  1  0
  1 36  1  0
  1 37  1  0
  3 38  1  0
  4 39  1  0
  5 40  1  0
  7 41  1  0
 10 42  1  0
 11 43  1  0
 11 44  1  0
 12 45  1  0
 12 46  1  0
 13 47  1  0
 15 48  1  0
 16 49  1  0
 21 50  1  0
 22 51  1  0
 22 52  1  0
 23 53  1  0
 23 54  1  0
 27 55  1  0
 27 56  1  0
 27 57  1  0
 28 58  1  0
 30 59  1  0
 33 60  1  0
M  END
>  <Energy>  (104) 
73.686635188128207

>  <compound_id>  (104) 
441

>  <target_id>  (104) 
1

>  <reference_id>  (104) 
53

>  <inspiration_ids>  (104) 
[53, 189]

>  <energy_score>  (104) 
-38.5995062141605

>  <distance_score>  (104) 
1.5224692369732886

>  <path>  (104) 
/opt/xchem-fragalysis-2/maxwin/BulkDock/SCRATCH/505733/C441-P53/C441-P53.minimised.mol

>  <scratch_subdir>  (104) 
/opt/xchem-fragalysis-2/maxwin/BulkDock/SCRATCH/505733/C441-P53

>  <fragmenstein_runtime>  (104) 
8.172274589538574

>  <fragmenstein_outcome>  (104) 
too moved

>  <fragmenstein_mode>  (104) 
expansion

>  <fragmenstein_error>  (104) 


$$$$
C441-P189
     RDKit          3D

 60 63  0  0  0  0  0  0  0  0999 V2000
    6.1543    3.5420   27.8154 C   0  0  0  0  0  0  0  0  0  0  0  0
    4.9943    4.3578   27.3407 C   0  0  0  0  0  0  0  0  0  0  0  0
    5.1996    5.6185   26.7873 C   0  0  0  0  0  0  0  0  0  0  0  0
    4.1002    6.3449   26.3476 C   0  0  0  0  0  0  0  0  0  0  0  0
    2.8366    5.7857   26.4603 C   0  0  0  0  0  0  0  0  0  0  0  0
    2.7260    4.5200   27.0143 C   0  0  0  0  0  0  0  0  0  0  0  0
    1.5220    3.8692   27.0338 N   0  0  0  0  0  0  0  0  0  0  0  0
    0.1911    4.2063   26.3364 C   0  0  0  0  0  0  0  0  0  0  0  0
   -0.1140    5.1327   25.6966 O   0  0  0  0  0  0  0  0  0  0  0  0
   -0.7366    3.0142   26.5203 C   0  0  0  0  0  0  0  0  0  0  0  0
   -2.0300    3.3902   27.2049 C   0  0  0  0  0  0  0  0  0  0  0  0
   -2.5453    2.0570   27.7146 C   0  0  0  0  0  0  0  0  0  0  0  0
   -1.4672    1.0564   27.4079 C   0  0  0  0  0  0  0  0  0  0  0  0
   -1.4455   -0.0860   28.3131 N   0  0  0  0  0  0  0  0  0  0  0  0
   -2.1266   -1.2271   27.9856 C   0  0  0  0  0  0  0  0  0  0  0  0
   -2.0346   -2.0509   29.0616 C   0  0  0  0  0  0  0  0  0  0  0  0
   -1.3413   -1.3235   30.0411 C   0  0  0  0  0  0  0  0  0  0  0  0
   -1.0296   -2.0856   31.5931 S   0  0  0  0  0  0  0  0  0  0  0  0
   -2.0716   -3.0942   31.7163 O   0  0  0  0  0  0  0  0  0  0  0  0
   -0.8904   -1.0323   32.5711 O   0  0  0  0  0  0  0  0  0  0  0  0
    0.4380   -2.9439   31.5071 N   0  0  0  0  0  0  0  0  0  0  0  0
    0.5723   -3.8731   30.3523 C   0  0  0  0  0  0  0  0  0  0  0  0
    1.4520   -5.0676   30.7027 C   0  0  0  0  0  0  0  0  0  0  0  0
    0.6722   -6.0142   31.5698 C   0  0  0  0  0  0  0  0  0  0  0  0
    0.5591   -5.6988   32.8753 N   0  0  0  0  0  0  0  0  0  0  0  0
   -0.2758   -6.4524   33.6246 C   0  0  0  0  0  0  0  0  0  0  0  0
   -0.3844   -6.1242   35.0832 C   0  0  0  0  0  0  0  0  0  0  0  0
   -0.9728   -7.5131   33.0937 C   0  0  0  0  0  0  0  0  0  0  0  0
   -0.7468   -7.7540   31.7663 C   0  0  0  0  0  0  0  0  0  0  0  0
   -1.3005   -8.8330   31.1596 O   0  0  0  0  0  0  0  0  0  0  0  0
    0.0612   -7.0491   30.9720 N   0  0  0  0  0  0  0  0  0  0  0  0
   -0.9714   -0.1002   29.5929 N   0  0  0  0  0  0  0  0  0  0  0  0
   -0.2364    1.8675   27.3431 N   0  0  0  0  0  0  0  0  0  0  0  0
    3.7699    3.8048   27.4669 N   0  0  0  0  0  0  0  0  0  0  0  0
    6.6677    4.0562   28.6338 H   0  0  0  0  0  0  0  0  0  0  0  0
    5.8235    2.5645   28.1812 H   0  0  0  0  0  0  0  0  0  0  0  0
    6.8618    3.3755   26.9973 H   0  0  0  0  0  0  0  0  0  0  0  0
    6.1990    6.0336   26.7045 H   0  0  0  0  0  0  0  0  0  0  0  0
    4.2254    7.3337   25.9167 H   0  0  0  0  0  0  0  0  0  0  0  0
    1.9705    6.3342   26.1080 H   0  0  0  0  0  0  0  0  0  0  0  0
    1.4671    2.9410   27.4364 H   0  0  0  0  0  0  0  0  0  0  0  0
   -0.9432    2.6549   25.5033 H   0  0  0  0  0  0  0  0  0  0  0  0
   -2.7379    3.8584   26.5128 H   0  0  0  0  0  0  0  0  0  0  0  0
   -1.8673    4.0867   28.0355 H   0  0  0  0  0  0  0  0  0  0  0  0
   -3.4833    1.7947   27.2183 H   0  0  0  0  0  0  0  0  0  0  0  0
   -2.6880    2.0914   28.7905 H   0  0  0  0  0  0  0  0  0  0  0  0
   -1.6667    0.6381   26.4163 H   0  0  0  0  0  0  0  0  0  0  0  0
   -2.6090   -1.3586   27.0257 H   0  0  0  0  0  0  0  0  0  0  0  0
   -2.4364   -3.0417   29.1506 H   0  0  0  0  0  0  0  0  0  0  0  0
    0.5473   -3.4171   32.4129 H   0  0  0  0  0  0  0  0  0  0  0  0
   -0.4048   -4.2298   30.0115 H   0  0  0  0  0  0  0  0  0  0  0  0
    1.0321   -3.3101   29.5323 H   0  0  0  0  0  0  0  0  0  0  0  0
    1.7547   -5.5861   29.7858 H   0  0  0  0  0  0  0  0  0  0  0  0
    2.3648   -4.7539   31.2217 H   0  0  0  0  0  0  0  0  0  0  0  0
    0.0208   -5.1280   35.2872 H   0  0  0  0  0  0  0  0  0  0  0  0
    0.1788   -6.8554   35.6714 H   0  0  0  0  0  0  0  0  0  0  0  0
   -1.4285   -6.1374   35.4083 H   0  0  0  0  0  0  0  0  0  0  0  0
   -1.6258   -8.1395   33.6832 H   0  0  0  0  0  0  0  0  0  0  0  0
   -0.6545   -8.9823   30.4412 H   0  0  0  0  0  0  0  0  0  0  0  0
    0.4738    1.3251   26.8604 H   0  0  0  0  0  0  0  0  0  0  0  0
  1  2  1  0
  2  3  2  0
  3  4  1  0
  4  5  2  0
  5  6  1  0
  6  7  1  0
  7  8  1  0
  8  9  2  0
  8 10  1  0
 10 11  1  0
 11 12  1  0
 12 13  1  0
 13 14  1  0
 14 15  1  0
 15 16  2  0
 16 17  1  0
 17 18  1  0
 18 19  2  0
 18 20  2  0
 18 21  1  0
 21 22  1  0
 22 23  1  0
 23 24  1  0
 24 25  2  0
 25 26  1  0
 26 27  1  0
 26 28  2  0
 28 29  1  0
 29 30  1  0
 29 31  2  0
 17 32  2  0
 13 33  1  0
  6 34  2  0
 34  2  1  0
 33 10  1  0
 32 14  1  0
 31 24  1  0
  1 35  1  0
  1 36  1  0
  1 37  1  0
  3 38  1  0
  4 39  1  0
  5 40  1  0
  7 41  1  0
 10 42  1  0
 11 43  1  0
 11 44  1  0
 12 45  1  0
 12 46  1  0
 13 47  1  0
 15 48  1  0
 16 49  1  0
 21 50  1  0
 22 51  1  0
 22 52  1  0
 23 53  1  0
 23 54  1  0
 27 55  1  0
 27 56  1  0
 27 57  1  0
 28 58  1  0
 30 59  1  0
 33 60  1  0
M  END
>  <Energy>  (105) 
43.523243975647539

>  <compound_id>  (105) 
441

>  <target_id>  (105) 
1

>  <reference_id>  (105) 
189

>  <inspiration_ids>  (105) 
[53, 189]

>  <energy_score>  (105) 
-68.76289742664235

>  <distance_score>  (105) 
0.8626644587876333

>  <path>  (105) 
/opt/xchem-fragalysis-2/maxwin/BulkDock/SCRATCH/505733/C441-P189/C441-P189.minimised.mol

>  <scratch_subdir>  (105) 
/opt/xchem-fragalysis-2/maxwin/BulkDock/SCRATCH/505733/C441-P189

>  <fragmenstein_runtime>  (105) 
7.129711866378784

>  <fragmenstein_outcome>  (105) 
acceptable

>  <fragmenstein_mode>  (105) 
expansion

>  <fragmenstein_error>  (105) 


$$$$
C203-P53
     RDKit          3D

 59 62  0  0  0  0  0  0  0  0999 V2000
    5.6386    3.6077   27.9084 C   0  0  0  0  0  0  0  0  0  0  0  0
    4.5584    4.3657   27.2004 C   0  0  0  0  0  0  0  0  0  0  0  0
    4.8320    5.6024   26.6262 C   0  0  0  0  0  0  0  0  0  0  0  0
    3.8184    6.2576   25.9381 C   0  0  0  0  0  0  0  0  0  0  0  0
    2.5740    5.6515   25.8246 C   0  0  0  0  0  0  0  0  0  0  0  0
    2.3845    4.4172   26.4230 C   0  0  0  0  0  0  0  0  0  0  0  0
    1.1988    3.7354   26.2890 N   0  0  0  0  0  0  0  0  0  0  0  0
   -0.0770    4.0841   25.4814 C   0  0  0  0  0  0  0  0  0  0  0  0
   -0.2893    4.9657   24.7441 O   0  0  0  0  0  0  0  0  0  0  0  0
   -1.0875    2.9540   25.7477 C   0  0  0  0  0  0  0  0  0  0  0  0
   -2.3035    3.4477   26.5041 C   0  0  0  0  0  0  0  0  0  0  0  0
   -2.7270    2.2888   27.3889 C   0  0  0  0  0  0  0  0  0  0  0  0
   -1.7564    1.1666   27.0662 C   0  0  0  0  0  0  0  0  0  0  0  0
   -1.4813    0.2120   28.2097 C   0  0  0  0  0  0  0  0  0  0  0  0
   -1.6478   -1.1460   27.9838 C   0  0  0  0  0  0  0  0  0  0  0  0
   -1.4233   -2.0322   29.0231 C   0  0  0  0  0  0  0  0  0  0  0  0
   -1.0531   -1.5422   30.2653 C   0  0  0  0  0  0  0  0  0  0  0  0
   -0.8524   -2.6567   31.5924 S   0  0  0  0  0  0  0  0  0  0  0  0
   -0.2893   -1.9510   32.7182 O   0  0  0  0  0  0  0  0  0  0  0  0
   -2.0692   -3.4362   31.6901 O   0  0  0  0  0  0  0  0  0  0  0  0
    0.2917   -3.7030   30.9304 N   0  0  0  0  0  0  0  0  0  0  0  0
    1.5079   -3.9854   31.7147 C   0  0  0  0  0  0  0  0  0  0  0  0
    1.9058   -5.4472   31.5266 C   0  0  0  0  0  0  0  0  0  0  0  0
    0.9138   -6.3290   32.2312 C   0  0  0  0  0  0  0  0  0  0  0  0
    0.9661   -6.3202   33.5754 N   0  0  0  0  0  0  0  0  0  0  0  0
   -0.0456   -6.9203   34.2175 C   0  0  0  0  0  0  0  0  0  0  0  0
   -1.0689   -7.5550   33.5657 C   0  0  0  0  0  0  0  0  0  0  0  0
   -0.9800   -7.5797   32.1967 C   0  0  0  0  0  0  0  0  0  0  0  0
   -1.8978   -8.2711   31.4523 O   0  0  0  0  0  0  0  0  0  0  0  0
   -0.0300   -6.9475   31.4943 N   0  0  0  0  0  0  0  0  0  0  0  0
   -0.8561   -0.1913   30.4204 C   0  0  0  0  0  0  0  0  0  0  0  0
   -1.0553    0.6922   29.4125 N   0  0  0  0  0  0  0  0  0  0  0  0
   -0.5546    1.8859   26.6224 N   0  0  0  0  0  0  0  0  0  0  0  0
    3.3438    3.7777   27.1223 N   0  0  0  0  0  0  0  0  0  0  0  0
    6.0543    4.2101   28.7222 H   0  0  0  0  0  0  0  0  0  0  0  0
    6.4384    3.3482   27.2077 H   0  0  0  0  0  0  0  0  0  0  0  0
    5.2474    2.6800   28.3387 H   0  0  0  0  0  0  0  0  0  0  0  0
    5.8165    6.0505   26.7102 H   0  0  0  0  0  0  0  0  0  0  0  0
    3.9967    7.2265   25.4813 H   0  0  0  0  0  0  0  0  0  0  0  0
    1.7821    6.1463   25.2743 H   0  0  0  0  0  0  0  0  0  0  0  0
    1.0094    2.9420   26.8980 H   0  0  0  0  0  0  0  0  0  0  0  0
   -1.3731    2.5259   24.7791 H   0  0  0  0  0  0  0  0  0  0  0  0
   -2.0639    4.3197   27.1219 H   0  0  0  0  0  0  0  0  0  0  0  0
   -3.1019    3.7221   25.8072 H   0  0  0  0  0  0  0  0  0  0  0  0
   -2.6483    2.6014   28.4321 H   0  0  0  0  0  0  0  0  0  0  0  0
   -3.7623    1.9964   27.1893 H   0  0  0  0  0  0  0  0  0  0  0  0
   -2.1565    0.6033   26.2116 H   0  0  0  0  0  0  0  0  0  0  0  0
   -1.9641   -1.5209   27.0146 H   0  0  0  0  0  0  0  0  0  0  0  0
   -1.5433   -3.0959   28.8581 H   0  0  0  0  0  0  0  0  0  0  0  0
   -0.2081   -4.5534   30.6465 H   0  0  0  0  0  0  0  0  0  0  0  0
    1.3660   -3.7690   32.7782 H   0  0  0  0  0  0  0  0  0  0  0  0
    2.3047   -3.3315   31.3445 H   0  0  0  0  0  0  0  0  0  0  0  0
    1.9667   -5.7128   30.4652 H   0  0  0  0  0  0  0  0  0  0  0  0
    2.8921   -5.6077   31.9729 H   0  0  0  0  0  0  0  0  0  0  0  0
   -0.0071   -6.8760   35.3019 H   0  0  0  0  0  0  0  0  0  0  0  0
   -1.8603   -8.0343   34.1189 H   0  0  0  0  0  0  0  0  0  0  0  0
   -2.4696   -8.7646   32.0706 H   0  0  0  0  0  0  0  0  0  0  0  0
   -0.5341    0.2461   31.3603 H   0  0  0  0  0  0  0  0  0  0  0  0
    0.0551    1.2428   26.1301 H   0  0  0  0  0  0  0  0  0  0  0  0
  1  2  1  0
  2  3  2  0
  3  4  1  0
  4  5  2  0
  5  6  1  0
  6  7  1  0
  7  8  1  0
  8  9  2  0
  8 10  1  0
 10 11  1  0
 11 12  1  0
 12 13  1  0
 13 14  1  0
 14 15  2  0
 15 16  1  0
 16 17  2  0
 17 18  1  0
 18 19  2  0
 18 20  2  0
 18 21  1  0
 21 22  1  0
 22 23  1  0
 23 24  1  0
 24 25  2  0
 25 26  1  0
 26 27  2  0
 27 28  1  0
 28 29  1  0
 28 30  2  0
 17 31  1  0
 31 32  2  0
 13 33  1  0
  6 34  2  0
 34  2  1  0
 33 10  1  0
 32 14  1  0
 30 24  1  0
  1 35  1  0
  1 36  1  0
  1 37  1  0
  3 38  1  0
  4 39  1  0
  5 40  1  0
  7 41  1  0
 10 42  1  0
 11 43  1  0
 11 44  1  0
 12 45  1  0
 12 46  1  0
 13 47  1  0
 15 48  1  0
 16 49  1  0
 21 50  1  0
 22 51  1  0
 22 52  1  0
 23 53  1  0
 23 54  1  0
 26 55  1  0
 27 56  1  0
 29 57  1  0
 31 58  1  0
 33 59  1  0
M  END
>  <Energy>  (106) 
-44.07857436832581

>  <compound_id>  (106) 
203

>  <target_id>  (106) 
1

>  <reference_id>  (106) 
53

>  <inspiration_ids>  (106) 
[53, 190]

>  <energy_score>  (106) 
-52.74700602699505

>  <distance_score>  (106) 
0.8689736601550918

>  <path>  (106) 
/opt/xchem-fragalysis-2/maxwin/BulkDock/SCRATCH/505733/C203-P53/C203-P53.minimised.mol

>  <scratch_subdir>  (106) 
/opt/xchem-fragalysis-2/maxwin/BulkDock/SCRATCH/505733/C203-P53

>  <fragmenstein_runtime>  (106) 
7.691701412200928

>  <fragmenstein_outcome>  (106) 
acceptable

>  <fragmenstein_mode>  (106) 
expansion

>  <fragmenstein_error>  (106) 


$$$$
C203-P190
     RDKit          3D

 59 62  0  0  0  0  0  0  0  0999 V2000
    5.8856    3.6791   27.8814 C   0  0  0  0  0  0  0  0  0  0  0  0
    4.8081    4.5194   27.2710 C   0  0  0  0  0  0  0  0  0  0  0  0
    5.1177    5.7364   26.6736 C   0  0  0  0  0  0  0  0  0  0  0  0
    4.0972    6.4726   26.0827 C   0  0  0  0  0  0  0  0  0  0  0  0
    2.8065    5.9648   26.0852 C   0  0  0  0  0  0  0  0  0  0  0  0
    2.5889    4.7434   26.6956 C   0  0  0  0  0  0  0  0  0  0  0  0
    1.3685    4.1262   26.6373 N   0  0  0  0  0  0  0  0  0  0  0  0
    0.0852    4.5075   25.8605 C   0  0  0  0  0  0  0  0  0  0  0  0
   -0.1553    5.4479   25.2111 O   0  0  0  0  0  0  0  0  0  0  0  0
   -0.8678    3.3111   26.0033 C   0  0  0  0  0  0  0  0  0  0  0  0
   -2.1988    3.6880   26.6161 C   0  0  0  0  0  0  0  0  0  0  0  0
   -2.5439    2.5145   27.5126 C   0  0  0  0  0  0  0  0  0  0  0  0
   -1.5289    1.4358   27.2167 C   0  0  0  0  0  0  0  0  0  0  0  0
   -1.3054    0.4258   28.3308 C   0  0  0  0  0  0  0  0  0  0  0  0
   -1.6020   -0.9072   28.0724 C   0  0  0  0  0  0  0  0  0  0  0  0
   -1.4575   -1.8568   29.0693 C   0  0  0  0  0  0  0  0  0  0  0  0
   -1.0512   -1.4433   30.3259 C   0  0  0  0  0  0  0  0  0  0  0  0
   -0.9654   -2.6126   31.6216 S   0  0  0  0  0  0  0  0  0  0  0  0
   -0.4535   -1.9613   32.8033 O   0  0  0  0  0  0  0  0  0  0  0  0
   -2.1959   -3.3779   31.6187 O   0  0  0  0  0  0  0  0  0  0  0  0
    0.1947   -3.6653   30.9965 N   0  0  0  0  0  0  0  0  0  0  0  0
    1.3642   -3.9666   31.8427 C   0  0  0  0  0  0  0  0  0  0  0  0
    1.7870   -5.4134   31.6208 C   0  0  0  0  0  0  0  0  0  0  0  0
    0.7968   -6.3388   32.2731 C   0  0  0  0  0  0  0  0  0  0  0  0
    0.8574   -6.4310   33.6138 N   0  0  0  0  0  0  0  0  0  0  0  0
   -0.1234   -7.1245   34.2120 C   0  0  0  0  0  0  0  0  0  0  0  0
   -1.1153   -7.7669   33.5184 C   0  0  0  0  0  0  0  0  0  0  0  0
   -1.0441   -7.6664   32.1521 C   0  0  0  0  0  0  0  0  0  0  0  0
   -1.9404   -8.3244   31.3557 O   0  0  0  0  0  0  0  0  0  0  0  0
   -0.1268   -6.9388   31.4974 N   0  0  0  0  0  0  0  0  0  0  0  0
   -0.7475   -0.1135   30.5279 C   0  0  0  0  0  0  0  0  0  0  0  0
   -0.8573    0.8258   29.5515 N   0  0  0  0  0  0  0  0  0  0  0  0
   -0.3498    2.2457   26.8981 N   0  0  0  0  0  0  0  0  0  0  0  0
    3.5534    4.0247   27.3049 N   0  0  0  0  0  0  0  0  0  0  0  0
    6.3920    4.2327   28.6781 H   0  0  0  0  0  0  0  0  0  0  0  0
    6.6189    3.3931   27.1209 H   0  0  0  0  0  0  0  0  0  0  0  0
    5.4702    2.7635   28.3148 H   0  0  0  0  0  0  0  0  0  0  0  0
    6.1373    6.1075   26.6611 H   0  0  0  0  0  0  0  0  0  0  0  0
    4.3083    7.4251   25.6059 H   0  0  0  0  0  0  0  0  0  0  0  0
    2.0075    6.5155   25.6031 H   0  0  0  0  0  0  0  0  0  0  0  0
    1.2055    3.2741   27.1641 H   0  0  0  0  0  0  0  0  0  0  0  0
   -1.0125    2.8968   24.9977 H   0  0  0  0  0  0  0  0  0  0  0  0
   -2.1465    4.6113   27.2026 H   0  0  0  0  0  0  0  0  0  0  0  0
   -2.9585    3.8219   25.8383 H   0  0  0  0  0  0  0  0  0  0  0  0
   -2.4239    2.8371   28.5454 H   0  0  0  0  0  0  0  0  0  0  0  0
   -3.5669    2.1795   27.3318 H   0  0  0  0  0  0  0  0  0  0  0  0
   -1.8620    0.9047   26.3183 H   0  0  0  0  0  0  0  0  0  0  0  0
   -1.9961   -1.2104   27.1107 H   0  0  0  0  0  0  0  0  0  0  0  0
   -1.7040   -2.8934   28.8650 H   0  0  0  0  0  0  0  0  0  0  0  0
   -0.3076   -4.5081   30.6947 H   0  0  0  0  0  0  0  0  0  0  0  0
    1.1554   -3.7986   32.9040 H   0  0  0  0  0  0  0  0  0  0  0  0
    2.1736   -3.2904   31.5474 H   0  0  0  0  0  0  0  0  0  0  0  0
    1.8798   -5.6437   30.5534 H   0  0  0  0  0  0  0  0  0  0  0  0
    2.7650   -5.5695   32.0850 H   0  0  0  0  0  0  0  0  0  0  0  0
   -0.0823   -7.1560   35.2972 H   0  0  0  0  0  0  0  0  0  0  0  0
   -1.8782   -8.3273   34.0345 H   0  0  0  0  0  0  0  0  0  0  0  0
   -2.5418   -8.8406   31.9268 H   0  0  0  0  0  0  0  0  0  0  0  0
   -0.4066    0.2629   31.4882 H   0  0  0  0  0  0  0  0  0  0  0  0
    0.3610    1.6750   26.4588 H   0  0  0  0  0  0  0  0  0  0  0  0
  1  2  1  0
  2  3  2  0
  3  4  1  0
  4  5  2  0
  5  6  1  0
  6  7  1  0
  7  8  1  0
  8  9  2  0
  8 10  1  0
 10 11  1  0
 11 12  1  0
 12 13  1  0
 13 14  1  0
 14 15  2  0
 15 16  1  0
 16 17  2  0
 17 18  1  0
 18 19  2  0
 18 20  2  0
 18 21  1  0
 21 22  1  0
 22 23  1  0
 23 24  1  0
 24 25  2  0
 25 26  1  0
 26 27  2  0
 27 28  1  0
 28 29  1  0
 28 30  2  0
 17 31  1  0
 31 32  2  0
 13 33  1  0
  6 34  2  0
 34  2  1  0
 33 10  1  0
 32 14  1  0
 30 24  1  0
  1 35  1  0
  1 36  1  0
  1 37  1  0
  3 38  1  0
  4 39  1  0
  5 40  1  0
  7 41  1  0
 10 42  1  0
 11 43  1  0
 11 44  1  0
 12 45  1  0
 12 46  1  0
 13 47  1  0
 15 48  1  0
 16 49  1  0
 21 50  1  0
 22 51  1  0
 22 52  1  0
 23 53  1  0
 23 54  1  0
 26 55  1  0
 27 56  1  0
 29 57  1  0
 31 58  1  0
 33 59  1  0
M  END
>  <Energy>  (107) 
-43.304982015601745

>  <compound_id>  (107) 
203

>  <target_id>  (107) 
1

>  <reference_id>  (107) 
190

>  <inspiration_ids>  (107) 
[53, 190]

>  <energy_score>  (107) 
-51.97341367427201

>  <distance_score>  (107) 
0.8648766312194013

>  <path>  (107) 
/opt/xchem-fragalysis-2/maxwin/BulkDock/SCRATCH/505733/C203-P190/C203-P190.minimised.mol

>  <scratch_subdir>  (107) 
/opt/xchem-fragalysis-2/maxwin/BulkDock/SCRATCH/505733/C203-P190

>  <fragmenstein_runtime>  (107) 
8.814774513244629

>  <fragmenstein_outcome>  (107) 
acceptable

>  <fragmenstein_mode>  (107) 
expansion

>  <fragmenstein_error>  (107) 


$$$$
C243-P53
     RDKit          3D

 62 65  0  0  0  0  0  0  0  0999 V2000
    5.7524    3.6368   27.6020 C   0  0  0  0  0  0  0  0  0  0  0  0
    4.5502    4.3427   27.0543 C   0  0  0  0  0  0  0  0  0  0  0  0
    4.6650    5.6272   26.5348 C   0  0  0  0  0  0  0  0  0  0  0  0
    3.5285    6.2439   26.0240 C   0  0  0  0  0  0  0  0  0  0  0  0
    2.3185    5.5593   26.0351 C   0  0  0  0  0  0  0  0  0  0  0  0
    2.2922    4.2789   26.5610 C   0  0  0  0  0  0  0  0  0  0  0  0
    1.1426    3.5262   26.5767 N   0  0  0  0  0  0  0  0  0  0  0  0
   -0.2734    3.8394   26.0292 C   0  0  0  0  0  0  0  0  0  0  0  0
   -0.7008    4.8150   25.5497 O   0  0  0  0  0  0  0  0  0  0  0  0
   -1.1247    2.5727   26.2860 C   0  0  0  0  0  0  0  0  0  0  0  0
   -2.1854    2.8138   27.3376 C   0  0  0  0  0  0  0  0  0  0  0  0
   -2.3745    1.4244   27.8987 C   0  0  0  0  0  0  0  0  0  0  0  0
   -0.9751    0.8301   27.9374 C   0  0  0  0  0  0  0  0  0  0  0  0
   -0.1413    1.1771   29.1943 C   0  0  0  0  0  0  0  0  0  0  0  0
   -0.1212    0.0886   30.2812 C   0  0  0  0  0  0  0  0  0  0  0  0
   -1.3081   -0.8572   30.1783 C   0  0  0  0  0  0  0  0  0  0  0  0
   -1.2892   -2.1218   31.4759 S   0  0  0  0  0  0  0  0  0  0  0  0
   -1.2959   -1.4293   32.7483 O   0  0  0  0  0  0  0  0  0  0  0  0
   -2.2989   -3.1255   31.2167 O   0  0  0  0  0  0  0  0  0  0  0  0
    0.2046   -2.8783   31.3980 N   0  0  0  0  0  0  0  0  0  0  0  0
    0.4880   -3.8358   30.3021 C   0  0  0  0  0  0  0  0  0  0  0  0
    1.3928   -4.9771   30.7648 C   0  0  0  0  0  0  0  0  0  0  0  0
    0.6118   -5.9355   31.6157 C   0  0  0  0  0  0  0  0  0  0  0  0
    0.3952   -5.5725   32.8952 N   0  0  0  0  0  0  0  0  0  0  0  0
   -0.4441   -6.3471   33.6067 C   0  0  0  0  0  0  0  0  0  0  0  0
   -1.0557   -7.4569   33.0873 C   0  0  0  0  0  0  0  0  0  0  0  0
   -0.7258   -7.7456   31.7925 C   0  0  0  0  0  0  0  0  0  0  0  0
   -1.2306   -8.8478   31.1814 O   0  0  0  0  0  0  0  0  0  0  0  0
    0.0981   -7.0290   31.0230 N   0  0  0  0  0  0  0  0  0  0  0  0
   -1.4639   -1.4281   28.7667 C   0  0  0  0  0  0  0  0  0  0  0  0
   -0.9150   -0.5879   27.6918 N   0  0  0  0  0  0  0  0  0  0  0  0
   -0.2998    1.4452   26.8122 N   0  0  0  0  0  0  0  0  0  0  0  0
    3.3787    3.6694   27.0788 N   0  0  0  0  0  0  0  0  0  0  0  0
    6.5011    3.5012   26.8152 H   0  0  0  0  0  0  0  0  0  0  0  0
    6.1913    4.2154   28.4207 H   0  0  0  0  0  0  0  0  0  0  0  0
    5.4829    2.6491   27.9898 H   0  0  0  0  0  0  0  0  0  0  0  0
    5.6188    6.1442   26.5296 H   0  0  0  0  0  0  0  0  0  0  0  0
    3.5813    7.2493   25.6165 H   0  0  0  0  0  0  0  0  0  0  0  0
    1.4276    6.0294   25.6345 H   0  0  0  0  0  0  0  0  0  0  0  0
    1.1463    2.6015   27.0002 H   0  0  0  0  0  0  0  0  0  0  0  0
   -1.5755    2.2663   25.3347 H   0  0  0  0  0  0  0  0  0  0  0  0
   -3.1117    3.2065   26.9091 H   0  0  0  0  0  0  0  0  0  0  0  0
   -1.8440    3.5101   28.1115 H   0  0  0  0  0  0  0  0  0  0  0  0
   -2.8314    1.4444   28.8828 H   0  0  0  0  0  0  0  0  0  0  0  0
   -3.0213    0.8603   27.2159 H   0  0  0  0  0  0  0  0  0  0  0  0
   -0.4798    2.1240   29.6278 H   0  0  0  0  0  0  0  0  0  0  0  0
    0.9114    1.3534   28.9284 H   0  0  0  0  0  0  0  0  0  0  0  0
   -0.0778    0.5614   31.2694 H   0  0  0  0  0  0  0  0  0  0  0  0
    0.8104   -0.4833   30.1813 H   0  0  0  0  0  0  0  0  0  0  0  0
   -2.2126   -0.2762   30.4058 H   0  0  0  0  0  0  0  0  0  0  0  0
    0.4372   -3.2286   32.3368 H   0  0  0  0  0  0  0  0  0  0  0  0
    1.0008   -3.2778   29.5107 H   0  0  0  0  0  0  0  0  0  0  0  0
   -0.4354   -4.2432   29.8819 H   0  0  0  0  0  0  0  0  0  0  0  0
    2.2516   -4.5965   31.3297 H   0  0  0  0  0  0  0  0  0  0  0  0
    1.7863   -5.5116   29.8924 H   0  0  0  0  0  0  0  0  0  0  0  0
   -0.6238   -6.0273   34.6293 H   0  0  0  0  0  0  0  0  0  0  0  0
   -1.7306   -8.0689   33.6630 H   0  0  0  0  0  0  0  0  0  0  0  0
   -0.5602   -8.9899   30.4853 H   0  0  0  0  0  0  0  0  0  0  0  0
   -0.9967   -2.4081   28.6701 H   0  0  0  0  0  0  0  0  0  0  0  0
   -2.5273   -1.5898   28.5686 H   0  0  0  0  0  0  0  0  0  0  0  0
   -1.3576   -0.8542   26.8075 H   0  0  0  0  0  0  0  0  0  0  0  0
   -0.2310    0.7117   26.1191 H   0  0  0  0  0  0  0  0  0  0  0  0
  1  2  1  0
  2  3  2  0
  3  4  1  0
  4  5  2  0
  5  6  1  0
  6  7  1  0
  7  8  1  0
  8  9  2  0
  8 10  1  0
 10 11  1  0
 11 12  1  0
 12 13  1  0
 13 14  1  0
 14 15  1  0
 15 16  1  0
 16 17  1  0
 17 18  2  0
 17 19  2  0
 17 20  1  0
 20 21  1  0
 21 22  1  0
 22 23  1  0
 23 24  2  0
 24 25  1  0
 25 26  2  0
 26 27  1  0
 27 28  1  0
 27 29  2  0
 16 30  1  0
 30 31  1  0
 13 32  1  0
  6 33  2  0
 33  2  1  0
 32 10  1  0
 31 13  1  0
 29 23  1  0
  1 34  1  0
  1 35  1  0
  1 36  1  0
  3 37  1  0
  4 38  1  0
  5 39  1  0
  7 40  1  0
 10 41  1  0
 11 42  1  0
 11 43  1  0
 12 44  1  0
 12 45  1  0
 14 46  1  0
 14 47  1  0
 15 48  1  0
 15 49  1  0
 16 50  1  0
 20 51  1  0
 21 52  1  0
 21 53  1  0
 22 54  1  0
 22 55  1  0
 25 56  1  0
 26 57  1  0
 28 58  1  0
 30 59  1  0
 30 60  1  0
 31 61  1  0
 32 62  1  0
M  END
>  <Energy>  (108) 
-134.98925836724104

>  <compound_id>  (108) 
243

>  <target_id>  (108) 
1

>  <reference_id>  (108) 
53

>  <inspiration_ids>  (108) 
[53, 194]

>  <energy_score>  (108) 
-91.87479200907075

>  <distance_score>  (108) 
0.9581185135509217

>  <path>  (108) 
/opt/xchem-fragalysis-2/maxwin/BulkDock/SCRATCH/505733/C243-P53/C243-P53.minimised.mol

>  <scratch_subdir>  (108) 
/opt/xchem-fragalysis-2/maxwin/BulkDock/SCRATCH/505733/C243-P53

>  <fragmenstein_runtime>  (108) 
6.299905061721802

>  <fragmenstein_outcome>  (108) 
acceptable

>  <fragmenstein_mode>  (108) 
expansion

>  <fragmenstein_error>  (108) 


$$$$
C243-P194
     RDKit          3D

 62 65  0  0  0  0  0  0  0  0999 V2000
    6.0175    3.6240   27.0954 C   0  0  0  0  0  0  0  0  0  0  0  0
    4.8103    4.4384   26.7467 C   0  0  0  0  0  0  0  0  0  0  0  0
    4.8832    5.8268   26.7245 C   0  0  0  0  0  0  0  0  0  0  0  0
    3.7200    6.5557   26.5013 C   0  0  0  0  0  0  0  0  0  0  0  0
    2.5199    5.8811   26.3285 C   0  0  0  0  0  0  0  0  0  0  0  0
    2.5472    4.4984   26.3267 C   0  0  0  0  0  0  0  0  0  0  0  0
    1.3916    3.7662   26.2635 N   0  0  0  0  0  0  0  0  0  0  0  0
   -0.0747    4.1675   26.5796 C   0  0  0  0  0  0  0  0  0  0  0  0
   -0.5303    5.2038   26.8674 O   0  0  0  0  0  0  0  0  0  0  0  0
   -0.8920    2.8544   26.5526 C   0  0  0  0  0  0  0  0  0  0  0  0
   -2.0990    2.9307   27.4628 C   0  0  0  0  0  0  0  0  0  0  0  0
   -2.2509    1.5039   27.9290 C   0  0  0  0  0  0  0  0  0  0  0  0
   -0.8340    0.9765   28.0703 C   0  0  0  0  0  0  0  0  0  0  0  0
   -0.1529    1.2753   29.4348 C   0  0  0  0  0  0  0  0  0  0  0  0
   -0.2496    0.1598   30.4868 C   0  0  0  0  0  0  0  0  0  0  0  0
   -1.3718   -0.8316   30.2144 C   0  0  0  0  0  0  0  0  0  0  0  0
   -1.3933   -2.1612   31.4498 S   0  0  0  0  0  0  0  0  0  0  0  0
   -1.4522   -1.5291   32.7523 O   0  0  0  0  0  0  0  0  0  0  0  0
   -2.3803   -3.1612   31.1052 O   0  0  0  0  0  0  0  0  0  0  0  0
    0.1146   -2.8931   31.4002 N   0  0  0  0  0  0  0  0  0  0  0  0
    0.4364   -3.8384   30.3046 C   0  0  0  0  0  0  0  0  0  0  0  0
    1.3345   -4.9753   30.7879 C   0  0  0  0  0  0  0  0  0  0  0  0
    0.5396   -5.9352   31.6234 C   0  0  0  0  0  0  0  0  0  0  0  0
    0.3269   -5.5972   32.9105 N   0  0  0  0  0  0  0  0  0  0  0  0
   -0.5145   -6.3841   33.6082 C   0  0  0  0  0  0  0  0  0  0  0  0
   -1.1233   -7.4879   33.0715 C   0  0  0  0  0  0  0  0  0  0  0  0
   -0.8040   -7.7431   31.7672 C   0  0  0  0  0  0  0  0  0  0  0  0
   -1.2881   -8.8435   31.1391 O   0  0  0  0  0  0  0  0  0  0  0  0
    0.0208   -7.0140   31.0126 N   0  0  0  0  0  0  0  0  0  0  0  0
   -1.3756   -1.3250   28.7645 C   0  0  0  0  0  0  0  0  0  0  0  0
   -0.6944   -0.4316   27.8137 N   0  0  0  0  0  0  0  0  0  0  0  0
   -0.0939    1.6815   27.0252 N   0  0  0  0  0  0  0  0  0  0  0  0
    3.6642    3.7672   26.5039 N   0  0  0  0  0  0  0  0  0  0  0  0
    6.8043    3.7778   26.3509 H   0  0  0  0  0  0  0  0  0  0  0  0
    6.3960    3.9115   28.0814 H   0  0  0  0  0  0  0  0  0  0  0  0
    5.7756    2.5570   27.1262 H   0  0  0  0  0  0  0  0  0  0  0  0
    5.8223    6.3388   26.9092 H   0  0  0  0  0  0  0  0  0  0  0  0
    3.7412    7.6418   26.5008 H   0  0  0  0  0  0  0  0  0  0  0  0
    1.5951    6.4330   26.2009 H   0  0  0  0  0  0  0  0  0  0  0  0
    1.4474    2.7648   26.1325 H   0  0  0  0  0  0  0  0  0  0  0  0
   -1.2026    2.6764   25.5172 H   0  0  0  0  0  0  0  0  0  0  0  0
   -2.9918    3.2831   26.9371 H   0  0  0  0  0  0  0  0  0  0  0  0
   -1.9267    3.5925   28.3197 H   0  0  0  0  0  0  0  0  0  0  0  0
   -2.7713    1.4595   28.8799 H   0  0  0  0  0  0  0  0  0  0  0  0
   -2.8130    0.9460   27.1716 H   0  0  0  0  0  0  0  0  0  0  0  0
   -0.5268    2.2159   29.8447 H   0  0  0  0  0  0  0  0  0  0  0  0
    0.9269    1.4468   29.3116 H   0  0  0  0  0  0  0  0  0  0  0  0
   -0.3575    0.6092   31.4812 H   0  0  0  0  0  0  0  0  0  0  0  0
    0.7086   -0.3759   30.5068 H   0  0  0  0  0  0  0  0  0  0  0  0
   -2.3199   -0.3060   30.3923 H   0  0  0  0  0  0  0  0  0  0  0  0
    0.3282   -3.2466   32.3423 H   0  0  0  0  0  0  0  0  0  0  0  0
    0.9724   -3.2714   29.5355 H   0  0  0  0  0  0  0  0  0  0  0  0
   -0.4710   -4.2475   29.8499 H   0  0  0  0  0  0  0  0  0  0  0  0
    2.1802   -4.5910   31.3698 H   0  0  0  0  0  0  0  0  0  0  0  0
    1.7478   -5.5089   29.9241 H   0  0  0  0  0  0  0  0  0  0  0  0
   -0.6948   -6.0823   34.6362 H   0  0  0  0  0  0  0  0  0  0  0  0
   -1.7854   -8.1212   33.6401 H   0  0  0  0  0  0  0  0  0  0  0  0
   -0.5985   -8.9823   30.4601 H   0  0  0  0  0  0  0  0  0  0  0  0
   -0.9112   -2.3060   28.6667 H   0  0  0  0  0  0  0  0  0  0  0  0
   -2.4131   -1.4667   28.4421 H   0  0  0  0  0  0  0  0  0  0  0  0
   -0.9954   -0.6548   26.8601 H   0  0  0  0  0  0  0  0  0  0  0  0
    0.7537    2.0098   27.4854 H   0  0  0  0  0  0  0  0  0  0  0  0
  1  2  1  0
  2  3  2  0
  3  4  1  0
  4  5  2  0
  5  6  1  0
  6  7  1  0
  7  8  1  0
  8  9  2  0
  8 10  1  0
 10 11  1  0
 11 12  1  0
 12 13  1  0
 13 14  1  0
 14 15  1  0
 15 16  1  0
 16 17  1  0
 17 18  2  0
 17 19  2  0
 17 20  1  0
 20 21  1  0
 21 22  1  0
 22 23  1  0
 23 24  2  0
 24 25  1  0
 25 26  2  0
 26 27  1  0
 27 28  1  0
 27 29  2  0
 16 30  1  0
 30 31  1  0
 13 32  1  0
  6 33  2  0
 33  2  1  0
 32 10  1  0
 31 13  1  0
 29 23  1  0
  1 34  1  0
  1 35  1  0
  1 36  1  0
  3 37  1  0
  4 38  1  0
  5 39  1  0
  7 40  1  0
 10 41  1  0
 11 42  1  0
 11 43  1  0
 12 44  1  0
 12 45  1  0
 14 46  1  0
 14 47  1  0
 15 48  1  0
 15 49  1  0
 16 50  1  0
 20 51  1  0
 21 52  1  0
 21 53  1  0
 22 54  1  0
 22 55  1  0
 25 56  1  0
 26 57  1  0
 28 58  1  0
 30 59  1  0
 30 60  1  0
 31 61  1  0
 32 62  1  0
M  END
>  <Energy>  (109) 
-127.37346056006709

>  <compound_id>  (109) 
243

>  <target_id>  (109) 
1

>  <reference_id>  (109) 
194

>  <inspiration_ids>  (109) 
[53, 194]

>  <energy_score>  (109) 
-84.25899420189731

>  <distance_score>  (109) 
1.030938743716106

>  <path>  (109) 
/opt/xchem-fragalysis-2/maxwin/BulkDock/SCRATCH/505733/C243-P194/C243-P194.minimised.mol

>  <scratch_subdir>  (109) 
/opt/xchem-fragalysis-2/maxwin/BulkDock/SCRATCH/505733/C243-P194

>  <fragmenstein_runtime>  (109) 
4.788517475128174

>  <fragmenstein_outcome>  (109) 
too moved

>  <fragmenstein_mode>  (109) 
expansion

>  <fragmenstein_error>  (109) 


$$$$
C310-P53
     RDKit          3D

 70 73  0  0  0  0  0  0  0  0999 V2000
    5.9531    3.4566   28.3229 C   0  0  0  0  0  0  0  0  0  0  0  0
    4.8031    4.2931   27.8519 C   0  0  0  0  0  0  0  0  0  0  0  0
    4.9887    5.6428   27.5744 C   0  0  0  0  0  0  0  0  0  0  0  0
    3.9043    6.3833   27.1218 C   0  0  0  0  0  0  0  0  0  0  0  0
    2.6758    5.7546   26.9495 C   0  0  0  0  0  0  0  0  0  0  0  0
    2.5718    4.4029   27.2426 C   0  0  0  0  0  0  0  0  0  0  0  0
    1.4100    3.6989   27.0096 N   0  0  0  0  0  0  0  0  0  0  0  0
    0.1631    4.1039   26.4233 C   0  0  0  0  0  0  0  0  0  0  0  0
   -0.2165    5.1813   26.0570 O   0  0  0  0  0  0  0  0  0  0  0  0
   -0.7266    2.8425   26.1785 C   0  0  0  0  0  0  0  0  0  0  0  0
   -2.1002    3.2077   25.5950 C   0  0  0  0  0  0  0  0  0  0  0  0
   -3.0837    2.8258   26.6766 C   0  0  0  0  0  0  0  0  0  0  0  0
   -2.4181    1.6410   27.3143 C   0  0  0  0  0  0  0  0  0  0  0  0
   -1.0112    2.0501   27.4034 N   0  0  0  0  0  0  0  0  0  0  0  0
   -0.2045    0.8527   27.5864 C   0  0  0  0  0  0  0  0  0  0  0  0
    1.0164    1.2357   28.2860 N   0  0  0  0  0  0  0  0  0  0  0  0
    0.7058    1.5670   29.7070 C   0  0  0  0  0  0  0  0  0  0  0  0
    1.4530    0.7324   30.7608 C   0  0  0  0  0  0  0  0  0  0  0  0
    1.3394   -0.7275   30.4793 N   0  0  0  0  0  0  0  0  0  0  0  0
    0.0488   -1.5289   31.1949 S   0  0  0  0  0  0  0  0  0  0  0  0
   -1.0686   -1.6048   30.2880 O   0  0  0  0  0  0  0  0  0  0  0  0
   -0.1162   -1.0397   32.5430 O   0  0  0  0  0  0  0  0  0  0  0  0
    0.7207   -3.0504   31.3529 N   0  0  0  0  0  0  0  0  0  0  0  0
    0.5665   -4.0144   30.2432 C   0  0  0  0  0  0  0  0  0  0  0  0
    1.3260   -5.2978   30.5629 C   0  0  0  0  0  0  0  0  0  0  0  0
    0.5553   -6.1072   31.5620 C   0  0  0  0  0  0  0  0  0  0  0  0
    0.7206   -5.7997   32.8638 N   0  0  0  0  0  0  0  0  0  0  0  0
   -0.0507   -6.4529   33.7528 C   0  0  0  0  0  0  0  0  0  0  0  0
    0.1146   -6.1075   35.2016 C   0  0  0  0  0  0  0  0  0  0  0  0
   -0.9738   -7.3961   33.3614 C   0  0  0  0  0  0  0  0  0  0  0  0
   -1.0564   -7.6329   32.0120 C   0  0  0  0  0  0  0  0  0  0  0  0
   -1.9519   -8.5206   31.4962 O   0  0  0  0  0  0  0  0  0  0  0  0
   -0.3248   -7.0028   31.0908 N   0  0  0  0  0  0  0  0  0  0  0  0
    1.6791   -1.0731   29.0687 C   0  0  0  0  0  0  0  0  0  0  0  0
    2.0236    0.1609   28.2167 C   0  0  0  0  0  0  0  0  0  0  0  0
    3.6117    3.6708   27.6972 N   0  0  0  0  0  0  0  0  0  0  0  0
    6.3700    3.8703   29.2464 H   0  0  0  0  0  0  0  0  0  0  0  0
    5.6315    2.4298   28.5255 H   0  0  0  0  0  0  0  0  0  0  0  0
    6.7348    3.4243   27.5575 H   0  0  0  0  0  0  0  0  0  0  0  0
    5.9570    6.1131   27.7085 H   0  0  0  0  0  0  0  0  0  0  0  0
    4.0104    7.4407   26.8983 H   0  0  0  0  0  0  0  0  0  0  0  0
    1.8284    6.3249   26.5860 H   0  0  0  0  0  0  0  0  0  0  0  0
    1.3499    2.7166   27.2722 H   0  0  0  0  0  0  0  0  0  0  0  0
   -0.1943    2.2546   25.4240 H   0  0  0  0  0  0  0  0  0  0  0  0
   -2.2824    2.5922   24.7070 H   0  0  0  0  0  0  0  0  0  0  0  0
   -2.2293    4.2512   25.2973 H   0  0  0  0  0  0  0  0  0  0  0  0
   -4.0767    2.5945   26.2820 H   0  0  0  0  0  0  0  0  0  0  0  0
   -3.1674    3.6282   27.4136 H   0  0  0  0  0  0  0  0  0  0  0  0
   -2.5537    0.7522   26.6836 H   0  0  0  0  0  0  0  0  0  0  0  0
   -2.8120    1.4392   28.3109 H   0  0  0  0  0  0  0  0  0  0  0  0
    0.0135    0.3914   26.6213 H   0  0  0  0  0  0  0  0  0  0  0  0
   -0.7435    0.0911   28.1653 H   0  0  0  0  0  0  0  0  0  0  0  0
   -0.3660    1.4694   29.9179 H   0  0  0  0  0  0  0  0  0  0  0  0
    0.9496    2.6241   29.8652 H   0  0  0  0  0  0  0  0  0  0  0  0
    1.0835    0.9773   31.7616 H   0  0  0  0  0  0  0  0  0  0  0  0
    2.5185    0.9947   30.7740 H   0  0  0  0  0  0  0  0  0  0  0  0
    0.4510   -3.4353   32.2640 H   0  0  0  0  0  0  0  0  0  0  0  0
    0.9894   -3.6027   29.3267 H   0  0  0  0  0  0  0  0  0  0  0  0
   -0.4952   -4.2192   30.0759 H   0  0  0  0  0  0  0  0  0  0  0  0
    1.4613   -5.8912   29.6533 H   0  0  0  0  0  0  0  0  0  0  0  0
    2.3261   -5.0788   30.9550 H   0  0  0  0  0  0  0  0  0  0  0  0
    0.4053   -6.9958   35.7712 H   0  0  0  0  0  0  0  0  0  0  0  0
    0.8911   -5.3474   35.3349 H   0  0  0  0  0  0  0  0  0  0  0  0
   -0.8225   -5.7125   35.6061 H   0  0  0  0  0  0  0  0  0  0  0  0
   -1.5893   -7.9101   34.0835 H   0  0  0  0  0  0  0  0  0  0  0  0
   -2.4587   -8.9235   32.2240 H   0  0  0  0  0  0  0  0  0  0  0  0
    2.5385   -1.7523   29.0821 H   0  0  0  0  0  0  0  0  0  0  0  0
    0.8491   -1.5947   28.5832 H   0  0  0  0  0  0  0  0  0  0  0  0
    2.1858   -0.1428   27.1751 H   0  0  0  0  0  0  0  0  0  0  0  0
    2.9885    0.5716   28.5421 H   0  0  0  0  0  0  0  0  0  0  0  0
  1  2  1  0
  2  3  2  0
  3  4  1  0
  4  5  2  0
  5  6  1  0
  6  7  1  0
  7  8  1  0
  8  9  2  0
  8 10  1  0
 10 11  1  0
 11 12  1  0
 12 13  1  0
 13 14  1  0
 14 15  1  0
 15 16  1  0
 16 17  1  0
 17 18  1  0
 18 19  1  0
 19 20  1  0
 20 21  2  0
 20 22  2  0
 20 23  1  0
 23 24  1  0
 24 25  1  0
 25 26  1  0
 26 27  2  0
 27 28  1  0
 28 29  1  0
 28 30  2  0
 30 31  1  0
 31 32  1  0
 31 33  2  0
 19 34  1  0
 34 35  1  0
  6 36  2  0
 36  2  1  0
 14 10  1  0
 35 16  1  0
 33 26  1  0
  1 37  1  0
  1 38  1  0
  1 39  1  0
  3 40  1  0
  4 41  1  0
  5 42  1  0
  7 43  1  0
 10 44  1  0
 11 45  1  0
 11 46  1  0
 12 47  1  0
 12 48  1  0
 13 49  1  0
 13 50  1  0
 15 51  1  0
 15 52  1  0
 17 53  1  0
 17 54  1  0
 18 55  1  0
 18 56  1  0
 23 57  1  0
 24 58  1  0
 24 59  1  0
 25 60  1  0
 25 61  1  0
 29 62  1  0
 29 63  1  0
 29 64  1  0
 30 65  1  0
 32 66  1  0
 34 67  1  0
 34 68  1  0
 35 69  1  0
 35 70  1  0
M  END
>  <Energy>  (110) 
-188.87291062918842

>  <compound_id>  (110) 
310

>  <target_id>  (110) 
1

>  <reference_id>  (110) 
53

>  <inspiration_ids>  (110) 
[53, 195]

>  <energy_score>  (110) 
-87.0921888172836

>  <distance_score>  (110) 
1.2802625402070367

>  <path>  (110) 
/opt/xchem-fragalysis-2/maxwin/BulkDock/SCRATCH/505733/C310-P53/C310-P53.minimised.mol

>  <scratch_subdir>  (110) 
/opt/xchem-fragalysis-2/maxwin/BulkDock/SCRATCH/505733/C310-P53

>  <fragmenstein_runtime>  (110) 
13.131393909454346

>  <fragmenstein_outcome>  (110) 
too moved

>  <fragmenstein_mode>  (110) 
expansion

>  <fragmenstein_error>  (110) 


$$$$
C310-P195
     RDKit          3D

 70 73  0  0  0  0  0  0  0  0999 V2000
    5.8858    3.5836   28.0080 C   0  0  0  0  0  0  0  0  0  0  0  0
    4.7634    4.4007   27.4494 C   0  0  0  0  0  0  0  0  0  0  0  0
    5.0250    5.6169   26.8258 C   0  0  0  0  0  0  0  0  0  0  0  0
    3.9666    6.3259   26.2731 C   0  0  0  0  0  0  0  0  0  0  0  0
    2.6897    5.7872   26.3357 C   0  0  0  0  0  0  0  0  0  0  0  0
    2.5167    4.5662   26.9693 C   0  0  0  0  0  0  0  0  0  0  0  0
    1.3117    3.9149   26.9058 N   0  0  0  0  0  0  0  0  0  0  0  0
    0.0516    4.2161   26.0661 C   0  0  0  0  0  0  0  0  0  0  0  0
   -0.1876    5.1112   25.3531 O   0  0  0  0  0  0  0  0  0  0  0  0
   -0.9346    3.0403   26.1897 C   0  0  0  0  0  0  0  0  0  0  0  0
   -2.3528    3.5815   26.2174 C   0  0  0  0  0  0  0  0  0  0  0  0
   -3.1587    2.3487   26.4999 C   0  0  0  0  0  0  0  0  0  0  0  0
   -2.2720    1.5837   27.4576 C   0  0  0  0  0  0  0  0  0  0  0  0
   -0.9220    2.1911   27.3957 N   0  0  0  0  0  0  0  0  0  0  0  0
    0.0798    1.1456   27.5054 C   0  0  0  0  0  0  0  0  0  0  0  0
    0.8253    1.3197   28.7506 N   0  0  0  0  0  0  0  0  0  0  0  0
   -0.0559    1.3998   29.9325 C   0  0  0  0  0  0  0  0  0  0  0  0
    0.4569    0.6888   31.1895 C   0  0  0  0  0  0  0  0  0  0  0  0
    0.6229   -0.7626   30.9151 N   0  0  0  0  0  0  0  0  0  0  0  0
   -0.6107   -1.7670   31.4541 S   0  0  0  0  0  0  0  0  0  0  0  0
   -1.6750   -1.8693   30.4891 O   0  0  0  0  0  0  0  0  0  0  0  0
   -0.8887   -1.4380   32.8313 O   0  0  0  0  0  0  0  0  0  0  0  0
    0.2324   -3.1991   31.4756 N   0  0  0  0  0  0  0  0  0  0  0  0
    0.1920   -4.0646   30.2788 C   0  0  0  0  0  0  0  0  0  0  0  0
    1.0975   -5.2699   30.4990 C   0  0  0  0  0  0  0  0  0  0  0  0
    0.4426   -6.1734   31.4989 C   0  0  0  0  0  0  0  0  0  0  0  0
    0.6520   -5.9096   32.8045 N   0  0  0  0  0  0  0  0  0  0  0  0
   -0.0868   -6.5972   33.6960 C   0  0  0  0  0  0  0  0  0  0  0  0
    0.1259   -6.2996   35.1490 C   0  0  0  0  0  0  0  0  0  0  0  0
   -1.0241   -7.5262   33.3040 C   0  0  0  0  0  0  0  0  0  0  0  0
   -1.1472   -7.7169   31.9518 C   0  0  0  0  0  0  0  0  0  0  0  0
   -2.0513   -8.5788   31.4232 O   0  0  0  0  0  0  0  0  0  0  0  0
   -0.4435   -7.0586   31.0302 N   0  0  0  0  0  0  0  0  0  0  0  0
    1.2055   -1.0316   29.5664 C   0  0  0  0  0  0  0  0  0  0  0  0
    1.8065    0.2293   28.9167 C   0  0  0  0  0  0  0  0  0  0  0  0
    3.5213    3.8788   27.5445 N   0  0  0  0  0  0  0  0  0  0  0  0
    6.4457    4.1633   28.7484 H   0  0  0  0  0  0  0  0  0  0  0  0
    5.5063    2.6820   28.4998 H   0  0  0  0  0  0  0  0  0  0  0  0
    6.5635    3.2747   27.2059 H   0  0  0  0  0  0  0  0  0  0  0  0
    6.0356    6.0082   26.7702 H   0  0  0  0  0  0  0  0  0  0  0  0
    4.1343    7.2802   25.7830 H   0  0  0  0  0  0  0  0  0  0  0  0
    1.8596    6.3158   25.8811 H   0  0  0  0  0  0  0  0  0  0  0  0
    1.1499    3.0932   27.4752 H   0  0  0  0  0  0  0  0  0  0  0  0
   -0.8016    2.4441   25.2854 H   0  0  0  0  0  0  0  0  0  0  0  0
   -2.6525    4.0666   25.2835 H   0  0  0  0  0  0  0  0  0  0  0  0
   -2.4446    4.2959   27.0395 H   0  0  0  0  0  0  0  0  0  0  0  0
   -3.2765    1.7736   25.5804 H   0  0  0  0  0  0  0  0  0  0  0  0
   -4.1544    2.5606   26.8875 H   0  0  0  0  0  0  0  0  0  0  0  0
   -2.3054    0.5207   27.1933 H   0  0  0  0  0  0  0  0  0  0  0  0
   -2.6273    1.6920   28.4804 H   0  0  0  0  0  0  0  0  0  0  0  0
    0.8080    1.2526   26.7060 H   0  0  0  0  0  0  0  0  0  0  0  0
   -0.3270    0.1319   27.4185 H   0  0  0  0  0  0  0  0  0  0  0  0
   -1.0354    0.9580   29.7278 H   0  0  0  0  0  0  0  0  0  0  0  0
   -0.1740    2.4631   30.1580 H   0  0  0  0  0  0  0  0  0  0  0  0
   -0.2369    0.8624   32.0185 H   0  0  0  0  0  0  0  0  0  0  0  0
    1.4208    1.0998   31.5128 H   0  0  0  0  0  0  0  0  0  0  0  0
    0.0432   -3.6917   32.3546 H   0  0  0  0  0  0  0  0  0  0  0  0
    0.5478   -3.5328   29.3971 H   0  0  0  0  0  0  0  0  0  0  0  0
   -0.8380   -4.3785   30.0923 H   0  0  0  0  0  0  0  0  0  0  0  0
    1.2445   -5.8140   29.5609 H   0  0  0  0  0  0  0  0  0  0  0  0
    2.0869   -4.9656   30.8598 H   0  0  0  0  0  0  0  0  0  0  0  0
   -0.7945   -5.9069   35.5927 H   0  0  0  0  0  0  0  0  0  0  0  0
    0.4221   -7.2089   35.6816 H   0  0  0  0  0  0  0  0  0  0  0  0
    0.9156   -5.5534   35.2828 H   0  0  0  0  0  0  0  0  0  0  0  0
   -1.6152   -8.0677   34.0268 H   0  0  0  0  0  0  0  0  0  0  0  0
   -2.6024   -8.9742   32.1251 H   0  0  0  0  0  0  0  0  0  0  0  0
    2.0037   -1.7729   29.6800 H   0  0  0  0  0  0  0  0  0  0  0  0
    0.4406   -1.4366   28.8966 H   0  0  0  0  0  0  0  0  0  0  0  0
    2.2720   -0.0306   27.9575 H   0  0  0  0  0  0  0  0  0  0  0  0
    2.6274    0.6016   29.5433 H   0  0  0  0  0  0  0  0  0  0  0  0
  1  2  1  0
  2  3  2  0
  3  4  1  0
  4  5  2  0
  5  6  1  0
  6  7  1  0
  7  8  1  0
  8  9  2  0
  8 10  1  0
 10 11  1  0
 11 12  1  0
 12 13  1  0
 13 14  1  0
 14 15  1  0
 15 16  1  0
 16 17  1  0
 17 18  1  0
 18 19  1  0
 19 20  1  0
 20 21  2  0
 20 22  2  0
 20 23  1  0
 23 24  1  0
 24 25  1  0
 25 26  1  0
 26 27  2  0
 27 28  1  0
 28 29  1  0
 28 30  2  0
 30 31  1  0
 31 32  1  0
 31 33  2  0
 19 34  1  0
 34 35  1  0
  6 36  2  0
 36  2  1  0
 14 10  1  0
 35 16  1  0
 33 26  1  0
  1 37  1  0
  1 38  1  0
  1 39  1  0
  3 40  1  0
  4 41  1  0
  5 42  1  0
  7 43  1  0
 10 44  1  0
 11 45  1  0
 11 46  1  0
 12 47  1  0
 12 48  1  0
 13 49  1  0
 13 50  1  0
 15 51  1  0
 15 52  1  0
 17 53  1  0
 17 54  1  0
 18 55  1  0
 18 56  1  0
 23 57  1  0
 24 58  1  0
 24 59  1  0
 25 60  1  0
 25 61  1  0
 29 62  1  0
 29 63  1  0
 29 64  1  0
 30 65  1  0
 32 66  1  0
 34 67  1  0
 34 68  1  0
 35 69  1  0
 35 70  1  0
M  END
>  <Energy>  (111) 
-164.30586999969006

>  <compound_id>  (111) 
310

>  <target_id>  (111) 
1

>  <reference_id>  (111) 
195

>  <inspiration_ids>  (111) 
[53, 195]

>  <energy_score>  (111) 
-118.62071054563722

>  <distance_score>  (111) 
1.051938298799102

>  <path>  (111) 
/opt/xchem-fragalysis-2/maxwin/BulkDock/SCRATCH/505733/C310-P195/C310-P195.minimised.mol

>  <scratch_subdir>  (111) 
/opt/xchem-fragalysis-2/maxwin/BulkDock/SCRATCH/505733/C310-P195

>  <fragmenstein_runtime>  (111) 
8.274334192276001

>  <fragmenstein_outcome>  (111) 
too moved

>  <fragmenstein_mode>  (111) 
expansion

>  <fragmenstein_error>  (111) 


$$$$
C442-P53
     RDKit          3D

 31 33  0  0  0  0  0  0  0  0999 V2000
   -0.7517   -6.6192   34.7624 C   0  0  0  0  0  0  0  0  0  0  0  0
   -0.5184   -5.9742   33.4160 C   0  0  0  0  0  0  0  0  0  0  0  0
   -0.3714   -4.6820   33.3910 N   0  0  0  0  0  0  0  0  0  0  0  0
   -0.0865   -4.1062   32.1531 C   0  0  0  0  0  0  0  0  0  0  0  0
    0.2671   -2.5262   32.1652 C   0  0  0  0  0  0  0  0  0  0  0  0
    0.9989   -2.0898   33.2854 C   0  0  0  0  0  0  0  0  0  0  0  0
    1.3911   -0.7612   33.4236 C   0  0  0  0  0  0  0  0  0  0  0  0
    1.0751    0.1555   32.4319 C   0  0  0  0  0  0  0  0  0  0  0  0
    0.3672   -0.2581   31.3054 C   0  0  0  0  0  0  0  0  0  0  0  0
   -0.0614   -1.5904   31.1597 C   0  0  0  0  0  0  0  0  0  0  0  0
   -0.8228   -1.9402   29.8054 C   0  0  0  0  0  0  0  0  0  0  0  0
   -1.6385   -0.8924   29.0803 C   0  0  0  0  0  0  0  0  0  0  0  0
   -0.7138   -3.1657   29.1873 N   0  0  0  0  0  0  0  0  0  0  0  0
    0.5244   -4.1900   29.5643 S   0  0  0  0  0  0  0  0  0  0  0  0
    0.0719   -4.8774   31.0027 N   0  0  0  0  0  0  0  0  0  0  0  0
   -0.1335   -6.2406   31.0803 C   0  0  0  0  0  0  0  0  0  0  0  0
   -0.4469   -6.8777   32.2156 C   0  0  0  0  0  0  0  0  0  0  0  0
   -0.6690   -8.2363   32.2556 O   0  0  0  0  0  0  0  0  0  0  0  0
   -0.8834   -5.8572   35.5363 H   0  0  0  0  0  0  0  0  0  0  0  0
    0.1120   -7.2379   35.0222 H   0  0  0  0  0  0  0  0  0  0  0  0
   -1.6485   -7.2428   34.7319 H   0  0  0  0  0  0  0  0  0  0  0  0
    1.2629   -2.7974   34.0687 H   0  0  0  0  0  0  0  0  0  0  0  0
    1.9510   -0.4483   34.3006 H   0  0  0  0  0  0  0  0  0  0  0  0
    1.3944    1.1904   32.5226 H   0  0  0  0  0  0  0  0  0  0  0  0
    0.1684    0.4768   30.5286 H   0  0  0  0  0  0  0  0  0  0  0  0
   -2.0183   -0.1290   29.7654 H   0  0  0  0  0  0  0  0  0  0  0  0
   -1.0260   -0.4077   28.3134 H   0  0  0  0  0  0  0  0  0  0  0  0
   -2.4985   -1.3475   28.5820 H   0  0  0  0  0  0  0  0  0  0  0  0
   -1.1933   -3.2521   28.2845 H   0  0  0  0  0  0  0  0  0  0  0  0
   -0.0354   -6.7918   30.1545 H   0  0  0  0  0  0  0  0  0  0  0  0
   -0.8042   -8.5360   33.1766 H   0  0  0  0  0  0  0  0  0  0  0  0
  1  2  1  0
  2  3  2  0
  3  4  1  0
  4  5  2  0
  5  6  1  0
  6  7  2  0
  7  8  1  0
  8  9  2  0
  9 10  1  0
 10 11  2  0
 11 12  1  0
 11 13  1  0
 13 14  1  0
 14 15  1  0
 15 16  1  0
 16 17  2  0
 17 18  1  0
 17  2  1  0
 15  4  1  0
 10  5  1  0
  1 19  1  0
  1 20  1  0
  1 21  1  0
  6 22  1  0
  7 23  1  0
  8 24  1  0
  9 25  1  0
 12 26  1  0
 12 27  1  0
 12 28  1  0
 13 29  1  0
 16 30  1  0
 18 31  1  0
M  END
>  <Energy>  (112) 
71.325568357779005

>  <compound_id>  (112) 
442

>  <target_id>  (112) 
1

>  <reference_id>  (112) 
53

>  <inspiration_ids>  (112) 
[53, 196]

>  <energy_score>  (112) 
-110.98649963514345

>  <distance_score>  (112) 
3.2031503007644053

>  <path>  (112) 
/opt/xchem-fragalysis-2/maxwin/BulkDock/SCRATCH/505733/C442-P53/C442-P53.minimised.mol

>  <scratch_subdir>  (112) 
/opt/xchem-fragalysis-2/maxwin/BulkDock/SCRATCH/505733/C442-P53

>  <fragmenstein_runtime>  (112) 
2.8521485328674316

>  <fragmenstein_outcome>  (112) 
too moved

>  <fragmenstein_mode>  (112) 
expansion

>  <fragmenstein_error>  (112) 


$$$$
C442-P196
     RDKit          3D

 31 33  0  0  0  0  0  0  0  0999 V2000
   -0.7183   -6.6292   34.5202 C   0  0  0  0  0  0  0  0  0  0  0  0
   -0.5979   -5.9684   33.1626 C   0  0  0  0  0  0  0  0  0  0  0  0
   -0.4360   -4.6804   33.1423 N   0  0  0  0  0  0  0  0  0  0  0  0
   -0.2619   -4.0695   31.8950 C   0  0  0  0  0  0  0  0  0  0  0  0
    0.0912   -2.4881   31.9403 C   0  0  0  0  0  0  0  0  0  0  0  0
    0.8076   -2.1569   33.0983 C   0  0  0  0  0  0  0  0  0  0  0  0
    0.9911   -0.8396   33.4777 C   0  0  0  0  0  0  0  0  0  0  0  0
    0.4735    0.1796   32.6981 C   0  0  0  0  0  0  0  0  0  0  0  0
   -0.1574   -0.1122   31.4984 C   0  0  0  0  0  0  0  0  0  0  0  0
   -0.3211   -1.4357   31.0711 C   0  0  0  0  0  0  0  0  0  0  0  0
   -0.9145   -1.5801   29.6015 C   0  0  0  0  0  0  0  0  0  0  0  0
   -0.9948   -0.3784   28.6325 C   0  0  0  0  0  0  0  0  0  0  0  0
   -1.2318   -2.8381   29.1382 N   0  0  0  0  0  0  0  0  0  0  0  0
   -0.0222   -3.9944   29.2730 S   0  0  0  0  0  0  0  0  0  0  0  0
   -0.2478   -4.7908   30.7174 N   0  0  0  0  0  0  0  0  0  0  0  0
   -0.4150   -6.1678   30.7944 C   0  0  0  0  0  0  0  0  0  0  0  0
   -0.6401   -6.8348   31.9387 C   0  0  0  0  0  0  0  0  0  0  0  0
   -0.9041   -8.1847   31.9653 O   0  0  0  0  0  0  0  0  0  0  0  0
    0.0927   -7.3518   34.6474 H   0  0  0  0  0  0  0  0  0  0  0  0
   -1.6793   -7.1437   34.6001 H   0  0  0  0  0  0  0  0  0  0  0  0
   -0.6538   -5.8834   35.3178 H   0  0  0  0  0  0  0  0  0  0  0  0
    1.1748   -2.9352   33.7643 H   0  0  0  0  0  0  0  0  0  0  0  0
    1.5149   -0.6085   34.4011 H   0  0  0  0  0  0  0  0  0  0  0  0
    0.6039    1.2145   33.0042 H   0  0  0  0  0  0  0  0  0  0  0  0
   -0.4958    0.7245   30.8957 H   0  0  0  0  0  0  0  0  0  0  0  0
   -1.0753   -0.7269   27.5978 H   0  0  0  0  0  0  0  0  0  0  0  0
   -1.8739    0.2273   28.8647 H   0  0  0  0  0  0  0  0  0  0  0  0
   -0.0960    0.2411   28.7000 H   0  0  0  0  0  0  0  0  0  0  0  0
   -1.7211   -2.8555   28.2366 H   0  0  0  0  0  0  0  0  0  0  0  0
   -0.4128   -6.6908   29.8488 H   0  0  0  0  0  0  0  0  0  0  0  0
   -1.1803   -8.4488   32.8630 H   0  0  0  0  0  0  0  0  0  0  0  0
  1  2  1  0
  2  3  2  0
  3  4  1  0
  4  5  2  0
  5  6  1  0
  6  7  2  0
  7  8  1  0
  8  9  2  0
  9 10  1  0
 10 11  2  0
 11 12  1  0
 11 13  1  0
 13 14  1  0
 14 15  1  0
 15 16  1  0
 16 17  2  0
 17 18  1  0
 17  2  1  0
 15  4  1  0
 10  5  1  0
  1 19  1  0
  1 20  1  0
  1 21  1  0
  6 22  1  0
  7 23  1  0
  8 24  1  0
  9 25  1  0
 12 26  1  0
 12 27  1  0
 12 28  1  0
 13 29  1  0
 16 30  1  0
 18 31  1  0
M  END
>  <Energy>  (113) 
84.875839378215318

>  <compound_id>  (113) 
442

>  <target_id>  (113) 
1

>  <reference_id>  (113) 
196

>  <inspiration_ids>  (113) 
[53, 196]

>  <energy_score>  (113) 
-94.66195001674075

>  <distance_score>  (113) 
2.9936698449414116

>  <path>  (113) 
/opt/xchem-fragalysis-2/maxwin/BulkDock/SCRATCH/505733/C442-P196/C442-P196.minimised.mol

>  <scratch_subdir>  (113) 
/opt/xchem-fragalysis-2/maxwin/BulkDock/SCRATCH/505733/C442-P196

>  <fragmenstein_runtime>  (113) 
2.3783392906188965

>  <fragmenstein_outcome>  (113) 
too moved

>  <fragmenstein_mode>  (113) 
expansion

>  <fragmenstein_error>  (113) 


$$$$
C444-P53
     RDKit          3D

 47 49  0  0  0  0  0  0  0  0999 V2000
   -1.9543    1.1125   26.8406 C   0  0  0  0  0  0  0  0  0  0  0  0
   -1.9774   -0.3341   27.3298 C   0  0  0  0  0  0  0  0  0  0  0  0
   -0.6046   -0.9324   27.7252 C   0  0  0  0  0  0  0  0  0  0  0  0
   -0.6424   -2.3164   28.4724 C   0  0  0  0  0  0  0  0  0  0  0  0
   -1.7428   -2.4498   29.5111 C   0  0  0  0  0  0  0  0  0  0  0  0
   -1.5430   -1.7444   30.8333 C   0  0  0  0  0  0  0  0  0  0  0  0
   -0.0536   -1.4942   31.0904 C   0  0  0  0  0  0  0  0  0  0  0  0
    0.1416   -1.1351   32.4878 N   0  0  0  0  0  0  0  0  0  0  0  0
    1.3864   -0.3625   32.5167 C   0  0  0  0  0  0  0  0  0  0  0  0
    1.7100   -0.0023   31.0782 C   0  0  0  0  0  0  0  0  0  0  0  0
    0.4648   -0.2923   30.3954 N   0  0  0  0  0  0  0  0  0  0  0  0
   -0.3828    0.9005   30.4705 C   0  0  0  0  0  0  0  0  0  0  0  0
    0.7500   -2.8200   30.6175 C   0  0  0  0  0  0  0  0  0  0  0  0
    0.3450   -4.1269   31.3532 C   0  0  0  0  0  0  0  0  0  0  0  0
    0.3687   -4.0766   32.7030 N   0  0  0  0  0  0  0  0  0  0  0  0
    0.0127   -5.1919   33.3841 C   0  0  0  0  0  0  0  0  0  0  0  0
   -0.3256   -6.3796   32.7888 C   0  0  0  0  0  0  0  0  0  0  0  0
   -0.6702   -7.4348   33.5620 O   0  0  0  0  0  0  0  0  0  0  0  0
   -0.2747   -6.3678   31.4173 C   0  0  0  0  0  0  0  0  0  0  0  0
    0.0521   -5.2680   30.6815 N   0  0  0  0  0  0  0  0  0  0  0  0
    0.6923   -2.8485   29.0604 C   0  0  0  0  0  0  0  0  0  0  0  0
   -2.9610    1.4322   26.5541 H   0  0  0  0  0  0  0  0  0  0  0  0
   -1.2981    1.2270   25.9770 H   0  0  0  0  0  0  0  0  0  0  0  0
   -1.5966    1.7828   27.6281 H   0  0  0  0  0  0  0  0  0  0  0  0
   -2.6304   -0.3405   28.2018 H   0  0  0  0  0  0  0  0  0  0  0  0
   -2.4381   -0.9711   26.5682 H   0  0  0  0  0  0  0  0  0  0  0  0
    0.0020   -1.0566   26.8363 H   0  0  0  0  0  0  0  0  0  0  0  0
   -0.0381   -0.1731   28.2461 H   0  0  0  0  0  0  0  0  0  0  0  0
   -0.8882   -3.0301   27.6849 H   0  0  0  0  0  0  0  0  0  0  0  0
   -2.6995   -2.2115   29.0691 H   0  0  0  0  0  0  0  0  0  0  0  0
   -1.7980   -3.5053   29.7478 H   0  0  0  0  0  0  0  0  0  0  0  0
   -2.1576   -0.8406   30.8837 H   0  0  0  0  0  0  0  0  0  0  0  0
   -1.9634   -2.3825   31.6247 H   0  0  0  0  0  0  0  0  0  0  0  0
    0.2415   -1.9952   33.0357 H   0  0  0  0  0  0  0  0  0  0  0  0
    2.1985   -0.9491   32.9599 H   0  0  0  0  0  0  0  0  0  0  0  0
    1.2378    0.5325   33.1300 H   0  0  0  0  0  0  0  0  0  0  0  0
    2.0535    1.0337   30.9752 H   0  0  0  0  0  0  0  0  0  0  0  0
    2.5168   -0.6333   30.6883 H   0  0  0  0  0  0  0  0  0  0  0  0
   -0.6288    1.1938   31.4964 H   0  0  0  0  0  0  0  0  0  0  0  0
   -1.3102    0.7624   29.9131 H   0  0  0  0  0  0  0  0  0  0  0  0
    0.1167    1.7512   29.9905 H   0  0  0  0  0  0  0  0  0  0  0  0
    1.8115   -2.7150   30.8805 H   0  0  0  0  0  0  0  0  0  0  0  0
    0.0039   -5.0883   34.4656 H   0  0  0  0  0  0  0  0  0  0  0  0
   -0.8150   -8.2449   33.0427 H   0  0  0  0  0  0  0  0  0  0  0  0
   -0.4999   -7.2508   30.8293 H   0  0  0  0  0  0  0  0  0  0  0  0
    0.8796   -3.8646   28.6951 H   0  0  0  0  0  0  0  0  0  0  0  0
    1.5141   -2.2418   28.6582 H   0  0  0  0  0  0  0  0  0  0  0  0
  1  2  1  0
  2  3  1  0
  3  4  1  0
  4  5  1  0
  5  6  1  0
  6  7  1  0
  7  8  1  0
  8  9  1  0
  9 10  1  0
 10 11  1  0
 11 12  1  0
  7 13  1  0
 13 14  1  0
 14 15  2  0
 15 16  1  0
 16 17  2  0
 17 18  1  0
 17 19  1  0
 19 20  2  0
 13 21  1  0
 21  4  1  0
 11  7  1  0
 20 14  1  0
  1 22  1  0
  1 23  1  0
  1 24  1  0
  2 25  1  0
  2 26  1  0
  3 27  1  0
  3 28  1  0
  4 29  1  0
  5 30  1  0
  5 31  1  0
  6 32  1  0
  6 33  1  0
  8 34  1  0
  9 35  1  0
  9 36  1  0
 10 37  1  0
 10 38  1  0
 12 39  1  0
 12 40  1  0
 12 41  1  0
 13 42  1  0
 16 43  1  0
 18 44  1  0
 19 45  1  0
 21 46  1  0
 21 47  1  0
M  END
>  <Energy>  (114) 
69.419268190415849

>  <compound_id>  (114) 
444

>  <target_id>  (114) 
1

>  <reference_id>  (114) 
53

>  <inspiration_ids>  (114) 
[53, 198]

>  <energy_score>  (114) 
-44.76423263214201

>  <distance_score>  (114) 
2.74897831950243

>  <path>  (114) 
/opt/xchem-fragalysis-2/maxwin/BulkDock/SCRATCH/505733/C444-P53/C444-P53.minimised.mol

>  <scratch_subdir>  (114) 
/opt/xchem-fragalysis-2/maxwin/BulkDock/SCRATCH/505733/C444-P53

>  <fragmenstein_runtime>  (114) 
21.352360010147095

>  <fragmenstein_outcome>  (114) 
too moved

>  <fragmenstein_mode>  (114) 
expansion

>  <fragmenstein_error>  (114) 


$$$$
C444-P198
     RDKit          3D

 47 49  0  0  0  0  0  0  0  0999 V2000
   -0.1859    1.4502   27.6380 C   0  0  0  0  0  0  0  0  0  0  0  0
    0.6620    0.6970   28.6891 C   0  0  0  0  0  0  0  0  0  0  0  0
    1.1951   -0.6930   28.2442 C   0  0  0  0  0  0  0  0  0  0  0  0
    1.6146   -1.8829   29.2157 C   0  0  0  0  0  0  0  0  0  0  0  0
    1.0052   -3.2218   28.7715 C   0  0  0  0  0  0  0  0  0  0  0  0
   -0.4823   -3.4257   29.1136 C   0  0  0  0  0  0  0  0  0  0  0  0
   -0.9501   -2.5209   30.2724 C   0  0  0  0  0  0  0  0  0  0  0  0
   -2.1937   -2.9184   30.9387 N   0  0  0  0  0  0  0  0  0  0  0  0
   -2.6171   -1.7124   31.6580 C   0  0  0  0  0  0  0  0  0  0  0  0
   -2.1055   -0.5579   30.8285 C   0  0  0  0  0  0  0  0  0  0  0  0
   -1.3110   -1.1826   29.7792 N   0  0  0  0  0  0  0  0  0  0  0  0
   -2.0560   -1.1759   28.5154 C   0  0  0  0  0  0  0  0  0  0  0  0
    0.2342   -2.5489   31.3211 C   0  0  0  0  0  0  0  0  0  0  0  0
    0.4139   -3.9697   31.9507 C   0  0  0  0  0  0  0  0  0  0  0  0
    0.0304   -4.0856   33.2406 N   0  0  0  0  0  0  0  0  0  0  0  0
   -0.2021   -5.3263   33.7333 C   0  0  0  0  0  0  0  0  0  0  0  0
   -0.0816   -6.4702   32.9903 C   0  0  0  0  0  0  0  0  0  0  0  0
   -0.3509   -7.7150   33.4402 O   0  0  0  0  0  0  0  0  0  0  0  0
    0.3571   -6.2777   31.7084 C   0  0  0  0  0  0  0  0  0  0  0  0
    0.6318   -5.0589   31.1839 N   0  0  0  0  0  0  0  0  0  0  0  0
    1.4693   -1.8185   30.7415 C   0  0  0  0  0  0  0  0  0  0  0  0
    0.4737    1.8782   26.8764 H   0  0  0  0  0  0  0  0  0  0  0  0
   -0.7239    2.2764   28.1130 H   0  0  0  0  0  0  0  0  0  0  0  0
   -0.9021    0.8090   27.1266 H   0  0  0  0  0  0  0  0  0  0  0  0
    1.5317    1.3235   28.9282 H   0  0  0  0  0  0  0  0  0  0  0  0
    0.1106    0.6484   29.6252 H   0  0  0  0  0  0  0  0  0  0  0  0
    0.4862   -1.0979   27.5290 H   0  0  0  0  0  0  0  0  0  0  0  0
    2.0808   -0.4848   27.6253 H   0  0  0  0  0  0  0  0  0  0  0  0
    2.6979   -1.9726   29.0408 H   0  0  0  0  0  0  0  0  0  0  0  0
    1.1801   -3.3727   27.7144 H   0  0  0  0  0  0  0  0  0  0  0  0
    1.5953   -4.0269   29.2254 H   0  0  0  0  0  0  0  0  0  0  0  0
   -0.6530   -4.4805   29.3447 H   0  0  0  0  0  0  0  0  0  0  0  0
   -1.0675   -3.3163   28.2048 H   0  0  0  0  0  0  0  0  0  0  0  0
   -1.9739   -3.6373   31.6240 H   0  0  0  0  0  0  0  0  0  0  0  0
   -2.1757   -1.6903   32.6618 H   0  0  0  0  0  0  0  0  0  0  0  0
   -3.6963   -1.7094   31.8028 H   0  0  0  0  0  0  0  0  0  0  0  0
   -2.9111    0.0809   30.4642 H   0  0  0  0  0  0  0  0  0  0  0  0
   -1.4573    0.0783   31.4429 H   0  0  0  0  0  0  0  0  0  0  0  0
   -1.4507   -1.4466   27.6540 H   0  0  0  0  0  0  0  0  0  0  0  0
   -2.3852   -0.1621   28.2877 H   0  0  0  0  0  0  0  0  0  0  0  0
   -2.9095   -1.8482   28.5105 H   0  0  0  0  0  0  0  0  0  0  0  0
   -0.0373   -1.9257   32.1854 H   0  0  0  0  0  0  0  0  0  0  0  0
   -0.5252   -5.3425   34.7695 H   0  0  0  0  0  0  0  0  0  0  0  0
   -0.7645   -7.6801   34.3210 H   0  0  0  0  0  0  0  0  0  0  0  0
    0.4965   -7.1141   31.0310 H   0  0  0  0  0  0  0  0  0  0  0  0
    2.3693   -2.2405   31.2082 H   0  0  0  0  0  0  0  0  0  0  0  0
    1.4484   -0.7647   31.0449 H   0  0  0  0  0  0  0  0  0  0  0  0
  1  2  1  0
  2  3  1  0
  3  4  1  0
  4  5  1  0
  5  6  1  0
  6  7  1  0
  7  8  1  0
  8  9  1  0
  9 10  1  0
 10 11  1  0
 11 12  1  0
  7 13  1  0
 13 14  1  0
 14 15  2  0
 15 16  1  0
 16 17  2  0
 17 18  1  0
 17 19  1  0
 19 20  2  0
 13 21  1  0
 21  4  1  0
 11  7  1  0
 20 14  1  0
  1 22  1  0
  1 23  1  0
  1 24  1  0
  2 25  1  0
  2 26  1  0
  3 27  1  0
  3 28  1  0
  4 29  1  0
  5 30  1  0
  5 31  1  0
  6 32  1  0
  6 33  1  0
  8 34  1  0
  9 35  1  0
  9 36  1  0
 10 37  1  0
 10 38  1  0
 12 39  1  0
 12 40  1  0
 12 41  1  0
 13 42  1  0
 16 43  1  0
 18 44  1  0
 19 45  1  0
 21 46  1  0
 21 47  1  0
M  END
>  <Energy>  (115) 
91.13440939638653

>  <compound_id>  (115) 
444

>  <target_id>  (115) 
1

>  <reference_id>  (115) 
198

>  <inspiration_ids>  (115) 
[53, 198]

>  <energy_score>  (115) 
-23.049091426171742

>  <distance_score>  (115) 
3.0675419191523026

>  <path>  (115) 
/opt/xchem-fragalysis-2/maxwin/BulkDock/SCRATCH/505733/C444-P198/C444-P198.minimised.mol

>  <scratch_subdir>  (115) 
/opt/xchem-fragalysis-2/maxwin/BulkDock/SCRATCH/505733/C444-P198

>  <fragmenstein_runtime>  (115) 
20.93630051612854

>  <fragmenstein_outcome>  (115) 
too moved

>  <fragmenstein_mode>  (115) 
expansion

>  <fragmenstein_error>  (115) 


$$$$
C450-P54
     RDKit          3D

 24 25  0  0  0  0  0  0  0  0999 V2000
  -11.3908  -26.0610   28.0107 C   0  0  0  0  0  0  0  0  0  0  0  0
  -11.2762  -24.6290   28.4297 C   0  0  0  0  0  0  0  0  0  0  0  0
  -10.8526  -24.4138   29.6917 N   0  0  0  0  0  0  0  0  0  0  0  0
  -10.7452  -23.1295   30.0943 C   0  0  0  0  0  0  0  0  0  0  0  0
  -10.2818  -22.8968   31.4609 C   0  0  0  0  0  0  0  0  0  0  0  0
  -10.7381  -21.8046   32.2137 C   0  0  0  0  0  0  0  0  0  0  0  0
  -10.3183  -21.6183   33.5290 C   0  0  0  0  0  0  0  0  0  0  0  0
   -9.4110  -22.5059   34.1001 C   0  0  0  0  0  0  0  0  0  0  0  0
   -8.9252  -23.5808   33.3679 C   0  0  0  0  0  0  0  0  0  0  0  0
   -9.3707  -23.7786   32.0650 C   0  0  0  0  0  0  0  0  0  0  0  0
  -11.0068  -22.0561   29.3254 N   0  0  0  0  0  0  0  0  0  0  0  0
  -11.3939  -22.3145   28.0668 C   0  0  0  0  0  0  0  0  0  0  0  0
  -11.5674  -23.5871   27.5692 C   0  0  0  0  0  0  0  0  0  0  0  0
  -12.0102  -23.8084   26.3057 O   0  0  0  0  0  0  0  0  0  0  0  0
  -10.6345  -26.2937   27.2544 H   0  0  0  0  0  0  0  0  0  0  0  0
  -11.2444  -26.7331   28.8623 H   0  0  0  0  0  0  0  0  0  0  0  0
  -12.3849  -26.2605   27.5981 H   0  0  0  0  0  0  0  0  0  0  0  0
  -11.4565  -21.1065   31.7872 H   0  0  0  0  0  0  0  0  0  0  0  0
  -10.7149  -20.7875   34.1084 H   0  0  0  0  0  0  0  0  0  0  0  0
   -9.0930  -22.3558   35.1227 H   0  0  0  0  0  0  0  0  0  0  0  0
   -8.2021  -24.2668   33.7957 H   0  0  0  0  0  0  0  0  0  0  0  0
   -8.9941  -24.6301   31.5049 H   0  0  0  0  0  0  0  0  0  0  0  0
  -11.5659  -21.4332   27.4577 H   0  0  0  0  0  0  0  0  0  0  0  0
  -12.2904  -22.9575   25.9157 H   0  0  0  0  0  0  0  0  0  0  0  0
  1  2  1  0
  2  3  2  0
  3  4  1  0
  4  5  1  0
  5  6  2  0
  6  7  1  0
  7  8  2  0
  8  9  1  0
  9 10  2  0
  4 11  2  0
 11 12  1  0
 12 13  2  0
 13 14  1  0
 13  2  1  0
 10  5  1  0
  1 15  1  0
  1 16  1  0
  1 17  1  0
  6 18  1  0
  7 19  1  0
  8 20  1  0
  9 21  1  0
 10 22  1  0
 12 23  1  0
 14 24  1  0
M  END
>  <Energy>  (116) 
48.07481563843757

>  <compound_id>  (116) 
450

>  <target_id>  (116) 
1

>  <reference_id>  (116) 
54

>  <inspiration_ids>  (116) 
[54, 38]

>  <energy_score>  (116) 
-12.714652917578292

>  <distance_score>  (116) 
1.2515019689541078

>  <path>  (116) 
/opt/xchem-fragalysis-2/maxwin/BulkDock/SCRATCH/505733/C450-P54/C450-P54.minimised.mol

>  <scratch_subdir>  (116) 
/opt/xchem-fragalysis-2/maxwin/BulkDock/SCRATCH/505733/C450-P54

>  <fragmenstein_runtime>  (116) 
1.170720100402832

>  <fragmenstein_outcome>  (116) 
too moved

>  <fragmenstein_mode>  (116) 
expansion

>  <fragmenstein_error>  (116) 


$$$$
C450-P38
     RDKit          3D

 24 25  0  0  0  0  0  0  0  0999 V2000
  -11.7078  -26.3402   26.9795 C   0  0  0  0  0  0  0  0  0  0  0  0
  -11.6040  -25.0095   27.6265 C   0  0  0  0  0  0  0  0  0  0  0  0
  -11.4557  -25.0323   28.9506 N   0  0  0  0  0  0  0  0  0  0  0  0
  -11.4066  -23.8517   29.5846 C   0  0  0  0  0  0  0  0  0  0  0  0
  -11.2089  -23.9514   31.0059 C   0  0  0  0  0  0  0  0  0  0  0  0
  -12.0225  -23.2498   31.8937 C   0  0  0  0  0  0  0  0  0  0  0  0
  -12.0083  -23.6209   33.2182 C   0  0  0  0  0  0  0  0  0  0  0  0
  -11.1543  -24.6464   33.6258 C   0  0  0  0  0  0  0  0  0  0  0  0
  -10.1964  -25.1920   32.7986 C   0  0  0  0  0  0  0  0  0  0  0  0
  -10.2476  -24.8686   31.4728 C   0  0  0  0  0  0  0  0  0  0  0  0
  -11.4193  -22.6409   29.0116 N   0  0  0  0  0  0  0  0  0  0  0  0
  -11.4957  -22.6763   27.6774 C   0  0  0  0  0  0  0  0  0  0  0  0
  -11.6685  -23.8250   26.9356 C   0  0  0  0  0  0  0  0  0  0  0  0
  -11.9199  -23.7837   25.6038 O   0  0  0  0  0  0  0  0  0  0  0  0
  -10.8901  -26.4931   26.2704 H   0  0  0  0  0  0  0  0  0  0  0  0
  -11.6776  -27.1481   27.7174 H   0  0  0  0  0  0  0  0  0  0  0  0
  -12.6600  -26.4040   26.4455 H   0  0  0  0  0  0  0  0  0  0  0  0
  -12.7567  -22.5357   31.5353 H   0  0  0  0  0  0  0  0  0  0  0  0
  -12.7167  -23.1949   33.9187 H   0  0  0  0  0  0  0  0  0  0  0  0
  -11.2126  -25.0302   34.6354 H   0  0  0  0  0  0  0  0  0  0  0  0
   -9.4921  -25.9254   33.1602 H   0  0  0  0  0  0  0  0  0  0  0  0
   -9.5940  -25.3918   30.7775 H   0  0  0  0  0  0  0  0  0  0  0  0
  -11.4089  -21.7114   27.1987 H   0  0  0  0  0  0  0  0  0  0  0  0
  -12.3040  -22.9010   25.3983 H   0  0  0  0  0  0  0  0  0  0  0  0
  1  2  1  0
  2  3  2  0
  3  4  1  0
  4  5  1  0
  5  6  2  0
  6  7  1  0
  7  8  2  0
  8  9  1  0
  9 10  2  0
  4 11  2  0
 11 12  1  0
 12 13  2  0
 13 14  1  0
 13  2  1  0
 10  5  1  0
  1 15  1  0
  1 16  1  0
  1 17  1  0
  6 18  1  0
  7 19  1  0
  8 20  1  0
  9 21  1  0
 10 22  1  0
 12 23  1  0
 14 24  1  0
M  END
>  <Energy>  (117) 
57.291855390278741

>  <compound_id>  (117) 
450

>  <target_id>  (117) 
1

>  <reference_id>  (117) 
38

>  <inspiration_ids>  (117) 
[54, 38]

>  <energy_score>  (117) 
-3.49761316573759

>  <distance_score>  (117) 
2.06710979913277

>  <path>  (117) 
/opt/xchem-fragalysis-2/maxwin/BulkDock/SCRATCH/505733/C450-P38/C450-P38.minimised.mol

>  <scratch_subdir>  (117) 
/opt/xchem-fragalysis-2/maxwin/BulkDock/SCRATCH/505733/C450-P38

>  <fragmenstein_runtime>  (117) 
1.5071704387664795

>  <fragmenstein_outcome>  (117) 
too moved

>  <fragmenstein_mode>  (117) 
expansion

>  <fragmenstein_error>  (117) 


$$$$
C451-P54
     RDKit          3D

 40 42  0  0  0  0  0  0  0  0999 V2000
  -11.4288  -25.8965   26.8006 O   0  0  0  0  0  0  0  0  0  0  0  0
  -12.0784  -24.6819   26.3218 O   0  0  0  0  0  0  0  0  0  0  0  0
  -11.9062  -23.6629   27.3115 C   0  0  0  0  0  0  0  0  0  0  0  0
  -12.7238  -23.9864   28.5687 C   0  0  0  0  0  0  0  0  0  0  0  0
  -12.2123  -23.3554   29.7895 N   0  0  0  0  0  0  0  0  0  0  0  0
  -10.7848  -23.5890   29.9705 C   0  0  0  0  0  0  0  0  0  0  0  0
  -10.5156  -25.1083   29.9306 C   0  0  0  0  0  0  0  0  0  0  0  0
  -10.9229  -25.5810   31.2669 N   0  0  0  0  0  0  0  0  0  0  0  0
  -10.1085  -24.6887   32.0724 C   0  0  0  0  0  0  0  0  0  0  0  0
  -10.1948  -23.2958   31.4100 C   0  0  0  0  0  0  0  0  0  0  0  0
  -10.8727  -22.1208   32.1283 C   0  0  0  0  0  0  0  0  0  0  0  0
  -10.3846  -21.9134   33.5552 C   0  0  0  0  0  0  0  0  0  0  0  0
   -8.8768  -21.8418   33.6722 C   0  0  0  0  0  0  0  0  0  0  0  0
   -8.1318  -22.8540   32.8321 C   0  0  0  0  0  0  0  0  0  0  0  0
   -8.7255  -22.9084   31.4218 C   0  0  0  0  0  0  0  0  0  0  0  0
  -10.1629  -22.8214   28.9123 N   0  0  0  0  0  0  0  0  0  0  0  0
  -10.4214  -23.4295   27.6088 C   0  0  0  0  0  0  0  0  0  0  0  0
  -11.5927  -26.4270   25.9972 H   0  0  0  0  0  0  0  0  0  0  0  0
  -12.3042  -22.7356   26.8826 H   0  0  0  0  0  0  0  0  0  0  0  0
  -13.7639  -23.6898   28.4154 H   0  0  0  0  0  0  0  0  0  0  0  0
  -12.8371  -25.0661   28.7157 H   0  0  0  0  0  0  0  0  0  0  0  0
  -12.3917  -22.3572   29.8084 H   0  0  0  0  0  0  0  0  0  0  0  0
  -10.9992  -25.7108   29.1671 H   0  0  0  0  0  0  0  0  0  0  0  0
   -9.4465  -25.1849   29.7563 H   0  0  0  0  0  0  0  0  0  0  0  0
  -11.8959  -25.2946   31.3483 H   0  0  0  0  0  0  0  0  0  0  0  0
  -10.1997  -24.7104   33.1536 H   0  0  0  0  0  0  0  0  0  0  0  0
   -9.0982  -25.1026   31.9746 H   0  0  0  0  0  0  0  0  0  0  0  0
  -10.6995  -21.1937   31.5648 H   0  0  0  0  0  0  0  0  0  0  0  0
  -11.9427  -22.2255   32.1234 H   0  0  0  0  0  0  0  0  0  0  0  0
  -10.8372  -21.0094   33.9784 H   0  0  0  0  0  0  0  0  0  0  0  0
  -10.7154  -22.7389   34.1717 H   0  0  0  0  0  0  0  0  0  0  0  0
   -8.5636  -20.8414   33.3569 H   0  0  0  0  0  0  0  0  0  0  0  0
   -8.5785  -21.9855   34.7135 H   0  0  0  0  0  0  0  0  0  0  0  0
   -8.1271  -23.8250   33.3355 H   0  0  0  0  0  0  0  0  0  0  0  0
   -7.0859  -22.5536   32.7949 H   0  0  0  0  0  0  0  0  0  0  0  0
   -8.1781  -23.5142   30.7081 H   0  0  0  0  0  0  0  0  0  0  0  0
   -8.6761  -21.9218   31.0376 H   0  0  0  0  0  0  0  0  0  0  0  0
  -10.5080  -21.8667   28.9424 H   0  0  0  0  0  0  0  0  0  0  0  0
  -10.0170  -22.7769   26.8313 H   0  0  0  0  0  0  0  0  0  0  0  0
   -9.8282  -24.3441   27.5140 H   0  0  0  0  0  0  0  0  0  0  0  0
  1  2  1  0
  2  3  1  0
  3  4  1  0
  4  5  1  0
  5  6  1  0
  6  7  1  0
  7  8  1  0
  8  9  1  0
  9 10  1  0
 10 11  1  0
 11 12  1  0
 12 13  1  0
 13 14  1  0
 14 15  1  0
  6 16  1  0
 16 17  1  0
 17  3  1  0
 10  6  1  0
 15 10  1  0
  1 18  1  0
  3 19  1  0
  4 20  1  0
  4 21  1  0
  5 22  1  0
  7 23  1  0
  7 24  1  0
  8 25  1  0
  9 26  1  0
  9 27  1  0
 11 28  1  0
 11 29  1  0
 12 30  1  0
 12 31  1  0
 13 32  1  0
 13 33  1  0
 14 34  1  0
 14 35  1  0
 15 36  1  0
 15 37  1  0
 16 38  1  0
 17 39  1  0
 17 40  1  0
M  END
>  <Energy>  (118) 
89.687842731259124

>  <compound_id>  (118) 
451

>  <target_id>  (118) 
1

>  <reference_id>  (118) 
54

>  <inspiration_ids>  (118) 
[54, 39]

>  <energy_score>  (118) 
-14.096271139621848

>  <distance_score>  (118) 
1.5370252055176152

>  <path>  (118) 
/opt/xchem-fragalysis-2/maxwin/BulkDock/SCRATCH/505733/C451-P54/C451-P54.minimised.mol

>  <scratch_subdir>  (118) 
/opt/xchem-fragalysis-2/maxwin/BulkDock/SCRATCH/505733/C451-P54

>  <fragmenstein_runtime>  (118) 
2.3558878898620605

>  <fragmenstein_outcome>  (118) 
too moved

>  <fragmenstein_mode>  (118) 
expansion

>  <fragmenstein_error>  (118) 


$$$$
C451-P39
     RDKit          3D

 40 42  0  0  0  0  0  0  0  0999 V2000
  -11.3423  -26.8187   26.2434 O   0  0  0  0  0  0  0  0  0  0  0  0
  -11.5677  -25.5923   25.5003 O   0  0  0  0  0  0  0  0  0  0  0  0
  -11.4235  -24.5074   26.4173 C   0  0  0  0  0  0  0  0  0  0  0  0
  -12.6579  -24.3488   27.2759 C   0  0  0  0  0  0  0  0  0  0  0  0
  -12.4350  -23.9784   28.6716 N   0  0  0  0  0  0  0  0  0  0  0  0
  -11.3692  -24.7966   29.2576 C   0  0  0  0  0  0  0  0  0  0  0  0
  -11.6220  -26.3631   29.1869 C   0  0  0  0  0  0  0  0  0  0  0  0
  -12.1537  -26.7847   30.5041 N   0  0  0  0  0  0  0  0  0  0  0  0
  -12.3793  -25.4907   31.1603 C   0  0  0  0  0  0  0  0  0  0  0  0
  -11.2304  -24.6376   30.7737 C   0  0  0  0  0  0  0  0  0  0  0  0
  -11.5974  -23.2271   31.3429 C   0  0  0  0  0  0  0  0  0  0  0  0
  -11.2741  -23.1438   32.8272 C   0  0  0  0  0  0  0  0  0  0  0  0
   -9.8774  -23.7062   32.9575 C   0  0  0  0  0  0  0  0  0  0  0  0
   -9.7879  -25.1792   32.8246 C   0  0  0  0  0  0  0  0  0  0  0  0
   -9.9312  -25.3674   31.3370 C   0  0  0  0  0  0  0  0  0  0  0  0
  -10.2113  -24.2441   28.6135 N   0  0  0  0  0  0  0  0  0  0  0  0
  -10.1640  -24.6557   27.2396 C   0  0  0  0  0  0  0  0  0  0  0  0
  -12.0876  -27.3404   25.8625 H   0  0  0  0  0  0  0  0  0  0  0  0
  -11.3382  -23.6106   25.7977 H   0  0  0  0  0  0  0  0  0  0  0  0
  -13.3371  -25.2052   27.2026 H   0  0  0  0  0  0  0  0  0  0  0  0
  -13.1733  -23.5279   26.7962 H   0  0  0  0  0  0  0  0  0  0  0  0
  -12.0616  -23.0296   28.6936 H   0  0  0  0  0  0  0  0  0  0  0  0
  -12.3433  -26.6615   28.4265 H   0  0  0  0  0  0  0  0  0  0  0  0
  -10.6886  -26.8958   28.9904 H   0  0  0  0  0  0  0  0  0  0  0  0
  -11.4580  -27.3227   31.0160 H   0  0  0  0  0  0  0  0  0  0  0  0
  -12.5311  -25.4677   32.2243 H   0  0  0  0  0  0  0  0  0  0  0  0
  -13.2458  -24.9933   30.7439 H   0  0  0  0  0  0  0  0  0  0  0  0
  -11.0867  -22.4239   30.8064 H   0  0  0  0  0  0  0  0  0  0  0  0
  -12.6629  -22.9927   31.2134 H   0  0  0  0  0  0  0  0  0  0  0  0
  -11.9863  -23.7022   33.4436 H   0  0  0  0  0  0  0  0  0  0  0  0
  -11.3813  -22.0967   33.1063 H   0  0  0  0  0  0  0  0  0  0  0  0
   -9.4330  -23.3860   32.0689 H   0  0  0  0  0  0  0  0  0  0  0  0
   -9.1160  -23.3056   33.6011 H   0  0  0  0  0  0  0  0  0  0  0  0
  -10.5359  -25.7036   33.4212 H   0  0  0  0  0  0  0  0  0  0  0  0
   -8.8024  -25.5301   33.1305 H   0  0  0  0  0  0  0  0  0  0  0  0
   -9.8474  -26.4339   31.1212 H   0  0  0  0  0  0  0  0  0  0  0  0
   -9.0333  -24.9781   30.8601 H   0  0  0  0  0  0  0  0  0  0  0  0
   -9.3772  -24.6285   29.0457 H   0  0  0  0  0  0  0  0  0  0  0  0
   -9.4132  -24.0342   26.7639 H   0  0  0  0  0  0  0  0  0  0  0  0
   -9.7847  -25.6771   27.2481 H   0  0  0  0  0  0  0  0  0  0  0  0
  1  2  1  0
  2  3  1  0
  3  4  1  0
  4  5  1  0
  5  6  1  0
  6  7  1  0
  7  8  1  0
  8  9  1  0
  9 10  1  0
 10 11  1  0
 11 12  1  0
 12 13  1  0
 13 14  1  0
 14 15  1  0
  6 16  1  0
 16 17  1  0
 17  3  1  0
 10  6  1  0
 15 10  1  0
  1 18  1  0
  3 19  1  0
  4 20  1  0
  4 21  1  0
  5 22  1  0
  7 23  1  0
  7 24  1  0
  8 25  1  0
  9 26  1  0
  9 27  1  0
 11 28  1  0
 11 29  1  0
 12 30  1  0
 12 31  1  0
 13 32  1  0
 13 33  1  0
 14 34  1  0
 14 35  1  0
 15 36  1  0
 15 37  1  0
 16 38  1  0
 17 39  1  0
 17 40  1  0
M  END
>  <Energy>  (119) 
112.51239563047962

>  <compound_id>  (119) 
451

>  <target_id>  (119) 
1

>  <reference_id>  (119) 
39

>  <inspiration_ids>  (119) 
[54, 39]

>  <energy_score>  (119) 
8.728281759596769

>  <distance_score>  (119) 
1.9867515633486288

>  <path>  (119) 
/opt/xchem-fragalysis-2/maxwin/BulkDock/SCRATCH/505733/C451-P39/C451-P39.minimised.mol

>  <scratch_subdir>  (119) 
/opt/xchem-fragalysis-2/maxwin/BulkDock/SCRATCH/505733/C451-P39

>  <fragmenstein_runtime>  (119) 
2.62849497795105

>  <fragmenstein_outcome>  (119) 
too moved

>  <fragmenstein_mode>  (119) 
expansion

>  <fragmenstein_error>  (119) 


$$$$
C454-P54
     RDKit          3D

 33 34  0  0  0  0  0  0  0  0999 V2000
  -14.3685  -25.6280   29.2593 C   0  0  0  0  0  0  0  0  0  0  0  0
  -13.1317  -25.0177   29.7335 N   0  0  0  0  0  0  0  0  0  0  0  0
  -12.9287  -23.6334   29.2490 C   0  0  0  0  0  0  0  0  0  0  0  0
  -11.5345  -23.4745   28.7433 C   0  0  0  0  0  0  0  0  0  0  0  0
  -11.4579  -23.8209   27.3953 C   0  0  0  0  0  0  0  0  0  0  0  0
  -10.4645  -24.6857   27.0685 C   0  0  0  0  0  0  0  0  0  0  0  0
  -10.6495  -25.4411   25.9600 O   0  0  0  0  0  0  0  0  0  0  0  0
  -10.7724  -26.8186   26.3197 C   0  0  0  0  0  0  0  0  0  0  0  0
   -9.4229  -24.8442   27.9520 C   0  0  0  0  0  0  0  0  0  0  0  0
   -9.3362  -24.2297   29.1451 N   0  0  0  0  0  0  0  0  0  0  0  0
  -10.4149  -23.5553   29.5862 C   0  0  0  0  0  0  0  0  0  0  0  0
  -10.2969  -23.1122   30.9970 C   0  0  0  0  0  0  0  0  0  0  0  0
  -10.9130  -21.9579   31.4986 C   0  0  0  0  0  0  0  0  0  0  0  0
  -10.7169  -21.5460   32.8259 C   0  0  0  0  0  0  0  0  0  0  0  0
   -9.8888  -22.2712   33.6786 C   0  0  0  0  0  0  0  0  0  0  0  0
   -9.2418  -23.4015   33.2059 C   0  0  0  0  0  0  0  0  0  0  0  0
   -9.4568  -23.8142   31.8890 C   0  0  0  0  0  0  0  0  0  0  0  0
  -14.3369  -25.7744   28.1744 H   0  0  0  0  0  0  0  0  0  0  0  0
  -14.4844  -26.6123   29.7234 H   0  0  0  0  0  0  0  0  0  0  0  0
  -15.2596  -25.0445   29.5028 H   0  0  0  0  0  0  0  0  0  0  0  0
  -12.3425  -25.5976   29.4469 H   0  0  0  0  0  0  0  0  0  0  0  0
  -13.1038  -22.8266   29.9576 H   0  0  0  0  0  0  0  0  0  0  0  0
  -13.6337  -23.4854   28.4325 H   0  0  0  0  0  0  0  0  0  0  0  0
  -12.3148  -23.7305   26.7315 H   0  0  0  0  0  0  0  0  0  0  0  0
   -9.7856  -27.2876   26.3796 H   0  0  0  0  0  0  0  0  0  0  0  0
  -11.3427  -27.2985   25.5244 H   0  0  0  0  0  0  0  0  0  0  0  0
  -11.3270  -26.9670   27.2545 H   0  0  0  0  0  0  0  0  0  0  0  0
   -8.5963  -25.5075   27.7238 H   0  0  0  0  0  0  0  0  0  0  0  0
  -11.5437  -21.3430   30.8626 H   0  0  0  0  0  0  0  0  0  0  0  0
  -11.2243  -20.6563   33.1931 H   0  0  0  0  0  0  0  0  0  0  0  0
   -9.7660  -21.9542   34.7081 H   0  0  0  0  0  0  0  0  0  0  0  0
   -8.5679  -23.9641   33.8437 H   0  0  0  0  0  0  0  0  0  0  0  0
   -8.9321  -24.7008   31.5443 H   0  0  0  0  0  0  0  0  0  0  0  0
  1  2  1  0
  2  3  1  0
  3  4  1  0
  4  5  2  0
  5  6  1  0
  6  7  1  0
  7  8  1  0
  6  9  2  0
  9 10  1  0
 10 11  2  0
 11 12  1  0
 12 13  2  0
 13 14  1  0
 14 15  2  0
 15 16  1  0
 16 17  2  0
 11  4  1  0
 17 12  1  0
  1 18  1  0
  1 19  1  0
  1 20  1  0
  2 21  1  0
  3 22  1  0
  3 23  1  0
  5 24  1  0
  8 25  1  0
  8 26  1  0
  8 27  1  0
  9 28  1  0
 13 29  1  0
 14 30  1  0
 15 31  1  0
 16 32  1  0
 17 33  1  0
M  END
>  <Energy>  (120) 
90.684013824939186

>  <compound_id>  (120) 
454

>  <target_id>  (120) 
1

>  <reference_id>  (120) 
54

>  <inspiration_ids>  (120) 
[54, 46]

>  <energy_score>  (120) 
9.524772510073376

>  <distance_score>  (120) 
1.7981728852400156

>  <path>  (120) 
/opt/xchem-fragalysis-2/maxwin/BulkDock/SCRATCH/505733/C454-P54/C454-P54.minimised.mol

>  <scratch_subdir>  (120) 
/opt/xchem-fragalysis-2/maxwin/BulkDock/SCRATCH/505733/C454-P54

>  <fragmenstein_runtime>  (120) 
2.4704482555389404

>  <fragmenstein_outcome>  (120) 
too moved

>  <fragmenstein_mode>  (120) 
expansion

>  <fragmenstein_error>  (120) 


$$$$
C454-P46
     RDKit          3D

 33 34  0  0  0  0  0  0  0  0999 V2000
  -13.9319  -25.6058   27.8205 C   0  0  0  0  0  0  0  0  0  0  0  0
  -13.8604  -24.6196   28.8931 N   0  0  0  0  0  0  0  0  0  0  0  0
  -13.1145  -23.3931   28.6535 C   0  0  0  0  0  0  0  0  0  0  0  0
  -11.6573  -23.6529   28.4849 C   0  0  0  0  0  0  0  0  0  0  0  0
  -11.3602  -23.6761   27.1462 C   0  0  0  0  0  0  0  0  0  0  0  0
  -11.2003  -24.9419   26.6886 C   0  0  0  0  0  0  0  0  0  0  0  0
  -11.6341  -25.1150   25.4122 O   0  0  0  0  0  0  0  0  0  0  0  0
  -12.0973  -26.4306   25.2035 C   0  0  0  0  0  0  0  0  0  0  0  0
  -10.7772  -25.9371   27.5733 C   0  0  0  0  0  0  0  0  0  0  0  0
  -10.5998  -25.7348   28.8806 N   0  0  0  0  0  0  0  0  0  0  0  0
  -11.1007  -24.5842   29.3570 C   0  0  0  0  0  0  0  0  0  0  0  0
  -10.9944  -24.3758   30.7912 C   0  0  0  0  0  0  0  0  0  0  0  0
  -11.3937  -23.1751   31.3919 C   0  0  0  0  0  0  0  0  0  0  0  0
  -10.7583  -22.7419   32.5180 C   0  0  0  0  0  0  0  0  0  0  0  0
   -9.7040  -23.5066   32.9871 C   0  0  0  0  0  0  0  0  0  0  0  0
   -9.5180  -24.8123   32.5967 C   0  0  0  0  0  0  0  0  0  0  0  0
  -10.2131  -25.2721   31.5166 C   0  0  0  0  0  0  0  0  0  0  0  0
  -14.8066  -26.2593   27.9438 H   0  0  0  0  0  0  0  0  0  0  0  0
  -14.0058  -25.1536   26.8283 H   0  0  0  0  0  0  0  0  0  0  0  0
  -13.1205  -26.3194   27.9043 H   0  0  0  0  0  0  0  0  0  0  0  0
  -14.8504  -24.4484   29.0716 H   0  0  0  0  0  0  0  0  0  0  0  0
  -13.2558  -22.6480   29.4300 H   0  0  0  0  0  0  0  0  0  0  0  0
  -13.4841  -22.9459   27.7483 H   0  0  0  0  0  0  0  0  0  0  0  0
  -11.7759  -22.9360   26.4650 H   0  0  0  0  0  0  0  0  0  0  0  0
  -12.6364  -26.8227   26.0587 H   0  0  0  0  0  0  0  0  0  0  0  0
  -11.2512  -27.0681   24.9516 H   0  0  0  0  0  0  0  0  0  0  0  0
  -12.8350  -26.4489   24.4089 H   0  0  0  0  0  0  0  0  0  0  0  0
  -10.5764  -26.9499   27.2486 H   0  0  0  0  0  0  0  0  0  0  0  0
  -12.0601  -22.4684   30.9269 H   0  0  0  0  0  0  0  0  0  0  0  0
  -10.9935  -21.7506   32.8707 H   0  0  0  0  0  0  0  0  0  0  0  0
   -8.9397  -23.0569   33.6049 H   0  0  0  0  0  0  0  0  0  0  0  0
   -8.7482  -25.4379   33.0188 H   0  0  0  0  0  0  0  0  0  0  0  0
   -9.9859  -26.2637   31.1345 H   0  0  0  0  0  0  0  0  0  0  0  0
  1  2  1  0
  2  3  1  0
  3  4  1  0
  4  5  2  0
  5  6  1  0
  6  7  1  0
  7  8  1  0
  6  9  2  0
  9 10  1  0
 10 11  2  0
 11 12  1  0
 12 13  2  0
 13 14  1  0
 14 15  2  0
 15 16  1  0
 16 17  2  0
 11  4  1  0
 17 12  1  0
  1 18  1  0
  1 19  1  0
  1 20  1  0
  2 21  1  0
  3 22  1  0
  3 23  1  0
  5 24  1  0
  8 25  1  0
  8 26  1  0
  8 27  1  0
  9 28  1  0
 13 29  1  0
 14 30  1  0
 15 31  1  0
 16 32  1  0
 17 33  1  0
M  END
>  <Energy>  (121) 
145.11034536638533

>  <compound_id>  (121) 
454

>  <target_id>  (121) 
1

>  <reference_id>  (121) 
46

>  <inspiration_ids>  (121) 
[54, 46]

>  <energy_score>  (121) 
63.95110405152161

>  <distance_score>  (121) 
2.172536770265005

>  <path>  (121) 
/opt/xchem-fragalysis-2/maxwin/BulkDock/SCRATCH/505733/C454-P46/C454-P46.minimised.mol

>  <scratch_subdir>  (121) 
/opt/xchem-fragalysis-2/maxwin/BulkDock/SCRATCH/505733/C454-P46

>  <fragmenstein_runtime>  (121) 
2.766679525375366

>  <fragmenstein_outcome>  (121) 
too moved

>  <fragmenstein_mode>  (121) 
expansion

>  <fragmenstein_error>  (121) 


$$$$
C455-P54
     RDKit          3D

 46 48  0  0  0  0  0  0  0  0999 V2000
   -9.7217  -22.6510   27.6828 C   0  0  0  0  0  0  0  0  0  0  0  0
   -9.5766  -23.8985   28.5359 C   0  0  0  0  0  0  0  0  0  0  0  0
   -8.4449  -23.7694   29.5507 C   0  0  0  0  0  0  0  0  0  0  0  0
   -8.9174  -23.7029   30.9760 C   0  0  0  0  0  0  0  0  0  0  0  0
   -9.7174  -24.8560   31.3105 N   0  0  0  0  0  0  0  0  0  0  0  0
  -10.7839  -25.2018   30.3967 C   0  0  0  0  0  0  0  0  0  0  0  0
  -10.9408  -24.3424   29.1176 C   0  0  0  0  0  0  0  0  0  0  0  0
  -11.8532  -23.0400   29.3743 C   0  0  0  0  0  0  0  0  0  0  0  0
  -11.5519  -22.0589   30.5311 C   0  0  0  0  0  0  0  0  0  0  0  0
  -11.4401  -20.6846   30.3624 C   0  0  0  0  0  0  0  0  0  0  0  0
  -11.1488  -19.8422   31.4569 C   0  0  0  0  0  0  0  0  0  0  0  0
  -10.9123  -20.3335   32.7356 C   0  0  0  0  0  0  0  0  0  0  0  0
  -10.9892  -21.6815   32.9327 C   0  0  0  0  0  0  0  0  0  0  0  0
  -11.3680  -22.4784   31.8477 C   0  0  0  0  0  0  0  0  0  0  0  0
  -13.2491  -23.4428   29.3895 N   0  0  0  0  0  0  0  0  0  0  0  0
  -13.7430  -24.1698   28.2223 C   0  0  0  0  0  0  0  0  0  0  0  0
  -12.6676  -24.5882   27.2329 C   0  0  0  0  0  0  0  0  0  0  0  0
  -13.2466  -25.3999   26.2232 O   0  0  0  0  0  0  0  0  0  0  0  0
  -11.6473  -25.3423   28.0714 C   0  0  0  0  0  0  0  0  0  0  0  0
  -10.7626  -26.2644   27.2209 C   0  0  0  0  0  0  0  0  0  0  0  0
   -9.8093  -21.7366   28.2716 H   0  0  0  0  0  0  0  0  0  0  0  0
  -10.5335  -22.7115   26.9586 H   0  0  0  0  0  0  0  0  0  0  0  0
   -8.8625  -22.5275   27.0653 H   0  0  0  0  0  0  0  0  0  0  0  0
   -9.2029  -24.6625   27.8570 H   0  0  0  0  0  0  0  0  0  0  0  0
   -7.7836  -24.6242   29.4100 H   0  0  0  0  0  0  0  0  0  0  0  0
   -7.8237  -22.8994   29.3470 H   0  0  0  0  0  0  0  0  0  0  0  0
   -9.3545  -22.7259   31.0685 H   0  0  0  0  0  0  0  0  0  0  0  0
   -8.1589  -23.6064   31.7465 H   0  0  0  0  0  0  0  0  0  0  0  0
   -9.9794  -24.8681   32.2892 H   0  0  0  0  0  0  0  0  0  0  0  0
  -10.6415  -26.2500   30.1267 H   0  0  0  0  0  0  0  0  0  0  0  0
  -11.7357  -25.2435   30.9339 H   0  0  0  0  0  0  0  0  0  0  0  0
  -11.8302  -22.3924   28.4962 H   0  0  0  0  0  0  0  0  0  0  0  0
  -11.5452  -20.2297   29.3802 H   0  0  0  0  0  0  0  0  0  0  0  0
  -11.0370  -18.7759   31.2904 H   0  0  0  0  0  0  0  0  0  0  0  0
  -10.7020  -19.6620   33.5572 H   0  0  0  0  0  0  0  0  0  0  0  0
  -10.8393  -22.1050   33.9185 H   0  0  0  0  0  0  0  0  0  0  0  0
  -11.5182  -23.5121   32.0395 H   0  0  0  0  0  0  0  0  0  0  0  0
  -13.7775  -22.6066   29.5946 H   0  0  0  0  0  0  0  0  0  0  0  0
  -14.5357  -23.6624   27.6722 H   0  0  0  0  0  0  0  0  0  0  0  0
  -14.2615  -25.0634   28.5977 H   0  0  0  0  0  0  0  0  0  0  0  0
  -12.2515  -23.7224   26.7182 H   0  0  0  0  0  0  0  0  0  0  0  0
  -12.5311  -25.6633   25.6273 H   0  0  0  0  0  0  0  0  0  0  0  0
  -12.2318  -26.0659   28.6638 H   0  0  0  0  0  0  0  0  0  0  0  0
   -9.9908  -26.7595   27.8055 H   0  0  0  0  0  0  0  0  0  0  0  0
  -10.2932  -25.7248   26.3926 H   0  0  0  0  0  0  0  0  0  0  0  0
  -11.3604  -27.0699   26.7782 H   0  0  0  0  0  0  0  0  0  0  0  0
  1  2  1  0
  2  3  1  0
  3  4  1  0
  4  5  1  0
  5  6  1  0
  6  7  1  0
  7  8  1  0
  8  9  1  0
  9 10  2  0
 10 11  1  0
 11 12  2  0
 12 13  1  0
 13 14  2  0
  8 15  1  0
 15 16  1  0
 16 17  1  0
 17 18  1  0
 17 19  1  0
 19 20  1  0
  7  2  1  0
 14  9  1  0
 19  7  1  0
  1 21  1  0
  1 22  1  0
  1 23  1  0
  2 24  1  0
  3 25  1  0
  3 26  1  0
  4 27  1  0
  4 28  1  0
  5 29  1  0
  6 30  1  0
  6 31  1  0
  8 32  1  0
 10 33  1  0
 11 34  1  0
 12 35  1  0
 13 36  1  0
 14 37  1  0
 15 38  1  0
 16 39  1  0
 16 40  1  0
 17 41  1  0
 18 42  1  0
 19 43  1  0
 20 44  1  0
 20 45  1  0
 20 46  1  0
M  END
>  <Energy>  (122) 
132.81537436647235

>  <compound_id>  (122) 
455

>  <target_id>  (122) 
1

>  <reference_id>  (122) 
54

>  <inspiration_ids>  (122) 
[54, 47]

>  <energy_score>  (122) 
-22.590101552645535

>  <distance_score>  (122) 
2.0018104327282584

>  <path>  (122) 
/opt/xchem-fragalysis-2/maxwin/BulkDock/SCRATCH/505733/C455-P54/C455-P54.minimised.mol

>  <scratch_subdir>  (122) 
/opt/xchem-fragalysis-2/maxwin/BulkDock/SCRATCH/505733/C455-P54

>  <fragmenstein_runtime>  (122) 
3.780179500579834

>  <fragmenstein_outcome>  (122) 
too moved

>  <fragmenstein_mode>  (122) 
expansion

>  <fragmenstein_error>  (122) 


$$$$
C455-P47
     RDKit          3D

 46 48  0  0  0  0  0  0  0  0999 V2000
   -9.3780  -25.3162   31.4860 C   0  0  0  0  0  0  0  0  0  0  0  0
   -9.7964  -25.6382   30.0467 C   0  0  0  0  0  0  0  0  0  0  0  0
   -9.6944  -27.1879   30.0013 C   0  0  0  0  0  0  0  0  0  0  0  0
  -10.8600  -27.8815   30.6303 C   0  0  0  0  0  0  0  0  0  0  0  0
  -12.0409  -27.4146   29.9636 N   0  0  0  0  0  0  0  0  0  0  0  0
  -12.2250  -25.9962   30.2252 C   0  0  0  0  0  0  0  0  0  0  0  0
  -11.2042  -25.0784   29.5700 C   0  0  0  0  0  0  0  0  0  0  0  0
  -11.5659  -23.5954   30.0598 C   0  0  0  0  0  0  0  0  0  0  0  0
  -12.3556  -23.3971   31.3196 C   0  0  0  0  0  0  0  0  0  0  0  0
  -13.7229  -23.1936   31.2460 C   0  0  0  0  0  0  0  0  0  0  0  0
  -14.5146  -23.1250   32.3631 C   0  0  0  0  0  0  0  0  0  0  0  0
  -13.9316  -23.3594   33.5736 C   0  0  0  0  0  0  0  0  0  0  0  0
  -12.5587  -23.4767   33.6759 C   0  0  0  0  0  0  0  0  0  0  0  0
  -11.7590  -23.4407   32.5628 C   0  0  0  0  0  0  0  0  0  0  0  0
  -12.1093  -22.6762   29.0489 N   0  0  0  0  0  0  0  0  0  0  0  0
  -11.2537  -22.5912   27.8960 C   0  0  0  0  0  0  0  0  0  0  0  0
  -11.0510  -23.9253   27.2014 C   0  0  0  0  0  0  0  0  0  0  0  0
  -11.7706  -23.9260   25.9594 O   0  0  0  0  0  0  0  0  0  0  0  0
  -11.4601  -25.1738   27.9880 C   0  0  0  0  0  0  0  0  0  0  0  0
  -10.8569  -26.3502   27.1981 C   0  0  0  0  0  0  0  0  0  0  0  0
   -9.2244  -24.2620   31.6476 H   0  0  0  0  0  0  0  0  0  0  0  0
   -8.4136  -25.7773   31.7201 H   0  0  0  0  0  0  0  0  0  0  0  0
  -10.0935  -25.6790   32.2279 H   0  0  0  0  0  0  0  0  0  0  0  0
   -9.0413  -25.2223   29.3753 H   0  0  0  0  0  0  0  0  0  0  0  0
   -9.5703  -27.5164   28.9764 H   0  0  0  0  0  0  0  0  0  0  0  0
   -8.8216  -27.5581   30.5438 H   0  0  0  0  0  0  0  0  0  0  0  0
  -10.9018  -27.6754   31.6987 H   0  0  0  0  0  0  0  0  0  0  0  0
  -10.7946  -28.9650   30.5588 H   0  0  0  0  0  0  0  0  0  0  0  0
  -12.0375  -27.6231   28.9786 H   0  0  0  0  0  0  0  0  0  0  0  0
  -13.1765  -25.6613   29.8319 H   0  0  0  0  0  0  0  0  0  0  0  0
  -12.2687  -25.8693   31.3097 H   0  0  0  0  0  0  0  0  0  0  0  0
  -10.6875  -23.1400   30.4266 H   0  0  0  0  0  0  0  0  0  0  0  0
  -14.2002  -23.2268   30.2853 H   0  0  0  0  0  0  0  0  0  0  0  0
  -15.5946  -23.0641   32.2685 H   0  0  0  0  0  0  0  0  0  0  0  0
  -14.5870  -23.5060   34.4212 H   0  0  0  0  0  0  0  0  0  0  0  0
  -12.1369  -23.6360   34.6490 H   0  0  0  0  0  0  0  0  0  0  0  0
  -10.6947  -23.5138   32.6920 H   0  0  0  0  0  0  0  0  0  0  0  0
  -12.1511  -21.7491   29.4711 H   0  0  0  0  0  0  0  0  0  0  0  0
  -10.2998  -22.1772   28.2169 H   0  0  0  0  0  0  0  0  0  0  0  0
  -11.6755  -21.8668   27.1964 H   0  0  0  0  0  0  0  0  0  0  0  0
   -9.9912  -24.0231   26.9499 H   0  0  0  0  0  0  0  0  0  0  0  0
  -12.6399  -23.5031   26.1074 H   0  0  0  0  0  0  0  0  0  0  0  0
  -12.5475  -25.2687   27.8425 H   0  0  0  0  0  0  0  0  0  0  0  0
  -11.0743  -26.2521   26.1273 H   0  0  0  0  0  0  0  0  0  0  0  0
  -11.2489  -27.3311   27.4440 H   0  0  0  0  0  0  0  0  0  0  0  0
   -9.7710  -26.3652   27.2919 H   0  0  0  0  0  0  0  0  0  0  0  0
  1  2  1  0
  2  3  1  0
  3  4  1  0
  4  5  1  0
  5  6  1  0
  6  7  1  0
  7  8  1  0
  8  9  1  0
  9 10  2  0
 10 11  1  0
 11 12  2  0
 12 13  1  0
 13 14  2  0
  8 15  1  0
 15 16  1  0
 16 17  1  0
 17 18  1  0
 17 19  1  0
 19 20  1  0
  7  2  1  0
 14  9  1  0
 19  7  1  0
  1 21  1  0
  1 22  1  0
  1 23  1  0
  2 24  1  0
  3 25  1  0
  3 26  1  0
  4 27  1  0
  4 28  1  0
  5 29  1  0
  6 30  1  0
  6 31  1  0
  8 32  1  0
 10 33  1  0
 11 34  1  0
 12 35  1  0
 13 36  1  0
 14 37  1  0
 15 38  1  0
 16 39  1  0
 16 40  1  0
 17 41  1  0
 18 42  1  0
 19 43  1  0
 20 44  1  0
 20 45  1  0
 20 46  1  0
M  END
>  <Energy>  (123) 
116.26851420884668

>  <compound_id>  (123) 
455

>  <target_id>  (123) 
1

>  <reference_id>  (123) 
47

>  <inspiration_ids>  (123) 
[54, 47]

>  <energy_score>  (123) 
-39.13696171027266

>  <distance_score>  (123) 
2.2457722965775906

>  <path>  (123) 
/opt/xchem-fragalysis-2/maxwin/BulkDock/SCRATCH/505733/C455-P47/C455-P47.minimised.mol

>  <scratch_subdir>  (123) 
/opt/xchem-fragalysis-2/maxwin/BulkDock/SCRATCH/505733/C455-P47

>  <fragmenstein_runtime>  (123) 
3.089324474334717

>  <fragmenstein_outcome>  (123) 
too moved

>  <fragmenstein_mode>  (123) 
expansion

>  <fragmenstein_error>  (123) 


$$$$
C458-P54
     RDKit          3D

 51 53  0  0  0  0  0  0  0  0999 V2000
  -12.0255  -23.1443   25.9546 C   0  0  0  0  0  0  0  0  0  0  0  0
  -12.6610  -24.2771   26.7753 C   0  0  0  0  0  0  0  0  0  0  0  0
  -12.7891  -25.5752   25.9902 C   0  0  0  0  0  0  0  0  0  0  0  0
  -13.5943  -26.6509   26.6858 C   0  0  0  0  0  0  0  0  0  0  0  0
  -12.9399  -27.8333   26.5001 F   0  0  0  0  0  0  0  0  0  0  0  0
  -13.7792  -26.4035   28.1617 C   0  0  0  0  0  0  0  0  0  0  0  0
  -12.4463  -25.9487   28.7618 C   0  0  0  0  0  0  0  0  0  0  0  0
  -12.5828  -26.0326   30.2240 N   0  0  0  0  0  0  0  0  0  0  0  0
  -12.1748  -27.2873   30.7760 C   0  0  0  0  0  0  0  0  0  0  0  0
  -13.1472  -28.2627   30.5399 O   0  0  0  0  0  0  0  0  0  0  0  0
  -12.1374  -27.0773   32.2006 N   0  0  0  0  0  0  0  0  0  0  0  0
  -11.9811  -28.3761   32.8496 O   0  0  0  0  0  0  0  0  0  0  0  0
  -11.9938  -24.5159   28.1661 C   0  0  0  0  0  0  0  0  0  0  0  0
  -12.4524  -23.3257   29.0112 C   0  0  0  0  0  0  0  0  0  0  0  0
  -11.7835  -23.3528   30.2786 N   0  0  0  0  0  0  0  0  0  0  0  0
  -10.3750  -23.0960   30.1557 C   0  0  0  0  0  0  0  0  0  0  0  0
   -9.8866  -22.8979   31.5726 C   0  0  0  0  0  0  0  0  0  0  0  0
  -10.3488  -21.7672   32.2770 C   0  0  0  0  0  0  0  0  0  0  0  0
  -10.1172  -21.6316   33.6347 C   0  0  0  0  0  0  0  0  0  0  0  0
   -9.3732  -22.5970   34.2965 C   0  0  0  0  0  0  0  0  0  0  0  0
   -8.8708  -23.6971   33.6126 C   0  0  0  0  0  0  0  0  0  0  0  0
   -9.1375  -23.8519   32.2608 C   0  0  0  0  0  0  0  0  0  0  0  0
   -9.8522  -24.2757   29.4783 N   0  0  0  0  0  0  0  0  0  0  0  0
  -10.4416  -24.4234   28.1414 C   0  0  0  0  0  0  0  0  0  0  0  0
  -11.9108  -22.2233   26.5285 H   0  0  0  0  0  0  0  0  0  0  0  0
  -12.6610  -22.8917   25.0985 H   0  0  0  0  0  0  0  0  0  0  0  0
  -11.0325  -23.4144   25.5835 H   0  0  0  0  0  0  0  0  0  0  0  0
  -13.6955  -23.9455   26.9521 H   0  0  0  0  0  0  0  0  0  0  0  0
  -13.3440  -25.3580   25.0732 H   0  0  0  0  0  0  0  0  0  0  0  0
  -11.7990  -25.9656   25.7294 H   0  0  0  0  0  0  0  0  0  0  0  0
  -14.5750  -26.7647   26.2109 H   0  0  0  0  0  0  0  0  0  0  0  0
  -14.1417  -27.3349   28.6037 H   0  0  0  0  0  0  0  0  0  0  0  0
  -14.5542  -25.6469   28.3372 H   0  0  0  0  0  0  0  0  0  0  0  0
  -11.6749  -26.6630   28.4394 H   0  0  0  0  0  0  0  0  0  0  0  0
  -12.0332  -25.2727   30.6391 H   0  0  0  0  0  0  0  0  0  0  0  0
  -11.2094  -27.6353   30.3996 H   0  0  0  0  0  0  0  0  0  0  0  0
  -13.9444  -27.8049   30.8577 H   0  0  0  0  0  0  0  0  0  0  0  0
  -11.2534  -26.6227   32.4256 H   0  0  0  0  0  0  0  0  0  0  0  0
  -12.3859  -29.0197   32.2217 H   0  0  0  0  0  0  0  0  0  0  0  0
  -12.2606  -22.3566   28.5431 H   0  0  0  0  0  0  0  0  0  0  0  0
  -13.5295  -23.3995   29.1615 H   0  0  0  0  0  0  0  0  0  0  0  0
  -12.2168  -22.6794   30.9133 H   0  0  0  0  0  0  0  0  0  0  0  0
  -10.1496  -22.1858   29.5857 H   0  0  0  0  0  0  0  0  0  0  0  0
  -10.9468  -21.0073   31.7772 H   0  0  0  0  0  0  0  0  0  0  0  0
  -10.5393  -20.7889   34.1761 H   0  0  0  0  0  0  0  0  0  0  0  0
   -9.2103  -22.4868   35.3571 H   0  0  0  0  0  0  0  0  0  0  0  0
   -8.2898  -24.4555   34.1215 H   0  0  0  0  0  0  0  0  0  0  0  0
   -8.7650  -24.7360   31.7600 H   0  0  0  0  0  0  0  0  0  0  0  0
  -10.1292  -25.0650   30.0487 H   0  0  0  0  0  0  0  0  0  0  0  0
  -10.0937  -23.5710   27.5493 H   0  0  0  0  0  0  0  0  0  0  0  0
  -10.0176  -25.3120   27.6598 H   0  0  0  0  0  0  0  0  0  0  0  0
  1  2  1  0
  2  3  1  0
  3  4  1  0
  4  5  1  0
  4  6  1  0
  6  7  1  0
  7  8  1  0
  8  9  1  0
  9 10  1  0
  9 11  1  0
 11 12  1  0
  7 13  1  0
 13 14  1  0
 14 15  1  0
 15 16  1  0
 16 17  1  0
 17 18  2  0
 18 19  1  0
 19 20  2  0
 20 21  1  0
 21 22  2  0
 16 23  1  0
 23 24  1  0
 13  2  1  0
 22 17  1  0
 24 13  1  0
  1 25  1  0
  1 26  1  0
  1 27  1  0
  2 28  1  0
  3 29  1  0
  3 30  1  0
  4 31  1  0
  6 32  1  0
  6 33  1  0
  7 34  1  0
  8 35  1  0
  9 36  1  0
 10 37  1  0
 11 38  1  0
 12 39  1  0
 14 40  1  0
 14 41  1  0
 15 42  1  0
 16 43  1  0
 18 44  1  0
 19 45  1  0
 20 46  1  0
 21 47  1  0
 22 48  1  0
 23 49  1  0
 24 50  1  0
 24 51  1  0
M  END
>  <Energy>  (124) 
-94.34689004956644

>  <compound_id>  (124) 
458

>  <target_id>  (124) 
1

>  <reference_id>  (124) 
54

>  <inspiration_ids>  (124) 
[54, 64]

>  <energy_score>  (124) 
-84.93589614238356

>  <distance_score>  (124) 
1.2371042347593249

>  <path>  (124) 
/opt/xchem-fragalysis-2/maxwin/BulkDock/SCRATCH/505733/C458-P54/C458-P54.minimised.mol

>  <scratch_subdir>  (124) 
/opt/xchem-fragalysis-2/maxwin/BulkDock/SCRATCH/505733/C458-P54

>  <fragmenstein_runtime>  (124) 
5.7656309604644775

>  <fragmenstein_outcome>  (124) 
too moved

>  <fragmenstein_mode>  (124) 
expansion

>  <fragmenstein_error>  (124) 


$$$$
C458-P64
     RDKit          3D

 51 53  0  0  0  0  0  0  0  0999 V2000
  -13.6833  -23.0474   23.8982 C   0  0  0  0  0  0  0  0  0  0  0  0
  -13.9326  -24.1575   24.9231 C   0  0  0  0  0  0  0  0  0  0  0  0
  -15.0356  -25.1602   24.5539 C   0  0  0  0  0  0  0  0  0  0  0  0
  -15.3447  -26.1432   25.6606 C   0  0  0  0  0  0  0  0  0  0  0  0
  -16.6641  -26.4603   25.6101 F   0  0  0  0  0  0  0  0  0  0  0  0
  -15.0082  -25.5266   26.9766 C   0  0  0  0  0  0  0  0  0  0  0  0
  -13.4703  -25.1339   27.0670 C   0  0  0  0  0  0  0  0  0  0  0  0
  -13.0862  -24.4404   28.3012 N   0  0  0  0  0  0  0  0  0  0  0  0
  -12.6047  -23.1462   28.5810 C   0  0  0  0  0  0  0  0  0  0  0  0
  -13.1325  -22.8533   29.8392 O   0  0  0  0  0  0  0  0  0  0  0  0
  -11.2453  -22.8129   28.6901 N   0  0  0  0  0  0  0  0  0  0  0  0
  -11.2052  -21.4449   29.2061 O   0  0  0  0  0  0  0  0  0  0  0  0
  -12.7807  -24.8338   25.7382 C   0  0  0  0  0  0  0  0  0  0  0  0
  -11.5479  -23.9808   25.7769 C   0  0  0  0  0  0  0  0  0  0  0  0
  -10.4467  -24.4709   26.5784 N   0  0  0  0  0  0  0  0  0  0  0  0
  -10.4327  -25.8191   27.1100 C   0  0  0  0  0  0  0  0  0  0  0  0
  -10.2179  -25.8718   28.6015 C   0  0  0  0  0  0  0  0  0  0  0  0
   -9.6549  -24.8668   29.3315 C   0  0  0  0  0  0  0  0  0  0  0  0
   -9.7844  -24.8148   30.7229 C   0  0  0  0  0  0  0  0  0  0  0  0
   -9.8978  -25.9654   31.3838 C   0  0  0  0  0  0  0  0  0  0  0  0
   -9.7993  -27.0879   30.6245 C   0  0  0  0  0  0  0  0  0  0  0  0
  -10.3012  -27.0051   29.3244 C   0  0  0  0  0  0  0  0  0  0  0  0
  -11.3503  -26.7378   26.4464 N   0  0  0  0  0  0  0  0  0  0  0  0
  -12.1185  -26.1719   25.3275 C   0  0  0  0  0  0  0  0  0  0  0  0
  -13.7914  -23.3796   22.8750 H   0  0  0  0  0  0  0  0  0  0  0  0
  -12.7176  -22.5497   24.0002 H   0  0  0  0  0  0  0  0  0  0  0  0
  -14.4430  -22.2661   24.0271 H   0  0  0  0  0  0  0  0  0  0  0  0
  -14.4270  -23.5209   25.6569 H   0  0  0  0  0  0  0  0  0  0  0  0
  -15.9617  -24.6047   24.3648 H   0  0  0  0  0  0  0  0  0  0  0  0
  -14.7855  -25.7250   23.6564 H   0  0  0  0  0  0  0  0  0  0  0  0
  -14.8049  -27.0714   25.5831 H   0  0  0  0  0  0  0  0  0  0  0  0
  -15.2846  -26.2377   27.7650 H   0  0  0  0  0  0  0  0  0  0  0  0
  -15.6969  -24.6928   27.0671 H   0  0  0  0  0  0  0  0  0  0  0  0
  -13.1663  -26.1519   27.3004 H   0  0  0  0  0  0  0  0  0  0  0  0
  -13.9894  -24.3459   28.7652 H   0  0  0  0  0  0  0  0  0  0  0  0
  -12.9444  -22.5006   27.8348 H   0  0  0  0  0  0  0  0  0  0  0  0
  -12.6541  -23.4386   30.4664 H   0  0  0  0  0  0  0  0  0  0  0  0
  -11.0219  -23.2857   29.5533 H   0  0  0  0  0  0  0  0  0  0  0  0
  -10.8835  -20.9310   28.4334 H   0  0  0  0  0  0  0  0  0  0  0  0
  -11.1494  -23.8747   24.7609 H   0  0  0  0  0  0  0  0  0  0  0  0
  -11.8054  -22.9701   26.0804 H   0  0  0  0  0  0  0  0  0  0  0  0
  -10.4604  -23.8306   27.3736 H   0  0  0  0  0  0  0  0  0  0  0  0
   -9.4865  -26.2806   26.8761 H   0  0  0  0  0  0  0  0  0  0  0  0
   -9.2616  -24.0464   28.7575 H   0  0  0  0  0  0  0  0  0  0  0  0
   -9.7321  -23.9461   31.3575 H   0  0  0  0  0  0  0  0  0  0  0  0
  -10.0206  -25.9447   32.4513 H   0  0  0  0  0  0  0  0  0  0  0  0
   -9.6157  -28.0297   31.1255 H   0  0  0  0  0  0  0  0  0  0  0  0
  -10.7805  -27.8083   28.8190 H   0  0  0  0  0  0  0  0  0  0  0  0
  -10.8416  -27.5460   26.1025 H   0  0  0  0  0  0  0  0  0  0  0  0
  -11.4157  -26.0604   24.5115 H   0  0  0  0  0  0  0  0  0  0  0  0
  -12.8504  -26.8902   24.9818 H   0  0  0  0  0  0  0  0  0  0  0  0
  1  2  1  0
  2  3  1  0
  3  4  1  0
  4  5  1  0
  4  6  1  0
  6  7  1  0
  7  8  1  0
  8  9  1  0
  9 10  1  0
  9 11  1  0
 11 12  1  0
  7 13  1  0
 13 14  1  0
 14 15  1  0
 15 16  1  0
 16 17  1  0
 17 18  2  0
 18 19  1  0
 19 20  2  0
 20 21  1  0
 21 22  2  0
 16 23  1  0
 23 24  1  0
 13  2  1  0
 22 17  1  0
 24 13  1  0
  1 25  1  0
  1 26  1  0
  1 27  1  0
  2 28  1  0
  3 29  1  0
  3 30  1  0
  4 31  1  0
  6 32  1  0
  6 33  1  0
  7 34  1  0
  8 35  1  0
  9 36  1  0
 10 37  1  0
 11 38  1  0
 12 39  1  0
 14 40  1  0
 14 41  1  0
 15 42  1  0
 16 43  1  0
 18 44  1  0
 19 45  1  0
 20 46  1  0
 21 47  1  0
 22 48  1  0
 23 49  1  0
 24 50  1  0
 24 51  1  0
M  END
>  <Energy>  (125) 
46.476492079433889

>  <compound_id>  (125) 
458

>  <target_id>  (125) 
1

>  <reference_id>  (125) 
64

>  <inspiration_ids>  (125) 
[54, 64]

>  <energy_score>  (125) 
64.416421048288

>  <distance_score>  (125) 
3.828253836562088

>  <path>  (125) 
/opt/xchem-fragalysis-2/maxwin/BulkDock/SCRATCH/505733/C458-P64/C458-P64.minimised.mol

>  <scratch_subdir>  (125) 
/opt/xchem-fragalysis-2/maxwin/BulkDock/SCRATCH/505733/C458-P64

>  <fragmenstein_runtime>  (125) 
9.990090370178223

>  <fragmenstein_outcome>  (125) 
too moved

>  <fragmenstein_mode>  (125) 
expansion

>  <fragmenstein_error>  (125) 


$$$$
C459-P54
     RDKit          3D

 36 38  0  0  0  0  0  0  0  0999 V2000
  -12.4373  -22.9552   25.7920 O   0  0  0  0  0  0  0  0  0  0  0  0
  -11.6557  -23.2971   26.9275 C   0  0  0  0  0  0  0  0  0  0  0  0
  -11.1461  -22.0627   27.6917 C   0  0  0  0  0  0  0  0  0  0  0  0
  -11.3589  -22.1173   29.1314 N   0  0  0  0  0  0  0  0  0  0  0  0
  -10.8537  -23.4021   29.6587 C   0  0  0  0  0  0  0  0  0  0  0  0
  -10.4787  -23.2513   31.1339 C   0  0  0  0  0  0  0  0  0  0  0  0
  -10.9305  -22.1818   31.9287 C   0  0  0  0  0  0  0  0  0  0  0  0
  -10.4196  -21.9491   33.2117 C   0  0  0  0  0  0  0  0  0  0  0  0
   -9.4397  -22.7833   33.7334 C   0  0  0  0  0  0  0  0  0  0  0  0
   -8.9767  -23.8500   32.9744 C   0  0  0  0  0  0  0  0  0  0  0  0
   -9.4887  -24.0716   31.6898 C   0  0  0  0  0  0  0  0  0  0  0  0
  -11.7473  -24.6212   29.0922 C   0  0  0  0  0  0  0  0  0  0  0  0
  -10.8620  -25.8121   28.7196 C   0  0  0  0  0  0  0  0  0  0  0  0
  -11.1236  -26.7733   29.7967 N   0  0  0  0  0  0  0  0  0  0  0  0
  -12.5457  -26.6788   29.9564 C   0  0  0  0  0  0  0  0  0  0  0  0
  -12.7308  -25.2503   30.0093 N   0  0  0  0  0  0  0  0  0  0  0  0
  -12.5041  -24.1976   27.8143 C   0  0  0  0  0  0  0  0  0  0  0  0
  -12.7494  -22.0271   25.8676 H   0  0  0  0  0  0  0  0  0  0  0  0
  -10.7961  -23.8679   26.5572 H   0  0  0  0  0  0  0  0  0  0  0  0
  -10.0673  -21.9920   27.5271 H   0  0  0  0  0  0  0  0  0  0  0  0
  -11.5577  -21.1300   27.3083 H   0  0  0  0  0  0  0  0  0  0  0  0
  -12.3413  -22.0377   29.3785 H   0  0  0  0  0  0  0  0  0  0  0  0
   -9.8609  -23.5078   29.1934 H   0  0  0  0  0  0  0  0  0  0  0  0
  -11.6770  -21.4847   31.5553 H   0  0  0  0  0  0  0  0  0  0  0  0
  -10.7932  -21.1098   33.7944 H   0  0  0  0  0  0  0  0  0  0  0  0
   -9.0322  -22.5881   34.7179 H   0  0  0  0  0  0  0  0  0  0  0  0
   -8.1816  -24.4865   33.3546 H   0  0  0  0  0  0  0  0  0  0  0  0
   -9.0440  -24.8545   31.0905 H   0  0  0  0  0  0  0  0  0  0  0  0
  -11.1398  -26.2862   27.7691 H   0  0  0  0  0  0  0  0  0  0  0  0
   -9.8205  -25.5115   28.6088 H   0  0  0  0  0  0  0  0  0  0  0  0
  -10.7565  -26.3654   30.6563 H   0  0  0  0  0  0  0  0  0  0  0  0
  -12.8850  -27.1588   30.8790 H   0  0  0  0  0  0  0  0  0  0  0  0
  -13.0810  -27.1358   29.1153 H   0  0  0  0  0  0  0  0  0  0  0  0
  -13.6788  -25.0490   29.6993 H   0  0  0  0  0  0  0  0  0  0  0  0
  -12.8559  -25.0630   27.2351 H   0  0  0  0  0  0  0  0  0  0  0  0
  -13.4282  -23.6742   28.0802 H   0  0  0  0  0  0  0  0  0  0  0  0
  1  2  1  0
  2  3  1  0
  3  4  1  0
  4  5  1  0
  5  6  1  0
  6  7  2  0
  7  8  1  0
  8  9  2  0
  9 10  1  0
 10 11  2  0
  5 12  1  0
 12 13  1  0
 13 14  1  0
 14 15  1  0
 15 16  1  0
 12 17  1  0
 17  2  1  0
 11  6  1  0
 16 12  1  0
  1 18  1  0
  2 19  1  0
  3 20  1  0
  3 21  1  0
  4 22  1  0
  5 23  1  0
  7 24  1  0
  8 25  1  0
  9 26  1  0
 10 27  1  0
 11 28  1  0
 13 29  1  0
 13 30  1  0
 14 31  1  0
 15 32  1  0
 15 33  1  0
 16 34  1  0
 17 35  1  0
 17 36  1  0
M  END
>  <Energy>  (126) 
83.913536393293597

>  <compound_id>  (126) 
459

>  <target_id>  (126) 
1

>  <reference_id>  (126) 
54

>  <inspiration_ids>  (126) 
[54, 75]

>  <energy_score>  (126) 
-19.095378265433965

>  <distance_score>  (126) 
1.264705131564756

>  <path>  (126) 
/opt/xchem-fragalysis-2/maxwin/BulkDock/SCRATCH/505733/C459-P54/C459-P54.minimised.mol

>  <scratch_subdir>  (126) 
/opt/xchem-fragalysis-2/maxwin/BulkDock/SCRATCH/505733/C459-P54

>  <fragmenstein_runtime>  (126) 
4.755155801773071

>  <fragmenstein_outcome>  (126) 
too moved

>  <fragmenstein_mode>  (126) 
expansion

>  <fragmenstein_error>  (126) 


$$$$
C459-P75
     RDKit          3D

 36 38  0  0  0  0  0  0  0  0999 V2000
  -12.9182  -24.1454   25.6821 O   0  0  0  0  0  0  0  0  0  0  0  0
  -11.8388  -24.2083   26.5965 C   0  0  0  0  0  0  0  0  0  0  0  0
  -11.7162  -22.9845   27.4958 C   0  0  0  0  0  0  0  0  0  0  0  0
  -10.6000  -23.0191   28.4109 N   0  0  0  0  0  0  0  0  0  0  0  0
  -10.5989  -24.1916   29.2877 C   0  0  0  0  0  0  0  0  0  0  0  0
  -11.0909  -23.8954   30.7062 C   0  0  0  0  0  0  0  0  0  0  0  0
  -11.9163  -22.8016   31.0283 C   0  0  0  0  0  0  0  0  0  0  0  0
  -12.3515  -22.5958   32.3334 C   0  0  0  0  0  0  0  0  0  0  0  0
  -12.0016  -23.5079   33.3143 C   0  0  0  0  0  0  0  0  0  0  0  0
  -11.1154  -24.5404   33.0411 C   0  0  0  0  0  0  0  0  0  0  0  0
  -10.6060  -24.6812   31.7666 C   0  0  0  0  0  0  0  0  0  0  0  0
  -10.8628  -25.4965   28.4770 C   0  0  0  0  0  0  0  0  0  0  0  0
   -9.5878  -25.7989   27.6785 C   0  0  0  0  0  0  0  0  0  0  0  0
   -9.2230  -27.1476   28.0681 N   0  0  0  0  0  0  0  0  0  0  0  0
   -9.6623  -27.2015   29.4275 C   0  0  0  0  0  0  0  0  0  0  0  0
  -10.9778  -26.7283   29.2415 N   0  0  0  0  0  0  0  0  0  0  0  0
  -12.0278  -25.4036   27.5032 C   0  0  0  0  0  0  0  0  0  0  0  0
  -13.7331  -24.4092   26.1391 H   0  0  0  0  0  0  0  0  0  0  0  0
  -10.9460  -24.2916   25.9738 H   0  0  0  0  0  0  0  0  0  0  0  0
  -11.5380  -22.1105   26.8842 H   0  0  0  0  0  0  0  0  0  0  0  0
  -12.6434  -22.8431   28.0554 H   0  0  0  0  0  0  0  0  0  0  0  0
  -10.5651  -22.1457   28.9272 H   0  0  0  0  0  0  0  0  0  0  0  0
   -9.5456  -24.3625   29.5173 H   0  0  0  0  0  0  0  0  0  0  0  0
  -12.2724  -22.1291   30.2580 H   0  0  0  0  0  0  0  0  0  0  0  0
  -13.0259  -21.7826   32.5737 H   0  0  0  0  0  0  0  0  0  0  0  0
  -12.4152  -23.4172   34.3092 H   0  0  0  0  0  0  0  0  0  0  0  0
  -10.8311  -25.2406   33.8215 H   0  0  0  0  0  0  0  0  0  0  0  0
   -9.8704  -25.4609   31.6148 H   0  0  0  0  0  0  0  0  0  0  0  0
   -9.7557  -25.7731   26.6100 H   0  0  0  0  0  0  0  0  0  0  0  0
   -8.7515  -25.1354   27.9082 H   0  0  0  0  0  0  0  0  0  0  0  0
   -9.8515  -27.7742   27.5723 H   0  0  0  0  0  0  0  0  0  0  0  0
   -9.6110  -28.1849   29.8707 H   0  0  0  0  0  0  0  0  0  0  0  0
   -9.1226  -26.5439   30.1099 H   0  0  0  0  0  0  0  0  0  0  0  0
  -11.3421  -26.5027   30.1630 H   0  0  0  0  0  0  0  0  0  0  0  0
  -12.1394  -26.3150   26.8999 H   0  0  0  0  0  0  0  0  0  0  0  0
  -12.9757  -25.2701   28.0253 H   0  0  0  0  0  0  0  0  0  0  0  0
  1  2  1  0
  2  3  1  0
  3  4  1  0
  4  5  1  0
  5  6  1  0
  6  7  2  0
  7  8  1  0
  8  9  2  0
  9 10  1  0
 10 11  2  0
  5 12  1  0
 12 13  1  0
 13 14  1  0
 14 15  1  0
 15 16  1  0
 12 17  1  0
 17  2  1  0
 11  6  1  0
 16 12  1  0
  1 18  1  0
  2 19  1  0
  3 20  1  0
  3 21  1  0
  4 22  1  0
  5 23  1  0
  7 24  1  0
  8 25  1  0
  9 26  1  0
 10 27  1  0
 11 28  1  0
 13 29  1  0
 13 30  1  0
 14 31  1  0
 15 32  1  0
 15 33  1  0
 16 34  1  0
 17 35  1  0
 17 36  1  0
M  END
>  <Energy>  (127) 
85.219524419008039

>  <compound_id>  (127) 
459

>  <target_id>  (127) 
1

>  <reference_id>  (127) 
75

>  <inspiration_ids>  (127) 
[54, 75]

>  <energy_score>  (127) 
-17.78939023971961

>  <distance_score>  (127) 
1.8200496291129262

>  <path>  (127) 
/opt/xchem-fragalysis-2/maxwin/BulkDock/SCRATCH/505733/C459-P75/C459-P75.minimised.mol

>  <scratch_subdir>  (127) 
/opt/xchem-fragalysis-2/maxwin/BulkDock/SCRATCH/505733/C459-P75

>  <fragmenstein_runtime>  (127) 
5.086137533187866

>  <fragmenstein_outcome>  (127) 
too moved

>  <fragmenstein_mode>  (127) 
expansion

>  <fragmenstein_error>  (127) 


$$$$
C463-P54
     RDKit          3D

 46 48  0  0  0  0  0  0  0  0999 V2000
  -14.2614  -25.8366   26.0163 C   0  0  0  0  0  0  0  0  0  0  0  0
  -13.8476  -24.5358   26.6798 C   0  0  0  0  0  0  0  0  0  0  0  0
  -13.5502  -23.4168   25.6924 C   0  0  0  0  0  0  0  0  0  0  0  0
  -12.2844  -22.5448   25.8701 C   0  0  0  0  0  0  0  0  0  0  0  0
  -11.6384  -22.2227   24.9537 O   0  0  0  0  0  0  0  0  0  0  0  0
  -12.1678  -22.1585   27.3661 N   0  0  0  0  0  0  0  0  0  0  0  0
  -11.2781  -21.2078   28.0363 C   0  0  0  0  0  0  0  0  0  0  0  0
  -11.5112  -21.2596   29.5144 C   0  0  0  0  0  0  0  0  0  0  0  0
  -11.1981  -20.4387   30.5085 N   0  0  0  0  0  0  0  0  0  0  0  0
  -10.8364  -21.2948   31.5535 C   0  0  0  0  0  0  0  0  0  0  0  0
  -10.1820  -21.1003   32.7737 C   0  0  0  0  0  0  0  0  0  0  0  0
   -9.6061  -22.2208   33.3867 C   0  0  0  0  0  0  0  0  0  0  0  0
   -9.7051  -23.4925   32.8041 C   0  0  0  0  0  0  0  0  0  0  0  0
  -10.4773  -23.7232   31.6542 C   0  0  0  0  0  0  0  0  0  0  0  0
  -10.6855  -25.0483   30.9750 C   0  0  0  0  0  0  0  0  0  0  0  0
  -12.0646  -25.5075   31.1588 N   0  0  0  0  0  0  0  0  0  0  0  0
  -10.4293  -25.1083   29.4812 C   0  0  0  0  0  0  0  0  0  0  0  0
  -11.0053  -26.1314   28.6840 C   0  0  0  0  0  0  0  0  0  0  0  0
  -10.9516  -26.0830   27.3044 C   0  0  0  0  0  0  0  0  0  0  0  0
  -10.4054  -24.9671   26.7185 C   0  0  0  0  0  0  0  0  0  0  0  0
   -9.7753  -24.0076   27.4921 C   0  0  0  0  0  0  0  0  0  0  0  0
   -9.6750  -24.1295   28.8557 C   0  0  0  0  0  0  0  0  0  0  0  0
  -11.0543  -22.5833   31.1454 C   0  0  0  0  0  0  0  0  0  0  0  0
  -11.8838  -22.4439   30.0745 N   0  0  0  0  0  0  0  0  0  0  0  0
  -13.4384  -26.2596   25.4401 H   0  0  0  0  0  0  0  0  0  0  0  0
  -15.1152  -25.6867   25.3487 H   0  0  0  0  0  0  0  0  0  0  0  0
  -14.5507  -26.5720   26.7739 H   0  0  0  0  0  0  0  0  0  0  0  0
  -13.0337  -24.7074   27.3744 H   0  0  0  0  0  0  0  0  0  0  0  0
  -14.6872  -24.2157   27.3102 H   0  0  0  0  0  0  0  0  0  0  0  0
  -14.3943  -22.7153   25.7016 H   0  0  0  0  0  0  0  0  0  0  0  0
  -13.5535  -23.8009   24.6714 H   0  0  0  0  0  0  0  0  0  0  0  0
  -12.8326  -22.6772   27.8965 H   0  0  0  0  0  0  0  0  0  0  0  0
  -10.2437  -21.4442   27.8189 H   0  0  0  0  0  0  0  0  0  0  0  0
  -11.4664  -20.2157   27.6501 H   0  0  0  0  0  0  0  0  0  0  0  0
  -10.0308  -20.1001   33.1519 H   0  0  0  0  0  0  0  0  0  0  0  0
   -9.0246  -22.0916   34.2939 H   0  0  0  0  0  0  0  0  0  0  0  0
   -9.1875  -24.3229   33.2789 H   0  0  0  0  0  0  0  0  0  0  0  0
  -10.0342  -25.7319   31.4904 H   0  0  0  0  0  0  0  0  0  0  0  0
  -12.0616  -26.5264   31.1522 H   0  0  0  0  0  0  0  0  0  0  0  0
  -12.6024  -25.2228   30.3422 H   0  0  0  0  0  0  0  0  0  0  0  0
  -11.5005  -26.9874   29.1366 H   0  0  0  0  0  0  0  0  0  0  0  0
  -11.3836  -26.8742   26.7012 H   0  0  0  0  0  0  0  0  0  0  0  0
  -10.4302  -24.8328   25.6481 H   0  0  0  0  0  0  0  0  0  0  0  0
   -9.3646  -23.1275   27.0103 H   0  0  0  0  0  0  0  0  0  0  0  0
   -9.1215  -23.3744   29.4091 H   0  0  0  0  0  0  0  0  0  0  0  0
  -12.1835  -23.2414   29.5479 H   0  0  0  0  0  0  0  0  0  0  0  0
  1  2  1  0
  2  3  1  0
  3  4  1  0
  4  5  2  0
  4  6  1  0
  6  7  1  0
  7  8  1  0
  8  9  2  0
  9 10  1  0
 10 11  2  0
 11 12  1  0
 12 13  2  0
 13 14  1  0
 14 15  1  0
 15 16  1  0
 15 17  1  0
 17 18  2  0
 18 19  1  0
 19 20  2  0
 20 21  1  0
 21 22  2  0
 14 23  2  0
 23 24  1  0
 24  8  1  0
 23 10  1  0
 22 17  1  0
  1 25  1  0
  1 26  1  0
  1 27  1  0
  2 28  1  0
  2 29  1  0
  3 30  1  0
  3 31  1  0
  6 32  1  0
  7 33  1  0
  7 34  1  0
 11 35  1  0
 12 36  1  0
 13 37  1  0
 15 38  1  0
 16 39  1  0
 16 40  1  0
 18 41  1  0
 19 42  1  0
 20 43  1  0
 21 44  1  0
 22 45  1  0
 24 46  1  0
M  END
>  <Energy>  (128) 
69.975527046740154

>  <compound_id>  (128) 
463

>  <target_id>  (128) 
1

>  <reference_id>  (128) 
54

>  <inspiration_ids>  (128) 
[54, 104]

>  <energy_score>  (128) 
45.548839973509644

>  <distance_score>  (128) 
2.5206947416903502

>  <path>  (128) 
/opt/xchem-fragalysis-2/maxwin/BulkDock/SCRATCH/505733/C463-P54/C463-P54.minimised.mol

>  <scratch_subdir>  (128) 
/opt/xchem-fragalysis-2/maxwin/BulkDock/SCRATCH/505733/C463-P54

>  <fragmenstein_runtime>  (128) 
45.061036825180054

>  <fragmenstein_outcome>  (128) 
too moved

>  <fragmenstein_mode>  (128) 
expansion

>  <fragmenstein_error>  (128) 


$$$$
C463-P104
     RDKit          3D

 46 48  0  0  0  0  0  0  0  0999 V2000
  -17.6131  -25.7689   24.4632 C   0  0  0  0  0  0  0  0  0  0  0  0
  -16.1931  -25.5754   24.9707 C   0  0  0  0  0  0  0  0  0  0  0  0
  -15.9345  -24.1240   25.3798 C   0  0  0  0  0  0  0  0  0  0  0  0
  -14.5270  -23.9770   25.9493 C   0  0  0  0  0  0  0  0  0  0  0  0
  -14.0461  -24.8960   26.5472 O   0  0  0  0  0  0  0  0  0  0  0  0
  -14.0167  -22.6636   25.6832 N   0  0  0  0  0  0  0  0  0  0  0  0
  -12.7328  -22.0708   25.9679 C   0  0  0  0  0  0  0  0  0  0  0  0
  -12.2495  -22.2966   27.3623 C   0  0  0  0  0  0  0  0  0  0  0  0
  -12.0827  -21.5206   28.4219 N   0  0  0  0  0  0  0  0  0  0  0  0
  -11.5259  -22.3359   29.4151 C   0  0  0  0  0  0  0  0  0  0  0  0
  -11.3633  -22.1816   30.8105 C   0  0  0  0  0  0  0  0  0  0  0  0
  -10.8256  -23.2405   31.5642 C   0  0  0  0  0  0  0  0  0  0  0  0
  -10.3007  -24.3740   30.9128 C   0  0  0  0  0  0  0  0  0  0  0  0
  -10.4216  -24.5673   29.4858 C   0  0  0  0  0  0  0  0  0  0  0  0
   -9.8166  -25.7621   28.7659 C   0  0  0  0  0  0  0  0  0  0  0  0
   -9.6749  -26.8411   29.7115 N   0  0  0  0  0  0  0  0  0  0  0  0
  -10.5077  -26.2109   27.4808 C   0  0  0  0  0  0  0  0  0  0  0  0
  -11.2519  -27.3909   27.3635 C   0  0  0  0  0  0  0  0  0  0  0  0
  -12.0767  -27.6517   26.2713 C   0  0  0  0  0  0  0  0  0  0  0  0
  -12.2079  -26.6937   25.2896 C   0  0  0  0  0  0  0  0  0  0  0  0
  -11.4241  -25.5467   25.3528 C   0  0  0  0  0  0  0  0  0  0  0  0
  -10.4972  -25.3668   26.3738 C   0  0  0  0  0  0  0  0  0  0  0  0
  -11.1530  -23.5431   28.8511 C   0  0  0  0  0  0  0  0  0  0  0  0
  -11.9139  -23.5551   27.7222 N   0  0  0  0  0  0  0  0  0  0  0  0
  -18.3420  -25.5335   25.2453 H   0  0  0  0  0  0  0  0  0  0  0  0
  -17.7672  -26.8086   24.1577 H   0  0  0  0  0  0  0  0  0  0  0  0
  -17.8190  -25.1281   23.6008 H   0  0  0  0  0  0  0  0  0  0  0  0
  -15.4817  -25.8740   24.1913 H   0  0  0  0  0  0  0  0  0  0  0  0
  -16.0317  -26.2493   25.8205 H   0  0  0  0  0  0  0  0  0  0  0  0
  -16.6409  -23.8169   26.1594 H   0  0  0  0  0  0  0  0  0  0  0  0
  -16.0770  -23.4634   24.5204 H   0  0  0  0  0  0  0  0  0  0  0  0
  -14.7352  -22.1171   25.2152 H   0  0  0  0  0  0  0  0  0  0  0  0
  -12.0554  -22.5587   25.2691 H   0  0  0  0  0  0  0  0  0  0  0  0
  -12.7827  -21.0229   25.6991 H   0  0  0  0  0  0  0  0  0  0  0  0
  -11.7168  -21.3033   31.3207 H   0  0  0  0  0  0  0  0  0  0  0  0
  -10.7609  -23.1620   32.6416 H   0  0  0  0  0  0  0  0  0  0  0  0
   -9.7876  -25.1222   31.5175 H   0  0  0  0  0  0  0  0  0  0  0  0
   -8.8104  -25.4490   28.4654 H   0  0  0  0  0  0  0  0  0  0  0  0
  -10.5418  -26.9257   30.2284 H   0  0  0  0  0  0  0  0  0  0  0  0
   -9.4592  -27.7202   29.2591 H   0  0  0  0  0  0  0  0  0  0  0  0
  -11.2577  -28.1099   28.1708 H   0  0  0  0  0  0  0  0  0  0  0  0
  -12.6552  -28.5705   26.2164 H   0  0  0  0  0  0  0  0  0  0  0  0
  -12.9133  -26.8468   24.4771 H   0  0  0  0  0  0  0  0  0  0  0  0
  -11.5313  -24.7656   24.6101 H   0  0  0  0  0  0  0  0  0  0  0  0
   -9.8931  -24.4638   26.3817 H   0  0  0  0  0  0  0  0  0  0  0  0
  -12.2779  -24.3789   27.2656 H   0  0  0  0  0  0  0  0  0  0  0  0
  1  2  1  0
  2  3  1  0
  3  4  1  0
  4  5  2  0
  4  6  1  0
  6  7  1  0
  7  8  1  0
  8  9  2  0
  9 10  1  0
 10 11  2  0
 11 12  1  0
 12 13  2  0
 13 14  1  0
 14 15  1  0
 15 16  1  0
 15 17  1  0
 17 18  2  0
 18 19  1  0
 19 20  2  0
 20 21  1  0
 21 22  2  0
 14 23  2  0
 23 24  1  0
 24  8  1  0
 23 10  1  0
 22 17  1  0
  1 25  1  0
  1 26  1  0
  1 27  1  0
  2 28  1  0
  2 29  1  0
  3 30  1  0
  3 31  1  0
  6 32  1  0
  7 33  1  0
  7 34  1  0
 11 35  1  0
 12 36  1  0
 13 37  1  0
 15 38  1  0
 16 39  1  0
 16 40  1  0
 18 41  1  0
 19 42  1  0
 20 43  1  0
 21 44  1  0
 22 45  1  0
 24 46  1  0
M  END
>  <Energy>  (129) 
43.951394661015492

>  <compound_id>  (129) 
463

>  <target_id>  (129) 
1

>  <reference_id>  (129) 
104

>  <inspiration_ids>  (129) 
[54, 104]

>  <energy_score>  (129) 
6.999691296196829

>  <distance_score>  (129) 
4.014128182122191

>  <path>  (129) 
/opt/xchem-fragalysis-2/maxwin/BulkDock/SCRATCH/505733/C463-P104/C463-P104.minimised.mol

>  <scratch_subdir>  (129) 
/opt/xchem-fragalysis-2/maxwin/BulkDock/SCRATCH/505733/C463-P104

>  <fragmenstein_runtime>  (129) 
48.553224086761475

>  <fragmenstein_outcome>  (129) 
too moved

>  <fragmenstein_mode>  (129) 
expansion

>  <fragmenstein_error>  (129) 


$$$$
C466-P54
     RDKit          3D

 41 42  0  0  0  0  0  0  0  0999 V2000
   -9.1845  -27.8716   27.0787 C   0  0  0  0  0  0  0  0  0  0  0  0
  -10.6314  -27.5949   27.4533 C   0  0  0  0  0  0  0  0  0  0  0  0
  -11.3496  -26.7535   26.4070 C   0  0  0  0  0  0  0  0  0  0  0  0
  -11.5098  -25.2479   26.6404 C   0  0  0  0  0  0  0  0  0  0  0  0
  -12.5832  -24.7864   26.3848 O   0  0  0  0  0  0  0  0  0  0  0  0
  -10.3141  -24.6232   27.1043 N   0  0  0  0  0  0  0  0  0  0  0  0
  -10.0498  -23.2610   27.5003 C   0  0  0  0  0  0  0  0  0  0  0  0
   -9.9410  -23.1434   28.9783 C   0  0  0  0  0  0  0  0  0  0  0  0
   -8.9373  -23.3934   29.8044 N   0  0  0  0  0  0  0  0  0  0  0  0
   -9.3610  -22.9265   31.0459 C   0  0  0  0  0  0  0  0  0  0  0  0
   -8.7258  -22.8683   32.2990 C   0  0  0  0  0  0  0  0  0  0  0  0
   -9.3505  -22.2225   33.3709 C   0  0  0  0  0  0  0  0  0  0  0  0
  -10.5843  -21.6105   33.2022 C   0  0  0  0  0  0  0  0  0  0  0  0
  -11.2545  -21.6848   31.9788 C   0  0  0  0  0  0  0  0  0  0  0  0
  -10.6391  -22.3915   30.9445 C   0  0  0  0  0  0  0  0  0  0  0  0
  -11.0497  -22.8032   29.7055 N   0  0  0  0  0  0  0  0  0  0  0  0
  -12.3332  -23.4117   29.3968 C   0  0  0  0  0  0  0  0  0  0  0  0
  -12.2412  -24.9067   29.7416 C   0  0  0  0  0  0  0  0  0  0  0  0
  -13.4352  -25.7021   29.3650 C   0  0  0  0  0  0  0  0  0  0  0  0
  -13.8126  -26.7056   29.2142 N   0  0  0  0  0  0  0  0  0  0  0  0
  -14.7699  -24.8098   29.2191 O   0  0  0  0  0  0  0  0  0  0  0  0
   -8.7813  -28.6749   27.7008 H   0  0  0  0  0  0  0  0  0  0  0  0
   -8.5480  -26.9943   27.2027 H   0  0  0  0  0  0  0  0  0  0  0  0
   -9.0976  -28.1756   26.0375 H   0  0  0  0  0  0  0  0  0  0  0  0
  -10.6927  -27.1518   28.4457 H   0  0  0  0  0  0  0  0  0  0  0  0
  -11.1421  -28.5618   27.5343 H   0  0  0  0  0  0  0  0  0  0  0  0
  -12.3748  -27.1466   26.3435 H   0  0  0  0  0  0  0  0  0  0  0  0
  -10.9209  -26.9007   25.4190 H   0  0  0  0  0  0  0  0  0  0  0  0
   -9.6240  -25.3338   27.2924 H   0  0  0  0  0  0  0  0  0  0  0  0
   -9.1378  -22.9120   27.0474 H   0  0  0  0  0  0  0  0  0  0  0  0
  -10.8488  -22.6256   27.1031 H   0  0  0  0  0  0  0  0  0  0  0  0
   -7.7377  -23.2669   32.4682 H   0  0  0  0  0  0  0  0  0  0  0  0
   -8.8418  -22.1714   34.3283 H   0  0  0  0  0  0  0  0  0  0  0  0
  -11.0494  -21.0841   34.0349 H   0  0  0  0  0  0  0  0  0  0  0  0
  -12.2240  -21.2178   31.8533 H   0  0  0  0  0  0  0  0  0  0  0  0
  -12.5497  -23.2526   28.3402 H   0  0  0  0  0  0  0  0  0  0  0  0
  -13.0797  -22.8264   29.9226 H   0  0  0  0  0  0  0  0  0  0  0  0
  -11.3834  -25.3709   29.2604 H   0  0  0  0  0  0  0  0  0  0  0  0
  -12.0269  -25.0588   30.8040 H   0  0  0  0  0  0  0  0  0  0  0  0
  -12.9390  -27.1898   29.4489 H   0  0  0  0  0  0  0  0  0  0  0  0
  -13.7450  -27.7110   29.0811 H   0  0  0  0  0  0  0  0  0  0  0  0
  1  2  1  0
  2  3  1  0
  3  4  1  0
  4  5  2  0
  4  6  1  0
  6  7  1  0
  7  8  1  0
  8  9  2  0
  9 10  1  0
 10 11  2  0
 11 12  1  0
 12 13  2  0
 13 14  1  0
 14 15  2  0
 15 16  1  0
 16 17  1  0
 17 18  1  0
 18 19  1  0
 19 20  1  0
 19 21  2  0
 16  8  1  0
 15 10  1  0
  1 22  1  0
  1 23  1  0
  1 24  1  0
  2 25  1  0
  2 26  1  0
  3 27  1  0
  3 28  1  0
  6 29  1  0
  7 30  1  0
  7 31  1  0
 11 32  1  0
 12 33  1  0
 13 34  1  0
 14 35  1  0
 17 36  1  0
 17 37  1  0
 18 38  1  0
 18 39  1  0
 20 40  1  0
 20 41  1  0
M  END
>  <Energy>  (130) 
178.42867184120897

>  <compound_id>  (130) 
466

>  <target_id>  (130) 
1

>  <reference_id>  (130) 
54

>  <inspiration_ids>  (130) 
[54, 123]

>  <energy_score>  (130) 
191.56779036808246

>  <distance_score>  (130) 
3.0242015979974046

>  <path>  (130) 
/opt/xchem-fragalysis-2/maxwin/BulkDock/SCRATCH/505733/C466-P54/C466-P54.minimised.mol

>  <scratch_subdir>  (130) 
/opt/xchem-fragalysis-2/maxwin/BulkDock/SCRATCH/505733/C466-P54

>  <fragmenstein_runtime>  (130) 
13.216064929962158

>  <fragmenstein_outcome>  (130) 
too moved

>  <fragmenstein_mode>  (130) 
expansion

>  <fragmenstein_error>  (130) 


$$$$
C466-P123
     RDKit          3D

 41 42  0  0  0  0  0  0  0  0999 V2000
  -11.4345  -26.3951   31.1477 C   0  0  0  0  0  0  0  0  0  0  0  0
  -10.0282  -26.5325   30.6179 C   0  0  0  0  0  0  0  0  0  0  0  0
   -9.9837  -26.6603   29.0895 C   0  0  0  0  0  0  0  0  0  0  0  0
  -10.3440  -25.5535   28.1474 C   0  0  0  0  0  0  0  0  0  0  0  0
  -10.6965  -25.8027   27.0389 O   0  0  0  0  0  0  0  0  0  0  0  0
  -10.2738  -24.3484   28.8285 N   0  0  0  0  0  0  0  0  0  0  0  0
  -10.6842  -23.0532   28.4654 C   0  0  0  0  0  0  0  0  0  0  0  0
  -11.4752  -22.7952   29.7044 C   0  0  0  0  0  0  0  0  0  0  0  0
  -11.0447  -22.9068   30.9558 N   0  0  0  0  0  0  0  0  0  0  0  0
  -12.1270  -22.7345   31.7427 C   0  0  0  0  0  0  0  0  0  0  0  0
  -12.2602  -22.7870   33.1256 C   0  0  0  0  0  0  0  0  0  0  0  0
  -13.3988  -22.2555   33.7167 C   0  0  0  0  0  0  0  0  0  0  0  0
  -14.4262  -21.7658   32.9242 C   0  0  0  0  0  0  0  0  0  0  0  0
  -14.3751  -21.8855   31.5237 C   0  0  0  0  0  0  0  0  0  0  0  0
  -13.2197  -22.4490   30.9460 C   0  0  0  0  0  0  0  0  0  0  0  0
  -12.8095  -22.9864   29.7375 N   0  0  0  0  0  0  0  0  0  0  0  0
  -13.4965  -23.5089   28.5879 C   0  0  0  0  0  0  0  0  0  0  0  0
  -13.3755  -24.8729   27.9092 C   0  0  0  0  0  0  0  0  0  0  0  0
  -13.2358  -25.1883   26.3761 C   0  0  0  0  0  0  0  0  0  0  0  0
  -12.9876  -24.0801   25.4796 N   0  0  0  0  0  0  0  0  0  0  0  0
  -13.4003  -26.3604   26.1467 O   0  0  0  0  0  0  0  0  0  0  0  0
  -11.4080  -26.2678   32.2308 H   0  0  0  0  0  0  0  0  0  0  0  0
  -12.0009  -27.2966   30.9075 H   0  0  0  0  0  0  0  0  0  0  0  0
  -11.9590  -25.5434   30.7211 H   0  0  0  0  0  0  0  0  0  0  0  0
   -9.3958  -25.7273   31.0061 H   0  0  0  0  0  0  0  0  0  0  0  0
   -9.6208  -27.4502   31.0493 H   0  0  0  0  0  0  0  0  0  0  0  0
   -8.9939  -26.9617   28.7599 H   0  0  0  0  0  0  0  0  0  0  0  0
  -10.7552  -27.3958   28.8536 H   0  0  0  0  0  0  0  0  0  0  0  0
  -10.0046  -24.5284   29.7854 H   0  0  0  0  0  0  0  0  0  0  0  0
  -11.2289  -23.0641   27.5266 H   0  0  0  0  0  0  0  0  0  0  0  0
   -9.8437  -22.3859   28.3635 H   0  0  0  0  0  0  0  0  0  0  0  0
  -11.4863  -23.2344   33.7246 H   0  0  0  0  0  0  0  0  0  0  0  0
  -13.4814  -22.2509   34.7970 H   0  0  0  0  0  0  0  0  0  0  0  0
  -15.3331  -21.3927   33.3936 H   0  0  0  0  0  0  0  0  0  0  0  0
  -15.2590  -21.6435   30.9467 H   0  0  0  0  0  0  0  0  0  0  0  0
  -14.5024  -23.5036   28.9411 H   0  0  0  0  0  0  0  0  0  0  0  0
  -13.2916  -22.7546   27.8480 H   0  0  0  0  0  0  0  0  0  0  0  0
  -12.7577  -25.5544   28.4904 H   0  0  0  0  0  0  0  0  0  0  0  0
  -14.3875  -25.2783   27.9958 H   0  0  0  0  0  0  0  0  0  0  0  0
  -12.7816  -23.2367   26.0365 H   0  0  0  0  0  0  0  0  0  0  0  0
  -13.0148  -23.1996   26.0172 H   0  0  0  0  0  0  0  0  0  0  0  0
  1  2  1  0
  2  3  1  0
  3  4  1  0
  4  5  2  0
  4  6  1  0
  6  7  1  0
  7  8  1  0
  8  9  2  0
  9 10  1  0
 10 11  2  0
 11 12  1  0
 12 13  2  0
 13 14  1  0
 14 15  2  0
 15 16  1  0
 16 17  1  0
 17 18  1  0
 18 19  1  0
 19 20  1  0
 19 21  2  0
 16  8  1  0
 15 10  1  0
  1 22  1  0
  1 23  1  0
  1 24  1  0
  2 25  1  0
  2 26  1  0
  3 27  1  0
  3 28  1  0
  6 29  1  0
  7 30  1  0
  7 31  1  0
 11 32  1  0
 12 33  1  0
 13 34  1  0
 14 35  1  0
 17 36  1  0
 17 37  1  0
 18 38  1  0
 18 39  1  0
 20 40  1  0
 20 41  1  0
M  END
>  <Energy>  (131) 
215.37290192784866

>  <compound_id>  (131) 
466

>  <target_id>  (131) 
1

>  <reference_id>  (131) 
123

>  <inspiration_ids>  (131) 
[54, 123]

>  <energy_score>  (131) 
228.5120204547249

>  <distance_score>  (131) 
4.234916464348155

>  <path>  (131) 
/opt/xchem-fragalysis-2/maxwin/BulkDock/SCRATCH/505733/C466-P123/C466-P123.minimised.mol

>  <scratch_subdir>  (131) 
/opt/xchem-fragalysis-2/maxwin/BulkDock/SCRATCH/505733/C466-P123

>  <fragmenstein_runtime>  (131) 
14.087939262390137

>  <fragmenstein_outcome>  (131) 
too moved

>  <fragmenstein_mode>  (131) 
expansion

>  <fragmenstein_error>  (131) 


$$$$
C473-P55
     RDKit          3D

 44 46  0  0  0  0  0  0  0  0999 V2000
   15.9575    4.8171   19.2512 C   0  0  0  0  0  0  0  0  0  0  0  0
   17.2229    4.0098   18.9876 C   0  0  0  0  0  0  0  0  0  0  0  0
   17.1569    3.1001   17.7635 C   0  0  0  0  0  0  0  0  0  0  0  0
   16.0047    2.1222   17.9112 C   0  0  0  0  0  0  0  0  0  0  0  0
   16.0879    1.1351   18.5261 O   0  0  0  0  0  0  0  0  0  0  0  0
   14.7881    2.7618   17.2034 N   0  0  0  0  0  0  0  0  0  0  0  0
   13.4115    2.3708   17.1862 C   0  0  0  0  0  0  0  0  0  0  0  0
   13.2287    0.9974   16.6596 C   0  0  0  0  0  0  0  0  0  0  0  0
   12.3401    0.6288   15.7582 N   0  0  0  0  0  0  0  0  0  0  0  0
   12.3467   -0.7417   15.7818 C   0  0  0  0  0  0  0  0  0  0  0  0
   11.5281   -1.6397   15.0947 C   0  0  0  0  0  0  0  0  0  0  0  0
   11.6674   -3.0028   15.3570 C   0  0  0  0  0  0  0  0  0  0  0  0
   12.6121   -3.4602   16.2802 C   0  0  0  0  0  0  0  0  0  0  0  0
   13.4601   -2.5808   16.9683 C   0  0  0  0  0  0  0  0  0  0  0  0
   14.3898   -3.0482   17.9088 N   0  0  0  0  0  0  0  0  0  0  0  0
   15.7045   -3.4852   17.6052 C   0  0  0  0  0  0  0  0  0  0  0  0
   16.4776   -2.8835   16.6066 C   0  0  0  0  0  0  0  0  0  0  0  0
   17.8052   -3.2631   16.4081 C   0  0  0  0  0  0  0  0  0  0  0  0
   18.3736   -4.2594   17.2031 C   0  0  0  0  0  0  0  0  0  0  0  0
   17.6197   -4.8732   18.2040 C   0  0  0  0  0  0  0  0  0  0  0  0
   16.2985   -4.4769   18.4028 C   0  0  0  0  0  0  0  0  0  0  0  0
   15.5266   -5.0819   19.3634 O   0  0  0  0  0  0  0  0  0  0  0  0
   13.2864   -1.2254   16.6803 C   0  0  0  0  0  0  0  0  0  0  0  0
   13.8769   -0.0972   17.1859 N   0  0  0  0  0  0  0  0  0  0  0  0
   15.1229    4.1765   19.5509 H   0  0  0  0  0  0  0  0  0  0  0  0
   16.1326    5.5251   20.0680 H   0  0  0  0  0  0  0  0  0  0  0  0
   15.6647    5.3912   18.3668 H   0  0  0  0  0  0  0  0  0  0  0  0
   17.4428    3.4096   19.8791 H   0  0  0  0  0  0  0  0  0  0  0  0
   18.0635    4.7022   18.8603 H   0  0  0  0  0  0  0  0  0  0  0  0
   17.0747    3.6872   16.8431 H   0  0  0  0  0  0  0  0  0  0  0  0
   18.0825    2.5192   17.6753 H   0  0  0  0  0  0  0  0  0  0  0  0
   15.0874    3.5812   16.6911 H   0  0  0  0  0  0  0  0  0  0  0  0
   12.8598    3.0991   16.5849 H   0  0  0  0  0  0  0  0  0  0  0  0
   13.0518    2.4216   18.2169 H   0  0  0  0  0  0  0  0  0  0  0  0
   10.7871   -1.2688   14.3986 H   0  0  0  0  0  0  0  0  0  0  0  0
   11.0212   -3.7081   14.8426 H   0  0  0  0  0  0  0  0  0  0  0  0
   12.6857   -4.5280   16.4751 H   0  0  0  0  0  0  0  0  0  0  0  0
   13.9657   -3.7334   18.5390 H   0  0  0  0  0  0  0  0  0  0  0  0
   16.0560   -2.0984   15.9850 H   0  0  0  0  0  0  0  0  0  0  0  0
   18.3929   -2.7832   15.6300 H   0  0  0  0  0  0  0  0  0  0  0  0
   19.4063   -4.5569   17.0403 H   0  0  0  0  0  0  0  0  0  0  0  0
   18.0719   -5.6524   18.8085 H   0  0  0  0  0  0  0  0  0  0  0  0
   16.1187   -5.5916   19.9420 H   0  0  0  0  0  0  0  0  0  0  0  0
   14.6019   -0.0782   17.8968 H   0  0  0  0  0  0  0  0  0  0  0  0
  1  2  1  0
  2  3  1  0
  3  4  1  0
  4  5  2  0
  4  6  1  0
  6  7  1  0
  7  8  1  0
  8  9  2  0
  9 10  1  0
 10 11  2  0
 11 12  1  0
 12 13  2  0
 13 14  1  0
 14 15  1  0
 15 16  1  0
 16 17  2  0
 17 18  1  0
 18 19  2  0
 19 20  1  0
 20 21  2  0
 21 22  1  0
 14 23  2  0
 23 24  1  0
 24  8  1  0
 23 10  1  0
 21 16  1  0
  1 25  1  0
  1 26  1  0
  1 27  1  0
  2 28  1  0
  2 29  1  0
  3 30  1  0
  3 31  1  0
  6 32  1  0
  7 33  1  0
  7 34  1  0
 11 35  1  0
 12 36  1  0
 13 37  1  0
 15 38  1  0
 17 39  1  0
 18 40  1  0
 19 41  1  0
 20 42  1  0
 22 43  1  0
 24 44  1  0
M  END
>  <Energy>  (132) 
12.429732482420672

>  <compound_id>  (132) 
473

>  <target_id>  (132) 
1

>  <reference_id>  (132) 
55

>  <inspiration_ids>  (132) 
[55, 10]

>  <energy_score>  (132) 
-23.975934951092768

>  <distance_score>  (132) 
1.0668266924503262

>  <path>  (132) 
/opt/xchem-fragalysis-2/maxwin/BulkDock/SCRATCH/505733/C473-P55/C473-P55.minimised.mol

>  <scratch_subdir>  (132) 
/opt/xchem-fragalysis-2/maxwin/BulkDock/SCRATCH/505733/C473-P55

>  <fragmenstein_runtime>  (132) 
2.155315399169922

>  <fragmenstein_outcome>  (132) 
too moved

>  <fragmenstein_mode>  (132) 
expansion

>  <fragmenstein_error>  (132) 


$$$$
C473-P10
     RDKit          3D

 44 46  0  0  0  0  0  0  0  0999 V2000
   15.5277    4.7331   19.3882 C   0  0  0  0  0  0  0  0  0  0  0  0
   16.8571    3.9940   19.4338 C   0  0  0  0  0  0  0  0  0  0  0  0
   16.7252    2.4738   19.4108 C   0  0  0  0  0  0  0  0  0  0  0  0
   16.6720    1.9366   17.9890 C   0  0  0  0  0  0  0  0  0  0  0  0
   17.5927    1.4578   17.4608 O   0  0  0  0  0  0  0  0  0  0  0  0
   15.2412    2.1894   17.4701 N   0  0  0  0  0  0  0  0  0  0  0  0
   14.6757    1.9930   16.1695 C   0  0  0  0  0  0  0  0  0  0  0  0
   13.9019    0.7309   16.1562 C   0  0  0  0  0  0  0  0  0  0  0  0
   12.7421    0.5316   15.5678 N   0  0  0  0  0  0  0  0  0  0  0  0
   12.5135   -0.8166   15.6721 C   0  0  0  0  0  0  0  0  0  0  0  0
   11.4582   -1.5670   15.1514 C   0  0  0  0  0  0  0  0  0  0  0  0
   11.4289   -2.9328   15.4178 C   0  0  0  0  0  0  0  0  0  0  0  0
   12.4048   -3.5234   16.2228 C   0  0  0  0  0  0  0  0  0  0  0  0
   13.5013   -2.8091   16.7280 C   0  0  0  0  0  0  0  0  0  0  0  0
   14.4486   -3.4910   17.5069 N   0  0  0  0  0  0  0  0  0  0  0  0
   15.8333   -3.3039   17.6525 C   0  0  0  0  0  0  0  0  0  0  0  0
   16.6322   -2.7890   16.6273 C   0  0  0  0  0  0  0  0  0  0  0  0
   17.9966   -2.5769   16.8275 C   0  0  0  0  0  0  0  0  0  0  0  0
   18.5855   -2.9159   18.0462 C   0  0  0  0  0  0  0  0  0  0  0  0
   17.8146   -3.4743   19.0659 C   0  0  0  0  0  0  0  0  0  0  0  0
   16.4503   -3.6681   18.8603 C   0  0  0  0  0  0  0  0  0  0  0  0
   15.6630   -4.2089   19.8450 O   0  0  0  0  0  0  0  0  0  0  0  0
   13.5090   -1.4456   16.4133 C   0  0  0  0  0  0  0  0  0  0  0  0
   14.3707   -0.4279   16.7251 N   0  0  0  0  0  0  0  0  0  0  0  0
   14.8235    4.3348   20.1252 H   0  0  0  0  0  0  0  0  0  0  0  0
   15.6852    5.7933   19.6134 H   0  0  0  0  0  0  0  0  0  0  0  0
   15.0689    4.6823   18.3975 H   0  0  0  0  0  0  0  0  0  0  0  0
   17.3556    4.2737   20.3702 H   0  0  0  0  0  0  0  0  0  0  0  0
   17.4987    4.3447   18.6169 H   0  0  0  0  0  0  0  0  0  0  0  0
   15.8621    2.1220   19.9865 H   0  0  0  0  0  0  0  0  0  0  0  0
   17.6112    2.0289   19.8814 H   0  0  0  0  0  0  0  0  0  0  0  0
   14.6678    2.5501   18.2219 H   0  0  0  0  0  0  0  0  0  0  0  0
   15.4863    1.9492   15.4361 H   0  0  0  0  0  0  0  0  0  0  0  0
   14.0335    2.8500   15.9481 H   0  0  0  0  0  0  0  0  0  0  0  0
   10.6910   -1.0909   14.5519 H   0  0  0  0  0  0  0  0  0  0  0  0
   10.6278   -3.5389   15.0062 H   0  0  0  0  0  0  0  0  0  0  0  0
   12.3246   -4.5855   16.4426 H   0  0  0  0  0  0  0  0  0  0  0  0
   14.0411   -3.9298   18.3340 H   0  0  0  0  0  0  0  0  0  0  0  0
   16.1961   -2.5529   15.6594 H   0  0  0  0  0  0  0  0  0  0  0  0
   18.6019   -2.1563   16.0281 H   0  0  0  0  0  0  0  0  0  0  0  0
   19.6500   -2.7522   18.1948 H   0  0  0  0  0  0  0  0  0  0  0  0
   18.2891   -3.7463   20.0029 H   0  0  0  0  0  0  0  0  0  0  0  0
   16.2140   -4.3619   20.6302 H   0  0  0  0  0  0  0  0  0  0  0  0
   15.2409   -0.5270   17.2301 H   0  0  0  0  0  0  0  0  0  0  0  0
  1  2  1  0
  2  3  1  0
  3  4  1  0
  4  5  2  0
  4  6  1  0
  6  7  1  0
  7  8  1  0
  8  9  2  0
  9 10  1  0
 10 11  2  0
 11 12  1  0
 12 13  2  0
 13 14  1  0
 14 15  1  0
 15 16  1  0
 16 17  2  0
 17 18  1  0
 18 19  2  0
 19 20  1  0
 20 21  2  0
 21 22  1  0
 14 23  2  0
 23 24  1  0
 24  8  1  0
 23 10  1  0
 21 16  1  0
  1 25  1  0
  1 26  1  0
  1 27  1  0
  2 28  1  0
  2 29  1  0
  3 30  1  0
  3 31  1  0
  6 32  1  0
  7 33  1  0
  7 34  1  0
 11 35  1  0
 12 36  1  0
 13 37  1  0
 15 38  1  0
 17 39  1  0
 18 40  1  0
 19 41  1  0
 20 42  1  0
 22 43  1  0
 24 44  1  0
M  END
>  <Energy>  (133) 
9.7109977629723971

>  <compound_id>  (133) 
473

>  <target_id>  (133) 
1

>  <reference_id>  (133) 
10

>  <inspiration_ids>  (133) 
[55, 10]

>  <energy_score>  (133) 
-26.69466967054005

>  <distance_score>  (133) 
1.1721651902852401

>  <path>  (133) 
/opt/xchem-fragalysis-2/maxwin/BulkDock/SCRATCH/505733/C473-P10/C473-P10.minimised.mol

>  <scratch_subdir>  (133) 
/opt/xchem-fragalysis-2/maxwin/BulkDock/SCRATCH/505733/C473-P10

>  <fragmenstein_runtime>  (133) 
2.501420497894287

>  <fragmenstein_outcome>  (133) 
too moved

>  <fragmenstein_mode>  (133) 
expansion

>  <fragmenstein_error>  (133) 


$$$$
C474-P55
     RDKit          3D

 57 59  0  0  0  0  0  0  0  0999 V2000
   15.9244    4.6378   19.6006 C   0  0  0  0  0  0  0  0  0  0  0  0
   16.8155    3.5297   19.0575 C   0  0  0  0  0  0  0  0  0  0  0  0
   17.0323    3.5947   17.5464 C   0  0  0  0  0  0  0  0  0  0  0  0
   15.7505    3.8159   16.7544 C   0  0  0  0  0  0  0  0  0  0  0  0
   15.5648    4.7770   16.1227 O   0  0  0  0  0  0  0  0  0  0  0  0
   14.8318    2.6080   17.0304 N   0  0  0  0  0  0  0  0  0  0  0  0
   13.4729    2.3769   16.6684 C   0  0  0  0  0  0  0  0  0  0  0  0
   13.2568    0.9213   16.5011 C   0  0  0  0  0  0  0  0  0  0  0  0
   13.6427   -0.0658   17.2879 N   0  0  0  0  0  0  0  0  0  0  0  0
   13.1117   -1.2187   16.7427 C   0  0  0  0  0  0  0  0  0  0  0  0
   13.1857   -2.5676   17.1594 C   0  0  0  0  0  0  0  0  0  0  0  0
   14.0880   -3.0319   18.2867 C   0  0  0  0  0  0  0  0  0  0  0  0
   15.4713   -3.2172   17.7377 C   0  0  0  0  0  0  0  0  0  0  0  0
   16.3140   -2.1800   17.6686 C   0  0  0  0  0  0  0  0  0  0  0  0
   17.4236   -2.0384   16.8561 N   0  0  0  0  0  0  0  0  0  0  0  0
   17.7247   -0.6888   16.3621 C   0  0  0  0  0  0  0  0  0  0  0  0
   19.0448   -0.7077   15.5559 C   0  0  0  0  0  0  0  0  0  0  0  0
   19.0173   -1.4101   14.1949 N   0  0  0  0  0  0  0  0  0  0  0  0
   20.0742   -0.8484   13.2669 C   0  0  0  0  0  0  0  0  0  0  0  0
   19.4300    0.2859   12.4982 C   0  0  0  0  0  0  0  0  0  0  0  0
   21.1907   -1.1749   13.1001 O   0  0  0  0  0  0  0  0  0  0  0  0
   19.0478   -2.6205   15.1086 C   0  0  0  0  0  0  0  0  0  0  0  0
   17.7314   -3.0178   15.8097 C   0  0  0  0  0  0  0  0  0  0  0  0
   12.4435   -3.5211   16.4342 C   0  0  0  0  0  0  0  0  0  0  0  0
   11.6854   -3.1556   15.3328 C   0  0  0  0  0  0  0  0  0  0  0  0
   11.6779   -1.8453   14.8796 C   0  0  0  0  0  0  0  0  0  0  0  0
   12.3819   -0.9082   15.6142 C   0  0  0  0  0  0  0  0  0  0  0  0
   12.5424    0.4355   15.4442 N   0  0  0  0  0  0  0  0  0  0  0  0
   14.8954    4.5454   19.2406 H   0  0  0  0  0  0  0  0  0  0  0  0
   15.8958    4.5923   20.6941 H   0  0  0  0  0  0  0  0  0  0  0  0
   16.3061    5.6228   19.3137 H   0  0  0  0  0  0  0  0  0  0  0  0
   17.7942    3.5863   19.5493 H   0  0  0  0  0  0  0  0  0  0  0  0
   16.3899    2.5621   19.3461 H   0  0  0  0  0  0  0  0  0  0  0  0
   17.5181    2.6802   17.1882 H   0  0  0  0  0  0  0  0  0  0  0  0
   17.7112    4.4244   17.3131 H   0  0  0  0  0  0  0  0  0  0  0  0
   15.2814    1.9847   17.6914 H   0  0  0  0  0  0  0  0  0  0  0  0
   13.2532    2.9459   15.7599 H   0  0  0  0  0  0  0  0  0  0  0  0
   12.8447    2.7642   17.4752 H   0  0  0  0  0  0  0  0  0  0  0  0
   13.7256   -3.9713   18.7199 H   0  0  0  0  0  0  0  0  0  0  0  0
   14.0880   -2.2971   19.0996 H   0  0  0  0  0  0  0  0  0  0  0  0
   15.6748   -4.1436   17.2140 H   0  0  0  0  0  0  0  0  0  0  0  0
   16.0361   -1.2456   18.1594 H   0  0  0  0  0  0  0  0  0  0  0  0
   17.8344    0.0040   17.2052 H   0  0  0  0  0  0  0  0  0  0  0  0
   16.9060   -0.3274   15.7263 H   0  0  0  0  0  0  0  0  0  0  0  0
   19.9535   -0.8800   16.1599 H   0  0  0  0  0  0  0  0  0  0  0  0
   19.1870    0.3499   15.2802 H   0  0  0  0  0  0  0  0  0  0  0  0
   18.3538    0.3499   12.6823 H   0  0  0  0  0  0  0  0  0  0  0  0
   19.8964    1.2284   12.7973 H   0  0  0  0  0  0  0  0  0  0  0  0
   19.5843    0.1211   11.4281 H   0  0  0  0  0  0  0  0  0  0  0  0
   19.2125   -3.4249   14.3735 H   0  0  0  0  0  0  0  0  0  0  0  0
   19.9573   -2.7329   15.7248 H   0  0  0  0  0  0  0  0  0  0  0  0
   16.9173   -3.0607   15.0748 H   0  0  0  0  0  0  0  0  0  0  0  0
   17.8559   -4.0142   16.2494 H   0  0  0  0  0  0  0  0  0  0  0  0
   12.4668   -4.5664   16.7347 H   0  0  0  0  0  0  0  0  0  0  0  0
   11.1004   -3.8963   14.7970 H   0  0  0  0  0  0  0  0  0  0  0  0
   11.1296   -1.5649   13.9929 H   0  0  0  0  0  0  0  0  0  0  0  0
   12.1501    0.9822   14.6911 H   0  0  0  0  0  0  0  0  0  0  0  0
  1  2  1  0
  2  3  1  0
  3  4  1  0
  4  5  2  0
  4  6  1  0
  6  7  1  0
  7  8  1  0
  8  9  2  0
  9 10  1  0
 10 11  2  0
 11 12  1  0
 12 13  1  0
 13 14  2  3
 14 15  1  0
 15 16  1  0
 16 17  1  0
 17 18  1  0
 18 19  1  0
 19 20  1  0
 19 21  2  0
 18 22  1  0
 22 23  1  0
 11 24  1  0
 24 25  2  0
 25 26  1  0
 26 27  2  0
 27 28  1  0
 28  8  1  0
 27 10  1  0
 23 15  1  0
  1 29  1  0
  1 30  1  0
  1 31  1  0
  2 32  1  0
  2 33  1  0
  3 34  1  0
  3 35  1  0
  6 36  1  0
  7 37  1  0
  7 38  1  0
 12 39  1  0
 12 40  1  0
 13 41  1  0
 14 42  1  0
 16 43  1  0
 16 44  1  0
 17 45  1  0
 17 46  1  0
 20 47  1  0
 20 48  1  0
 20 49  1  0
 22 50  1  0
 22 51  1  0
 23 52  1  0
 23 53  1  0
 24 54  1  0
 25 55  1  0
 26 56  1  0
 28 57  1  0
M  END
>  <Energy>  (134) 
141.59404350138888

>  <compound_id>  (134) 
474

>  <target_id>  (134) 
1

>  <reference_id>  (134) 
55

>  <inspiration_ids>  (134) 
[55, 12]

>  <energy_score>  (134) 
54.45542583961944

>  <distance_score>  (134) 
2.5517988333524824

>  <path>  (134) 
/opt/xchem-fragalysis-2/maxwin/BulkDock/SCRATCH/505733/C474-P55/C474-P55.minimised.mol

>  <scratch_subdir>  (134) 
/opt/xchem-fragalysis-2/maxwin/BulkDock/SCRATCH/505733/C474-P55

>  <fragmenstein_runtime>  (134) 
4.769288778305054

>  <fragmenstein_outcome>  (134) 
too moved

>  <fragmenstein_mode>  (134) 
expansion

>  <fragmenstein_error>  (134) 


$$$$
C474-P12
     RDKit          3D

 57 59  0  0  0  0  0  0  0  0999 V2000
   15.1421    3.6151   18.8372 C   0  0  0  0  0  0  0  0  0  0  0  0
   15.7281    4.7628   18.0292 C   0  0  0  0  0  0  0  0  0  0  0  0
   16.0279    4.4092   16.5743 C   0  0  0  0  0  0  0  0  0  0  0  0
   14.7724    4.3350   15.7015 C   0  0  0  0  0  0  0  0  0  0  0  0
   14.4303    5.3001   15.0837 O   0  0  0  0  0  0  0  0  0  0  0  0
   14.2146    3.0244   15.7660 N   0  0  0  0  0  0  0  0  0  0  0  0
   13.0208    2.4796   15.1879 C   0  0  0  0  0  0  0  0  0  0  0  0
   12.9597    1.0408   15.5644 C   0  0  0  0  0  0  0  0  0  0  0  0
   13.7252    0.4366   16.4538 N   0  0  0  0  0  0  0  0  0  0  0  0
   13.3231   -0.8751   16.4708 C   0  0  0  0  0  0  0  0  0  0  0  0
   13.8290   -1.9471   17.2321 C   0  0  0  0  0  0  0  0  0  0  0  0
   14.9713   -1.7682   18.2046 C   0  0  0  0  0  0  0  0  0  0  0  0
   16.0243   -2.8391   18.1766 C   0  0  0  0  0  0  0  0  0  0  0  0
   16.9383   -3.1297   17.2409 C   0  0  0  0  0  0  0  0  0  0  0  0
   17.2396   -2.5991   15.9962 N   0  0  0  0  0  0  0  0  0  0  0  0
   16.4315   -1.5769   15.3315 C   0  0  0  0  0  0  0  0  0  0  0  0
   17.1323   -1.0525   14.0603 C   0  0  0  0  0  0  0  0  0  0  0  0
   17.2525   -2.0484   12.9082 N   0  0  0  0  0  0  0  0  0  0  0  0
   17.3050   -1.3567   11.6664 C   0  0  0  0  0  0  0  0  0  0  0  0
   15.8942   -1.1691   11.1453 C   0  0  0  0  0  0  0  0  0  0  0  0
   18.2447   -0.9489   11.0377 O   0  0  0  0  0  0  0  0  0  0  0  0
   18.3588   -2.5928   13.7818 C   0  0  0  0  0  0  0  0  0  0  0  0
   17.9363   -3.4326   15.0051 C   0  0  0  0  0  0  0  0  0  0  0  0
   13.1823   -3.1877   17.0746 C   0  0  0  0  0  0  0  0  0  0  0  0
   12.1304   -3.3603   16.1745 C   0  0  0  0  0  0  0  0  0  0  0  0
   11.6641   -2.3093   15.3850 C   0  0  0  0  0  0  0  0  0  0  0  0
   12.2819   -1.0764   15.5746 C   0  0  0  0  0  0  0  0  0  0  0  0
   12.0818    0.1519   14.9962 N   0  0  0  0  0  0  0  0  0  0  0  0
   14.1385    3.3521   18.4908 H   0  0  0  0  0  0  0  0  0  0  0  0
   15.7760    2.7249   18.7762 H   0  0  0  0  0  0  0  0  0  0  0  0
   15.0615    3.9011   19.8910 H   0  0  0  0  0  0  0  0  0  0  0  0
   15.0449    5.6191   18.0753 H   0  0  0  0  0  0  0  0  0  0  0  0
   16.6642    5.0742   18.5079 H   0  0  0  0  0  0  0  0  0  0  0  0
   16.6038    3.4793   16.5016 H   0  0  0  0  0  0  0  0  0  0  0  0
   16.6671    5.1899   16.1418 H   0  0  0  0  0  0  0  0  0  0  0  0
   14.8187    2.4347   16.3327 H   0  0  0  0  0  0  0  0  0  0  0  0
   13.0674    2.6179   14.1038 H   0  0  0  0  0  0  0  0  0  0  0  0
   12.1632    3.0338   15.5800 H   0  0  0  0  0  0  0  0  0  0  0  0
   14.5405   -1.7407   19.2142 H   0  0  0  0  0  0  0  0  0  0  0  0
   15.4498   -0.7908   18.0738 H   0  0  0  0  0  0  0  0  0  0  0  0
   16.0434   -3.4536   19.0763 H   0  0  0  0  0  0  0  0  0  0  0  0
   17.6018   -3.9667   17.4687 H   0  0  0  0  0  0  0  0  0  0  0  0
   15.4690   -2.0068   15.0381 H   0  0  0  0  0  0  0  0  0  0  0  0
   16.2783   -0.7223   15.9950 H   0  0  0  0  0  0  0  0  0  0  0  0
   18.0284   -0.4363   14.2509 H   0  0  0  0  0  0  0  0  0  0  0  0
   16.4345   -0.2888   13.6800 H   0  0  0  0  0  0  0  0  0  0  0  0
   15.8868   -1.3382   10.0656 H   0  0  0  0  0  0  0  0  0  0  0  0
   15.5647   -0.1479   11.3540 H   0  0  0  0  0  0  0  0  0  0  0  0
   15.1960   -1.8752   11.6049 H   0  0  0  0  0  0  0  0  0  0  0  0
   18.8336   -3.3177   13.1016 H   0  0  0  0  0  0  0  0  0  0  0  0
   19.2030   -1.9056   13.9632 H   0  0  0  0  0  0  0  0  0  0  0  0
   17.2740   -4.2466   14.6871 H   0  0  0  0  0  0  0  0  0  0  0  0
   18.8317   -3.8808   15.4518 H   0  0  0  0  0  0  0  0  0  0  0  0
   13.5000   -4.0396   17.6699 H   0  0  0  0  0  0  0  0  0  0  0  0
   11.6632   -4.3390   16.0997 H   0  0  0  0  0  0  0  0  0  0  0  0
   10.8586   -2.4540   14.6727 H   0  0  0  0  0  0  0  0  0  0  0  0
   11.4073    0.3535   14.2709 H   0  0  0  0  0  0  0  0  0  0  0  0
  1  2  1  0
  2  3  1  0
  3  4  1  0
  4  5  2  0
  4  6  1  0
  6  7  1  0
  7  8  1  0
  8  9  2  0
  9 10  1  0
 10 11  2  0
 11 12  1  0
 12 13  1  0
 13 14  2  3
 14 15  1  0
 15 16  1  0
 16 17  1  0
 17 18  1  0
 18 19  1  0
 19 20  1  0
 19 21  2  0
 18 22  1  0
 22 23  1  0
 11 24  1  0
 24 25  2  0
 25 26  1  0
 26 27  2  0
 27 28  1  0
 28  8  1  0
 27 10  1  0
 23 15  1  0
  1 29  1  0
  1 30  1  0
  1 31  1  0
  2 32  1  0
  2 33  1  0
  3 34  1  0
  3 35  1  0
  6 36  1  0
  7 37  1  0
  7 38  1  0
 12 39  1  0
 12 40  1  0
 13 41  1  0
 14 42  1  0
 16 43  1  0
 16 44  1  0
 17 45  1  0
 17 46  1  0
 20 47  1  0
 20 48  1  0
 20 49  1  0
 22 50  1  0
 22 51  1  0
 23 52  1  0
 23 53  1  0
 24 54  1  0
 25 55  1  0
 26 56  1  0
 28 57  1  0
M  END
>  <Energy>  (135) 
117.11224349660621

>  <compound_id>  (135) 
474

>  <target_id>  (135) 
1

>  <reference_id>  (135) 
12

>  <inspiration_ids>  (135) 
[55, 12]

>  <energy_score>  (135) 
13.95761567938581

>  <distance_score>  (135) 
1.9324793147577406

>  <path>  (135) 
/opt/xchem-fragalysis-2/maxwin/BulkDock/SCRATCH/505733/C474-P12/C474-P12.minimised.mol

>  <scratch_subdir>  (135) 
/opt/xchem-fragalysis-2/maxwin/BulkDock/SCRATCH/505733/C474-P12

>  <fragmenstein_runtime>  (135) 
6.535564422607422

>  <fragmenstein_outcome>  (135) 
too moved

>  <fragmenstein_mode>  (135) 
expansion

>  <fragmenstein_error>  (135) 


$$$$
C476-P55
     RDKit          3D

 42 43  0  0  0  0  0  0  0  0999 V2000
   15.4298    4.9580   19.8087 C   0  0  0  0  0  0  0  0  0  0  0  0
   16.7289    4.5910   19.1107 C   0  0  0  0  0  0  0  0  0  0  0  0
   16.6578    3.2896   18.3378 C   0  0  0  0  0  0  0  0  0  0  0  0
   15.9674    3.4311   16.9888 C   0  0  0  0  0  0  0  0  0  0  0  0
   16.5619    3.5387   15.9927 O   0  0  0  0  0  0  0  0  0  0  0  0
   14.4476    3.2971   17.2390 N   0  0  0  0  0  0  0  0  0  0  0  0
   13.3531    3.1722   16.3087 C   0  0  0  0  0  0  0  0  0  0  0  0
   13.0980    1.7154   16.1223 C   0  0  0  0  0  0  0  0  0  0  0  0
   12.0302    1.1215   15.6352 N   0  0  0  0  0  0  0  0  0  0  0  0
   12.2907   -0.2257   15.7256 C   0  0  0  0  0  0  0  0  0  0  0  0
   11.4760   -1.2970   15.3510 C   0  0  0  0  0  0  0  0  0  0  0  0
   11.9057   -2.5730   15.6899 C   0  0  0  0  0  0  0  0  0  0  0  0
   13.1325   -2.7419   16.3540 C   0  0  0  0  0  0  0  0  0  0  0  0
   13.5597   -4.3238   16.9707 S   0  0  0  0  0  0  0  0  0  0  0  0
   13.6508   -4.1494   18.7372 C   0  0  0  0  0  0  0  0  0  0  0  0
   14.8966   -4.6377   16.4892 O   0  0  0  0  0  0  0  0  0  0  0  0
   12.4366   -5.1615   16.6407 O   0  0  0  0  0  0  0  0  0  0  0  0
   14.0555   -1.7209   16.6080 C   0  0  0  0  0  0  0  0  0  0  0  0
   15.2863   -2.0362   17.1943 N   0  0  0  0  0  0  0  0  0  0  0  0
   16.3380   -1.0722   17.3817 C   0  0  0  0  0  0  0  0  0  0  0  0
   13.5357   -0.4649   16.3085 C   0  0  0  0  0  0  0  0  0  0  0  0
   14.0417    0.7864   16.4701 N   0  0  0  0  0  0  0  0  0  0  0  0
   15.5988    5.8002   20.4882 H   0  0  0  0  0  0  0  0  0  0  0  0
   15.0428    4.1230   20.4009 H   0  0  0  0  0  0  0  0  0  0  0  0
   14.6637    5.2725   19.0947 H   0  0  0  0  0  0  0  0  0  0  0  0
   17.0318    5.4144   18.4535 H   0  0  0  0  0  0  0  0  0  0  0  0
   17.5068    4.4934   19.8777 H   0  0  0  0  0  0  0  0  0  0  0  0
   16.1831    2.4939   18.9237 H   0  0  0  0  0  0  0  0  0  0  0  0
   17.6778    2.9406   18.1312 H   0  0  0  0  0  0  0  0  0  0  0  0
   14.2664    3.3057   18.2362 H   0  0  0  0  0  0  0  0  0  0  0  0
   13.6400    3.6331   15.3598 H   0  0  0  0  0  0  0  0  0  0  0  0
   12.4801    3.6772   16.7292 H   0  0  0  0  0  0  0  0  0  0  0  0
   10.5264   -1.1281   14.8534 H   0  0  0  0  0  0  0  0  0  0  0  0
   11.2667   -3.4233   15.4583 H   0  0  0  0  0  0  0  0  0  0  0  0
   13.4281   -5.1115   19.1980 H   0  0  0  0  0  0  0  0  0  0  0  0
   12.9369   -3.4055   19.0725 H   0  0  0  0  0  0  0  0  0  0  0  0
   14.6589   -3.8436   19.0217 H   0  0  0  0  0  0  0  0  0  0  0  0
   15.6785   -2.8706   16.7261 H   0  0  0  0  0  0  0  0  0  0  0  0
   17.2276   -1.5791   17.7699 H   0  0  0  0  0  0  0  0  0  0  0  0
   16.6181   -0.5908   16.4394 H   0  0  0  0  0  0  0  0  0  0  0  0
   16.0556   -0.3161   18.1204 H   0  0  0  0  0  0  0  0  0  0  0  0
   14.9477    1.0247   16.8351 H   0  0  0  0  0  0  0  0  0  0  0  0
  1  2  1  0
  2  3  1  0
  3  4  1  0
  4  5  2  0
  4  6  1  0
  6  7  1  0
  7  8  1  0
  8  9  2  0
  9 10  1  0
 10 11  2  0
 11 12  1  0
 12 13  2  0
 13 14  1  0
 14 15  1  0
 14 16  2  0
 14 17  2  0
 13 18  1  0
 18 19  1  0
 19 20  1  0
 18 21  2  0
 21 22  1  0
 22  8  1  0
 21 10  1  0
  1 23  1  0
  1 24  1  0
  1 25  1  0
  2 26  1  0
  2 27  1  0
  3 28  1  0
  3 29  1  0
  6 30  1  0
  7 31  1  0
  7 32  1  0
 11 33  1  0
 12 34  1  0
 15 35  1  0
 15 36  1  0
 15 37  1  0
 19 38  1  0
 20 39  1  0
 20 40  1  0
 20 41  1  0
 22 42  1  0
M  END
>  <Energy>  (136) 
40.286957969674326

>  <compound_id>  (136) 
476

>  <target_id>  (136) 
1

>  <reference_id>  (136) 
55

>  <inspiration_ids>  (136) 
[55, 20]

>  <energy_score>  (136) 
-31.056667907982956

>  <distance_score>  (136) 
1.2295549491620736

>  <path>  (136) 
/opt/xchem-fragalysis-2/maxwin/BulkDock/SCRATCH/505733/C476-P55/C476-P55.minimised.mol

>  <scratch_subdir>  (136) 
/opt/xchem-fragalysis-2/maxwin/BulkDock/SCRATCH/505733/C476-P55

>  <fragmenstein_runtime>  (136) 
2.62961745262146

>  <fragmenstein_outcome>  (136) 
too moved

>  <fragmenstein_mode>  (136) 
expansion

>  <fragmenstein_error>  (136) 


$$$$
C476-P20
     RDKit          3D

 42 43  0  0  0  0  0  0  0  0999 V2000
   16.4922    5.0896   19.5312 C   0  0  0  0  0  0  0  0  0  0  0  0
   15.9173    3.7396   19.9112 C   0  0  0  0  0  0  0  0  0  0  0  0
   14.5106    3.5628   19.3488 C   0  0  0  0  0  0  0  0  0  0  0  0
   14.5577    3.3129   17.8500 C   0  0  0  0  0  0  0  0  0  0  0  0
   15.5316    3.0155   17.2840 O   0  0  0  0  0  0  0  0  0  0  0  0
   13.1134    3.4773   17.3352 N   0  0  0  0  0  0  0  0  0  0  0  0
   12.5505    3.2191   16.0408 C   0  0  0  0  0  0  0  0  0  0  0  0
   12.5590    1.7470   15.8315 C   0  0  0  0  0  0  0  0  0  0  0  0
   11.5595    1.0057   15.4122 N   0  0  0  0  0  0  0  0  0  0  0  0
   11.9909   -0.2860   15.5442 C   0  0  0  0  0  0  0  0  0  0  0  0
   11.2729   -1.4537   15.2892 C   0  0  0  0  0  0  0  0  0  0  0  0
   11.8375   -2.6518   15.6896 C   0  0  0  0  0  0  0  0  0  0  0  0
   13.0936   -2.6475   16.3115 C   0  0  0  0  0  0  0  0  0  0  0  0
   13.6853   -4.1291   17.0164 S   0  0  0  0  0  0  0  0  0  0  0  0
   13.8817   -3.8748   18.7606 C   0  0  0  0  0  0  0  0  0  0  0  0
   15.0036   -4.3831   16.4549 O   0  0  0  0  0  0  0  0  0  0  0  0
   12.6195   -5.0879   16.8456 O   0  0  0  0  0  0  0  0  0  0  0  0
   13.9265   -1.5271   16.4409 C   0  0  0  0  0  0  0  0  0  0  0  0
   15.2012   -1.6943   16.9870 N   0  0  0  0  0  0  0  0  0  0  0  0
   16.1298   -0.6128   17.1757 C   0  0  0  0  0  0  0  0  0  0  0  0
   13.2832   -0.3467   16.0697 C   0  0  0  0  0  0  0  0  0  0  0  0
   13.6595    0.9677   16.1027 N   0  0  0  0  0  0  0  0  0  0  0  0
   16.6048    5.1962   18.4482 H   0  0  0  0  0  0  0  0  0  0  0  0
   17.4823    5.2157   19.9815 H   0  0  0  0  0  0  0  0  0  0  0  0
   15.8564    5.9053   19.8907 H   0  0  0  0  0  0  0  0  0  0  0  0
   16.5872    2.9388   19.5778 H   0  0  0  0  0  0  0  0  0  0  0  0
   15.8684    3.6780   21.0048 H   0  0  0  0  0  0  0  0  0  0  0  0
   13.8983    4.4439   19.5698 H   0  0  0  0  0  0  0  0  0  0  0  0
   14.0399    2.6880   19.8122 H   0  0  0  0  0  0  0  0  0  0  0  0
   12.4906    3.6666   18.1217 H   0  0  0  0  0  0  0  0  0  0  0  0
   11.5370    3.6272   16.0124 H   0  0  0  0  0  0  0  0  0  0  0  0
   13.1731    3.7100   15.2874 H   0  0  0  0  0  0  0  0  0  0  0  0
   10.2814   -1.4069   14.8543 H   0  0  0  0  0  0  0  0  0  0  0  0
   11.2751   -3.5731   15.5532 H   0  0  0  0  0  0  0  0  0  0  0  0
   14.2775   -4.7976   19.1913 H   0  0  0  0  0  0  0  0  0  0  0  0
   12.9190   -3.6673   19.2122 H   0  0  0  0  0  0  0  0  0  0  0  0
   14.5839   -3.0698   18.9678 H   0  0  0  0  0  0  0  0  0  0  0  0
   15.6750   -2.4888   16.5283 H   0  0  0  0  0  0  0  0  0  0  0  0
   17.0609   -1.0043   17.5981 H   0  0  0  0  0  0  0  0  0  0  0  0
   16.3765   -0.1249   16.2276 H   0  0  0  0  0  0  0  0  0  0  0  0
   15.7405    0.1239   17.8849 H   0  0  0  0  0  0  0  0  0  0  0  0
   14.5541    1.3312   16.4016 H   0  0  0  0  0  0  0  0  0  0  0  0
  1  2  1  0
  2  3  1  0
  3  4  1  0
  4  5  2  0
  4  6  1  0
  6  7  1  0
  7  8  1  0
  8  9  2  0
  9 10  1  0
 10 11  2  0
 11 12  1  0
 12 13  2  0
 13 14  1  0
 14 15  1  0
 14 16  2  0
 14 17  2  0
 13 18  1  0
 18 19  1  0
 19 20  1  0
 18 21  2  0
 21 22  1  0
 22  8  1  0
 21 10  1  0
  1 23  1  0
  1 24  1  0
  1 25  1  0
  2 26  1  0
  2 27  1  0
  3 28  1  0
  3 29  1  0
  6 30  1  0
  7 31  1  0
  7 32  1  0
 11 33  1  0
 12 34  1  0
 15 35  1  0
 15 36  1  0
 15 37  1  0
 19 38  1  0
 20 39  1  0
 20 40  1  0
 20 41  1  0
 22 42  1  0
M  END
>  <Energy>  (137) 
31.960271618514781

>  <compound_id>  (137) 
476

>  <target_id>  (137) 
1

>  <reference_id>  (137) 
20

>  <inspiration_ids>  (137) 
[55, 20]

>  <energy_score>  (137) 
-39.383354259141555

>  <distance_score>  (137) 
1.6387541755437287

>  <path>  (137) 
/opt/xchem-fragalysis-2/maxwin/BulkDock/SCRATCH/505733/C476-P20/C476-P20.minimised.mol

>  <scratch_subdir>  (137) 
/opt/xchem-fragalysis-2/maxwin/BulkDock/SCRATCH/505733/C476-P20

>  <fragmenstein_runtime>  (137) 
2.7264890670776367

>  <fragmenstein_outcome>  (137) 
too moved

>  <fragmenstein_mode>  (137) 
expansion

>  <fragmenstein_error>  (137) 


$$$$
C481-P55
     RDKit          3D

 49 52  0  0  0  0  0  0  0  0999 V2000
   10.1385    0.7315   15.4173 C   0  0  0  0  0  0  0  0  0  0  0  0
   10.0807   -0.7755   15.2444 C   0  0  0  0  0  0  0  0  0  0  0  0
   11.2922   -1.3833   14.5234 C   0  0  0  0  0  0  0  0  0  0  0  0
   12.4446   -1.6314   15.4128 N   0  0  0  0  0  0  0  0  0  0  0  0
   12.3179   -2.7843   16.1820 C   0  0  0  0  0  0  0  0  0  0  0  0
   11.3027   -3.4712   16.2002 O   0  0  0  0  0  0  0  0  0  0  0  0
   13.4418   -3.0981   17.1276 C   0  0  0  0  0  0  0  0  0  0  0  0
   14.8212   -2.8611   16.5662 C   0  0  0  0  0  0  0  0  0  0  0  0
   14.9329   -1.5173   15.8567 C   0  0  0  0  0  0  0  0  0  0  0  0
   14.9982   -0.3787   16.8054 N   0  0  0  0  0  0  0  0  0  0  0  0
   15.7082    0.7804   16.4780 C   0  0  0  0  0  0  0  0  0  0  0  0
   16.5087    0.8687   15.5586 O   0  0  0  0  0  0  0  0  0  0  0  0
   15.4722    1.9496   17.3522 C   0  0  0  0  0  0  0  0  0  0  0  0
   16.3275    1.9971   18.4631 C   0  0  0  0  0  0  0  0  0  0  0  0
   16.1922    3.0057   19.4039 C   0  0  0  0  0  0  0  0  0  0  0  0
   15.1833    3.9488   19.2536 C   0  0  0  0  0  0  0  0  0  0  0  0
   14.3309    3.9281   18.1352 C   0  0  0  0  0  0  0  0  0  0  0  0
   13.3415    4.9055   18.0103 C   0  0  0  0  0  0  0  0  0  0  0  0
   12.4985    5.0259   16.9669 N   0  0  0  0  0  0  0  0  0  0  0  0
   12.6557    4.1287   15.9813 C   0  0  0  0  0  0  0  0  0  0  0  0
   13.6038    3.1001   15.9833 C   0  0  0  0  0  0  0  0  0  0  0  0
   14.4667    2.9486   17.1174 C   0  0  0  0  0  0  0  0  0  0  0  0
   13.7213    2.2987   14.7183 C   0  0  0  0  0  0  0  0  0  0  0  0
   13.3024    0.9474   14.9023 N   0  0  0  0  0  0  0  0  0  0  0  0
   13.8727   -0.0599   14.1483 C   0  0  0  0  0  0  0  0  0  0  0  0
   14.5074    0.1236   13.1185 O   0  0  0  0  0  0  0  0  0  0  0  0
   13.7813   -1.4172   14.8251 C   0  0  0  0  0  0  0  0  0  0  0  0
   10.9241    1.0288   16.1106 H   0  0  0  0  0  0  0  0  0  0  0  0
   10.3057    1.2339   14.4597 H   0  0  0  0  0  0  0  0  0  0  0  0
    9.1926    1.0962   15.8312 H   0  0  0  0  0  0  0  0  0  0  0  0
    9.9536   -1.2434   16.2108 H   0  0  0  0  0  0  0  0  0  0  0  0
    9.1618   -0.9962   14.6963 H   0  0  0  0  0  0  0  0  0  0  0  0
   11.5728   -0.7448   13.6812 H   0  0  0  0  0  0  0  0  0  0  0  0
   11.0279   -2.3589   14.1013 H   0  0  0  0  0  0  0  0  0  0  0  0
   13.3560   -4.1484   17.4306 H   0  0  0  0  0  0  0  0  0  0  0  0
   13.3056   -2.4944   18.0258 H   0  0  0  0  0  0  0  0  0  0  0  0
   15.0576   -3.6591   15.8529 H   0  0  0  0  0  0  0  0  0  0  0  0
   15.5650   -2.9340   17.3686 H   0  0  0  0  0  0  0  0  0  0  0  0
   15.8821   -1.5078   15.3051 H   0  0  0  0  0  0  0  0  0  0  0  0
   14.3381   -0.3346   17.5717 H   0  0  0  0  0  0  0  0  0  0  0  0
   17.1039    1.2444   18.5901 H   0  0  0  0  0  0  0  0  0  0  0  0
   16.8560    3.0456   20.2641 H   0  0  0  0  0  0  0  0  0  0  0  0
   15.0745    4.7203   20.0148 H   0  0  0  0  0  0  0  0  0  0  0  0
   13.1950    5.6579   18.7819 H   0  0  0  0  0  0  0  0  0  0  0  0
   11.9840    4.2756   15.1379 H   0  0  0  0  0  0  0  0  0  0  0  0
   14.7476    2.3529   14.3384 H   0  0  0  0  0  0  0  0  0  0  0  0
   13.0899    2.7119   13.9224 H   0  0  0  0  0  0  0  0  0  0  0  0
   12.9292    0.6690   15.7990 H   0  0  0  0  0  0  0  0  0  0  0  0
   13.9077   -2.1852   14.0518 H   0  0  0  0  0  0  0  0  0  0  0  0
  1  2  1  0
  2  3  1  0
  3  4  1  0
  4  5  1  0
  5  6  2  0
  5  7  1  0
  7  8  1  0
  8  9  1  0
  9 10  1  0
 10 11  1  0
 11 12  2  0
 11 13  1  0
 13 14  2  0
 14 15  1  0
 15 16  2  0
 16 17  1  0
 17 18  2  0
 18 19  1  0
 19 20  2  0
 20 21  1  0
 21 22  2  0
 21 23  1  0
 23 24  1  0
 24 25  1  0
 25 26  2  0
 25 27  1  0
 27  4  1  0
 27  9  1  0
 22 13  1  0
 22 17  1  0
  1 28  1  0
  1 29  1  0
  1 30  1  0
  2 31  1  0
  2 32  1  0
  3 33  1  0
  3 34  1  0
  7 35  1  0
  7 36  1  0
  8 37  1  0
  8 38  1  0
  9 39  1  0
 10 40  1  0
 14 41  1  0
 15 42  1  0
 16 43  1  0
 18 44  1  0
 20 45  1  0
 23 46  1  0
 23 47  1  0
 24 48  1  0
 27 49  1  0
M  END
>  <Energy>  (138) 
54.769072912301937

>  <compound_id>  (138) 
481

>  <target_id>  (138) 
1

>  <reference_id>  (138) 
55

>  <inspiration_ids>  (138) 
[55, 31]

>  <energy_score>  (138) 
-72.95885655796394

>  <distance_score>  (138) 
2.1257844126269636

>  <path>  (138) 
/opt/xchem-fragalysis-2/maxwin/BulkDock/SCRATCH/505733/C481-P55/C481-P55.minimised.mol

>  <scratch_subdir>  (138) 
/opt/xchem-fragalysis-2/maxwin/BulkDock/SCRATCH/505733/C481-P55

>  <fragmenstein_runtime>  (138) 
2.5329434871673584

>  <fragmenstein_outcome>  (138) 
too moved

>  <fragmenstein_mode>  (138) 
expansion

>  <fragmenstein_error>  (138) 


$$$$
C481-P31
     RDKit          3D

 49 52  0  0  0  0  0  0  0  0999 V2000
   10.5157    2.6712   13.9340 C   0  0  0  0  0  0  0  0  0  0  0  0
   10.8715    1.2424   14.3230 C   0  0  0  0  0  0  0  0  0  0  0  0
   11.7372    0.5769   13.2505 C   0  0  0  0  0  0  0  0  0  0  0  0
   12.8376   -0.2990   13.7175 N   0  0  0  0  0  0  0  0  0  0  0  0
   13.5693   -0.9744   12.7499 C   0  0  0  0  0  0  0  0  0  0  0  0
   13.8051   -0.6287   11.6049 O   0  0  0  0  0  0  0  0  0  0  0  0
   14.1510   -2.1777   13.3726 C   0  0  0  0  0  0  0  0  0  0  0  0
   15.3601   -1.7873   14.1862 C   0  0  0  0  0  0  0  0  0  0  0  0
   15.1973   -0.4512   14.9359 C   0  0  0  0  0  0  0  0  0  0  0  0
   16.3650    0.4725   14.6393 N   0  0  0  0  0  0  0  0  0  0  0  0
   16.6830    1.7455   15.1283 C   0  0  0  0  0  0  0  0  0  0  0  0
   17.2381    2.5429   14.3694 O   0  0  0  0  0  0  0  0  0  0  0  0
   16.5417    2.1967   16.5416 C   0  0  0  0  0  0  0  0  0  0  0  0
   17.3510    1.4837   17.4360 C   0  0  0  0  0  0  0  0  0  0  0  0
   17.6389    1.9966   18.6971 C   0  0  0  0  0  0  0  0  0  0  0  0
   17.1648    3.2467   19.0701 C   0  0  0  0  0  0  0  0  0  0  0  0
   16.3436    3.9788   18.2104 C   0  0  0  0  0  0  0  0  0  0  0  0
   15.8857    5.2244   18.6418 C   0  0  0  0  0  0  0  0  0  0  0  0
   15.0352    6.0058   17.9592 N   0  0  0  0  0  0  0  0  0  0  0  0
   14.6096    5.5166   16.7859 C   0  0  0  0  0  0  0  0  0  0  0  0
   14.9886    4.2780   16.2521 C   0  0  0  0  0  0  0  0  0  0  0  0
   15.9489    3.4666   16.9403 C   0  0  0  0  0  0  0  0  0  0  0  0
   14.3082    3.8757   14.9833 C   0  0  0  0  0  0  0  0  0  0  0  0
   13.7156    2.5896   15.1516 N   0  0  0  0  0  0  0  0  0  0  0  0
   14.0218    1.6202   14.2422 C   0  0  0  0  0  0  0  0  0  0  0  0
   14.4699    1.8621   13.1265 O   0  0  0  0  0  0  0  0  0  0  0  0
   13.7747    0.2170   14.7137 C   0  0  0  0  0  0  0  0  0  0  0  0
    9.8456    3.1125   14.6781 H   0  0  0  0  0  0  0  0  0  0  0  0
   11.4058    3.3023   13.8700 H   0  0  0  0  0  0  0  0  0  0  0  0
   10.0226    2.7026   12.9590 H   0  0  0  0  0  0  0  0  0  0  0  0
   11.3490    1.2571   15.2989 H   0  0  0  0  0  0  0  0  0  0  0  0
    9.9490    0.6634   14.4518 H   0  0  0  0  0  0  0  0  0  0  0  0
   12.1283    1.2967   12.5220 H   0  0  0  0  0  0  0  0  0  0  0  0
   11.0544   -0.0519   12.6927 H   0  0  0  0  0  0  0  0  0  0  0  0
   14.4021   -2.8868   12.5795 H   0  0  0  0  0  0  0  0  0  0  0  0
   13.3667   -2.5935   14.0150 H   0  0  0  0  0  0  0  0  0  0  0  0
   16.2277   -1.7337   13.5153 H   0  0  0  0  0  0  0  0  0  0  0  0
   15.5918   -2.5905   14.8970 H   0  0  0  0  0  0  0  0  0  0  0  0
   15.3528   -0.7381   15.9684 H   0  0  0  0  0  0  0  0  0  0  0  0
   16.5661    0.5060   13.6404 H   0  0  0  0  0  0  0  0  0  0  0  0
   17.8172    0.5504   17.1222 H   0  0  0  0  0  0  0  0  0  0  0  0
   18.2907    1.4385   19.3671 H   0  0  0  0  0  0  0  0  0  0  0  0
   17.4555    3.6425   20.0430 H   0  0  0  0  0  0  0  0  0  0  0  0
   16.1961    5.6436   19.5970 H   0  0  0  0  0  0  0  0  0  0  0  0
   13.9080    6.1660   16.2655 H   0  0  0  0  0  0  0  0  0  0  0  0
   15.0171    3.9237   14.1509 H   0  0  0  0  0  0  0  0  0  0  0  0
   13.4845    4.5558   14.7378 H   0  0  0  0  0  0  0  0  0  0  0  0
   13.2960    2.3674   16.0373 H   0  0  0  0  0  0  0  0  0  0  0  0
   13.2136    0.1981   15.6276 H   0  0  0  0  0  0  0  0  0  0  0  0
  1  2  1  0
  2  3  1  0
  3  4  1  0
  4  5  1  0
  5  6  2  0
  5  7  1  0
  7  8  1  0
  8  9  1  0
  9 10  1  0
 10 11  1  0
 11 12  2  0
 11 13  1  0
 13 14  2  0
 14 15  1  0
 15 16  2  0
 16 17  1  0
 17 18  2  0
 18 19  1  0
 19 20  2  0
 20 21  1  0
 21 22  2  0
 21 23  1  0
 23 24  1  0
 24 25  1  0
 25 26  2  0
 25 27  1  0
 27  4  1  0
 27  9  1  0
 22 13  1  0
 22 17  1  0
  1 28  1  0
  1 29  1  0
  1 30  1  0
  2 31  1  0
  2 32  1  0
  3 33  1  0
  3 34  1  0
  7 35  1  0
  7 36  1  0
  8 37  1  0
  8 38  1  0
  9 39  1  0
 10 40  1  0
 14 41  1  0
 15 42  1  0
 16 43  1  0
 18 44  1  0
 20 45  1  0
 23 46  1  0
 23 47  1  0
 24 48  1  0
 27 49  1  0
M  END
>  <Energy>  (139) 
109.52239903628342

>  <compound_id>  (139) 
481

>  <target_id>  (139) 
1

>  <reference_id>  (139) 
31

>  <inspiration_ids>  (139) 
[55, 31]

>  <energy_score>  (139) 
-18.20553043398388

>  <distance_score>  (139) 
2.9516280825761547

>  <path>  (139) 
/opt/xchem-fragalysis-2/maxwin/BulkDock/SCRATCH/505733/C481-P31/C481-P31.minimised.mol

>  <scratch_subdir>  (139) 
/opt/xchem-fragalysis-2/maxwin/BulkDock/SCRATCH/505733/C481-P31

>  <fragmenstein_runtime>  (139) 
1.9329817295074463

>  <fragmenstein_outcome>  (139) 
too moved

>  <fragmenstein_mode>  (139) 
expansion

>  <fragmenstein_error>  (139) 


$$$$
C482-P55
     RDKit          3D

 45 47  0  0  0  0  0  0  0  0999 V2000
   15.6011    5.0290   16.4697 C   0  0  0  0  0  0  0  0  0  0  0  0
   14.8770    3.7035   16.3154 C   0  0  0  0  0  0  0  0  0  0  0  0
   15.7711    2.6658   15.6304 C   0  0  0  0  0  0  0  0  0  0  0  0
   15.0746    1.2707   15.5348 C   0  0  0  0  0  0  0  0  0  0  0  0
   14.5442    0.9048   14.2343 C   0  0  0  0  0  0  0  0  0  0  0  0
   14.6565    2.0077   13.1262 C   0  0  0  0  0  0  0  0  0  0  0  0
   14.0290    1.5742   11.9123 O   0  0  0  0  0  0  0  0  0  0  0  0
   13.8104   -0.2586   13.5530 N   0  0  0  0  0  0  0  0  0  0  0  0
   13.5055   -1.8129   13.6792 C   0  0  0  0  0  0  0  0  0  0  0  0
   12.6946   -2.4749   15.1186 C   0  0  0  0  0  0  0  0  0  0  0  0
   11.3562   -2.1196   15.0427 C   0  0  0  0  0  0  0  0  0  0  0  0
   11.1134   -0.8373   15.4801 C   0  0  0  0  0  0  0  0  0  0  0  0
   12.2695   -0.1297   15.8546 C   0  0  0  0  0  0  0  0  0  0  0  0
   12.1168    1.3643   15.9530 C   0  0  0  0  0  0  0  0  0  0  0  0
   13.6535   -0.9444   15.8714 C   0  0  0  0  0  0  0  0  0  0  0  0
   15.2625   -1.4149   15.6173 C   0  0  0  0  0  0  0  0  0  0  0  0
   15.9711   -2.3653   16.2932 N   0  0  0  0  0  0  0  0  0  0  0  0
   15.3298   -2.6646   17.4022 C   0  0  0  0  0  0  0  0  0  0  0  0
   14.1617   -1.9701   17.5637 C   0  0  0  0  0  0  0  0  0  0  0  0
   13.2863   -2.0084   16.3720 C   0  0  0  0  0  0  0  0  0  0  0  0
   14.5286   -0.3003   17.9746 C   0  0  0  0  0  0  0  0  0  0  0  0
   15.2173    0.6841   16.9344 N   0  0  0  0  0  0  0  0  0  0  0  0
   16.5026    4.9162   17.0803 H   0  0  0  0  0  0  0  0  0  0  0  0
   14.9507    5.7614   16.9581 H   0  0  0  0  0  0  0  0  0  0  0  0
   15.8937    5.4330   15.4952 H   0  0  0  0  0  0  0  0  0  0  0  0
   14.5694    3.3556   17.3082 H   0  0  0  0  0  0  0  0  0  0  0  0
   13.9643    3.8609   15.7299 H   0  0  0  0  0  0  0  0  0  0  0  0
   16.1164    3.0571   14.6724 H   0  0  0  0  0  0  0  0  0  0  0  0
   16.7069    2.5540   16.1970 H   0  0  0  0  0  0  0  0  0  0  0  0
   14.1612    2.9334   13.4300 H   0  0  0  0  0  0  0  0  0  0  0  0
   15.7047    2.1844   12.8689 H   0  0  0  0  0  0  0  0  0  0  0  0
   14.2827    0.6306   11.8597 H   0  0  0  0  0  0  0  0  0  0  0  0
   12.9585    0.1632   13.1583 H   0  0  0  0  0  0  0  0  0  0  0  0
   12.8363   -2.0762   12.8544 H   0  0  0  0  0  0  0  0  0  0  0  0
   14.4319   -2.3762   13.5251 H   0  0  0  0  0  0  0  0  0  0  0  0
   10.6374   -2.6749   14.4574 H   0  0  0  0  0  0  0  0  0  0  0  0
   10.1485   -0.3667   15.3337 H   0  0  0  0  0  0  0  0  0  0  0  0
   11.0912    1.6211   16.2459 H   0  0  0  0  0  0  0  0  0  0  0  0
   12.2863    1.8620   14.9969 H   0  0  0  0  0  0  0  0  0  0  0  0
   12.7500    1.7812   16.7360 H   0  0  0  0  0  0  0  0  0  0  0  0
   15.8775   -0.9185   14.8707 H   0  0  0  0  0  0  0  0  0  0  0  0
   15.8418   -3.2194   18.1717 H   0  0  0  0  0  0  0  0  0  0  0  0
   13.6023    0.1580   18.3300 H   0  0  0  0  0  0  0  0  0  0  0  0
   15.2067   -0.3807   18.8340 H   0  0  0  0  0  0  0  0  0  0  0  0
   15.8035    1.3013   17.4945 H   0  0  0  0  0  0  0  0  0  0  0  0
  1  2  1  0
  2  3  1  0
  3  4  1  0
  4  5  2  3
  5  6  1  0
  6  7  1  0
  5  8  1  0
  8  9  1  0
  9 10  1  0
 10 11  2  0
 11 12  1  0
 12 13  2  0
 13 14  1  0
 13 15  1  0
 15 16  2  0
 16 17  1  0
 17 18  2  0
 18 19  1  0
 19 20  2  0
 19 21  1  0
 21 22  1  0
 22  4  1  0
 20 10  1  0
 20 15  1  0
  1 23  1  0
  1 24  1  0
  1 25  1  0
  2 26  1  0
  2 27  1  0
  3 28  1  0
  3 29  1  0
  6 30  1  0
  6 31  1  0
  7 32  1  0
  8 33  1  0
  9 34  1  0
  9 35  1  0
 11 36  1  0
 12 37  1  0
 14 38  1  0
 14 39  1  0
 14 40  1  0
 16 41  1  0
 18 42  1  0
 21 43  1  0
 21 44  1  0
 22 45  1  0
M  END
>  <Energy>  (140) 
559.53527618720534

>  <compound_id>  (140) 
482

>  <target_id>  (140) 
1

>  <reference_id>  (140) 
55

>  <inspiration_ids>  (140) 
[55, 36]

>  <energy_score>  (140) 
405.61817979555565

>  <distance_score>  (140) 
2.0009937586108424

>  <path>  (140) 
/opt/xchem-fragalysis-2/maxwin/BulkDock/SCRATCH/505733/C482-P55/C482-P55.minimised.mol

>  <scratch_subdir>  (140) 
/opt/xchem-fragalysis-2/maxwin/BulkDock/SCRATCH/505733/C482-P55

>  <fragmenstein_runtime>  (140) 
6.322545051574707

>  <fragmenstein_outcome>  (140) 
too moved

>  <fragmenstein_mode>  (140) 
expansion

>  <fragmenstein_error>  (140) 


$$$$
C482-P36
     RDKit          3D

 45 47  0  0  0  0  0  0  0  0999 V2000
   17.1842    3.4036   16.6070 C   0  0  0  0  0  0  0  0  0  0  0  0
   16.0403    3.8018   15.6894 C   0  0  0  0  0  0  0  0  0  0  0  0
   14.7322    3.0528   15.9564 C   0  0  0  0  0  0  0  0  0  0  0  0
   14.7675    1.5330   15.6422 C   0  0  0  0  0  0  0  0  0  0  0  0
   14.4307    1.1182   14.3020 C   0  0  0  0  0  0  0  0  0  0  0  0
   14.1977    2.1974   13.2126 C   0  0  0  0  0  0  0  0  0  0  0  0
   14.9010    1.7964   12.0263 O   0  0  0  0  0  0  0  0  0  0  0  0
   14.3650   -0.2256   13.5905 N   0  0  0  0  0  0  0  0  0  0  0  0
   13.3204   -1.4495   13.5676 C   0  0  0  0  0  0  0  0  0  0  0  0
   12.7709   -2.3849   15.0238 C   0  0  0  0  0  0  0  0  0  0  0  0
   11.3989   -2.2047   15.0617 C   0  0  0  0  0  0  0  0  0  0  0  0
   11.0636   -0.9493   15.5164 C   0  0  0  0  0  0  0  0  0  0  0  0
   12.1770   -0.1396   15.8358 C   0  0  0  0  0  0  0  0  0  0  0  0
   11.8738    1.3300   15.9322 C   0  0  0  0  0  0  0  0  0  0  0  0
   13.6564   -0.8386   15.8236 C   0  0  0  0  0  0  0  0  0  0  0  0
   15.2974   -1.2737   15.6630 C   0  0  0  0  0  0  0  0  0  0  0  0
   15.9961   -2.2129   16.3778 N   0  0  0  0  0  0  0  0  0  0  0  0
   15.3085   -2.5247   17.4556 C   0  0  0  0  0  0  0  0  0  0  0  0
   14.1256   -1.8500   17.5524 C   0  0  0  0  0  0  0  0  0  0  0  0
   13.3421   -1.9237   16.2862 C   0  0  0  0  0  0  0  0  0  0  0  0
   14.4495   -0.1506   17.9667 C   0  0  0  0  0  0  0  0  0  0  0  0
   15.1789    0.8237   16.9139 N   0  0  0  0  0  0  0  0  0  0  0  0
   16.8995    3.4981   17.6596 H   0  0  0  0  0  0  0  0  0  0  0  0
   18.0462    4.0563   16.4337 H   0  0  0  0  0  0  0  0  0  0  0  0
   17.5103    2.3763   16.4197 H   0  0  0  0  0  0  0  0  0  0  0  0
   15.8526    4.8744   15.8211 H   0  0  0  0  0  0  0  0  0  0  0  0
   16.3624    3.6666   14.6513 H   0  0  0  0  0  0  0  0  0  0  0  0
   14.4496    3.1982   17.0087 H   0  0  0  0  0  0  0  0  0  0  0  0
   13.9150    3.5372   15.4094 H   0  0  0  0  0  0  0  0  0  0  0  0
   13.1336    2.2480   12.9629 H   0  0  0  0  0  0  0  0  0  0  0  0
   14.5463    3.1992   13.4520 H   0  0  0  0  0  0  0  0  0  0  0  0
   15.8116    1.6102   12.3243 H   0  0  0  0  0  0  0  0  0  0  0  0
   14.4585    0.0097   12.5933 H   0  0  0  0  0  0  0  0  0  0  0  0
   12.4122   -1.0669   13.0960 H   0  0  0  0  0  0  0  0  0  0  0  0
   13.7609   -2.2191   12.9258 H   0  0  0  0  0  0  0  0  0  0  0  0
   10.7054   -2.8175   14.5024 H   0  0  0  0  0  0  0  0  0  0  0  0
   10.0545   -0.5679   15.4165 H   0  0  0  0  0  0  0  0  0  0  0  0
   10.8253    1.4834   16.2190 H   0  0  0  0  0  0  0  0  0  0  0  0
   11.9959    1.8368   14.9751 H   0  0  0  0  0  0  0  0  0  0  0  0
   12.4493    1.8099   16.7232 H   0  0  0  0  0  0  0  0  0  0  0  0
   15.9688   -0.6870   15.0384 H   0  0  0  0  0  0  0  0  0  0  0  0
   15.7891   -3.0756   18.2470 H   0  0  0  0  0  0  0  0  0  0  0  0
   15.1024   -0.2133   18.8463 H   0  0  0  0  0  0  0  0  0  0  0  0
   13.5065    0.3031   18.2730 H   0  0  0  0  0  0  0  0  0  0  0  0
   15.6873    1.4880   17.4949 H   0  0  0  0  0  0  0  0  0  0  0  0
  1  2  1  0
  2  3  1  0
  3  4  1  0
  4  5  2  3
  5  6  1  0
  6  7  1  0
  5  8  1  0
  8  9  1  0
  9 10  1  0
 10 11  2  0
 11 12  1  0
 12 13  2  0
 13 14  1  0
 13 15  1  0
 15 16  2  0
 16 17  1  0
 17 18  2  0
 18 19  1  0
 19 20  2  0
 19 21  1  0
 21 22  1  0
 22  4  1  0
 20 10  1  0
 20 15  1  0
  1 23  1  0
  1 24  1  0
  1 25  1  0
  2 26  1  0
  2 27  1  0
  3 28  1  0
  3 29  1  0
  6 30  1  0
  6 31  1  0
  7 32  1  0
  8 33  1  0
  9 34  1  0
  9 35  1  0
 11 36  1  0
 12 37  1  0
 14 38  1  0
 14 39  1  0
 14 40  1  0
 16 41  1  0
 18 42  1  0
 21 43  1  0
 21 44  1  0
 22 45  1  0
M  END
>  <Energy>  (141) 
566.41394181458054

>  <compound_id>  (141) 
482

>  <target_id>  (141) 
1

>  <reference_id>  (141) 
36

>  <inspiration_ids>  (141) 
[55, 36]

>  <energy_score>  (141) 
412.4968454229304

>  <distance_score>  (141) 
1.8293380038562543

>  <path>  (141) 
/opt/xchem-fragalysis-2/maxwin/BulkDock/SCRATCH/505733/C482-P36/C482-P36.minimised.mol

>  <scratch_subdir>  (141) 
/opt/xchem-fragalysis-2/maxwin/BulkDock/SCRATCH/505733/C482-P36

>  <fragmenstein_runtime>  (141) 
5.9232494831085205

>  <fragmenstein_outcome>  (141) 
too moved

>  <fragmenstein_mode>  (141) 
expansion

>  <fragmenstein_error>  (141) 


$$$$
C483-P55
     RDKit          3D

 31 32  0  0  0  0  0  0  0  0999 V2000
   15.7160    4.0380   19.7026 C   0  0  0  0  0  0  0  0  0  0  0  0
   17.0033    4.1956   18.9055 C   0  0  0  0  0  0  0  0  0  0  0  0
   17.1383    3.2447   17.7208 C   0  0  0  0  0  0  0  0  0  0  0  0
   16.0560    3.5066   16.6835 C   0  0  0  0  0  0  0  0  0  0  0  0
   16.1568    4.3201   15.8552 O   0  0  0  0  0  0  0  0  0  0  0  0
   14.8691    2.5886   17.0446 N   0  0  0  0  0  0  0  0  0  0  0  0
   13.6060    2.4158   16.4085 C   0  0  0  0  0  0  0  0  0  0  0  0
   13.2972    0.9641   16.3466 C   0  0  0  0  0  0  0  0  0  0  0  0
   13.9082   -0.0357   16.9603 N   0  0  0  0  0  0  0  0  0  0  0  0
   13.2571   -1.1848   16.5548 C   0  0  0  0  0  0  0  0  0  0  0  0
   13.4751   -2.5447   16.8494 C   0  0  0  0  0  0  0  0  0  0  0  0
   15.0520   -3.1860   18.0244 I   0  0  0  0  0  0  0  0  0  0  0  0
   12.5991   -3.5004   16.3207 C   0  0  0  0  0  0  0  0  0  0  0  0
   11.5446   -3.1180   15.4928 C   0  0  0  0  0  0  0  0  0  0  0  0
   11.3146   -1.7814   15.1828 C   0  0  0  0  0  0  0  0  0  0  0  0
   12.1934   -0.8518   15.7223 C   0  0  0  0  0  0  0  0  0  0  0  0
   12.2576    0.5057   15.5840 N   0  0  0  0  0  0  0  0  0  0  0  0
   15.5743    3.0009   20.0223 H   0  0  0  0  0  0  0  0  0  0  0  0
   14.8422    4.3515   19.1240 H   0  0  0  0  0  0  0  0  0  0  0  0
   15.7542    4.6646   20.5998 H   0  0  0  0  0  0  0  0  0  0  0  0
   17.8530    4.0313   19.5789 H   0  0  0  0  0  0  0  0  0  0  0  0
   17.0737    5.2331   18.5566 H   0  0  0  0  0  0  0  0  0  0  0  0
   18.1069    3.3994   17.2301 H   0  0  0  0  0  0  0  0  0  0  0  0
   17.1302    2.2005   18.0512 H   0  0  0  0  0  0  0  0  0  0  0  0
   15.1525    1.9376   17.7707 H   0  0  0  0  0  0  0  0  0  0  0  0
   12.8567    2.9397   17.0092 H   0  0  0  0  0  0  0  0  0  0  0  0
   13.6454    2.8677   15.4131 H   0  0  0  0  0  0  0  0  0  0  0  0
   12.7331   -4.5559   16.5460 H   0  0  0  0  0  0  0  0  0  0  0  0
   10.8820   -3.8726   15.0782 H   0  0  0  0  0  0  0  0  0  0  0  0
   10.4895   -1.4844   14.5494 H   0  0  0  0  0  0  0  0  0  0  0  0
   11.6477    1.0677   15.0069 H   0  0  0  0  0  0  0  0  0  0  0  0
  1  2  1  0
  2  3  1  0
  3  4  1  0
  4  5  2  0
  4  6  1  0
  6  7  1  0
  7  8  1  0
  8  9  2  0
  9 10  1  0
 10 11  2  0
 11 12  1  0
 11 13  1  0
 13 14  2  0
 14 15  1  0
 15 16  2  0
 16 17  1  0
 17  8  1  0
 16 10  1  0
  1 18  1  0
  1 19  1  0
  1 20  1  0
  2 21  1  0
  2 22  1  0
  3 23  1  0
  3 24  1  0
  6 25  1  0
  7 26  1  0
  7 27  1  0
 13 28  1  0
 14 29  1  0
 15 30  1  0
 17 31  1  0
M  END
>  <Energy>  (142) 
15.459961555053098

>  <compound_id>  (142) 
483

>  <target_id>  (142) 
1

>  <reference_id>  (142) 
55

>  <inspiration_ids>  (142) 
[55, 61]

>  <energy_score>  (142) 
-0.9136405873405522

>  <distance_score>  (142) 
0.9228668283728271

>  <path>  (142) 
/opt/xchem-fragalysis-2/maxwin/BulkDock/SCRATCH/505733/C483-P55/C483-P55.minimised.mol

>  <scratch_subdir>  (142) 
/opt/xchem-fragalysis-2/maxwin/BulkDock/SCRATCH/505733/C483-P55

>  <fragmenstein_runtime>  (142) 
1.5410830974578857

>  <fragmenstein_outcome>  (142) 
acceptable

>  <fragmenstein_mode>  (142) 
expansion

>  <fragmenstein_error>  (142) 


$$$$
C483-P61
     RDKit          3D

 31 32  0  0  0  0  0  0  0  0999 V2000
   15.7199    3.9333   19.7021 C   0  0  0  0  0  0  0  0  0  0  0  0
   16.9753    4.2495   18.9015 C   0  0  0  0  0  0  0  0  0  0  0  0
   17.1313    3.4383   17.6195 C   0  0  0  0  0  0  0  0  0  0  0  0
   15.9704    3.7002   16.6713 C   0  0  0  0  0  0  0  0  0  0  0  0
   15.9186    4.6358   15.9784 O   0  0  0  0  0  0  0  0  0  0  0  0
   14.9396    2.5774   16.9147 N   0  0  0  0  0  0  0  0  0  0  0  0
   13.6072    2.4242   16.4335 C   0  0  0  0  0  0  0  0  0  0  0  0
   13.2804    0.9774   16.3744 C   0  0  0  0  0  0  0  0  0  0  0  0
   13.8893   -0.0321   16.9742 N   0  0  0  0  0  0  0  0  0  0  0  0
   13.2321   -1.1741   16.5570 C   0  0  0  0  0  0  0  0  0  0  0  0
   13.4524   -2.5398   16.8238 C   0  0  0  0  0  0  0  0  0  0  0  0
   15.0335   -3.2022   17.9821 I   0  0  0  0  0  0  0  0  0  0  0  0
   12.5774   -3.4864   16.2766 C   0  0  0  0  0  0  0  0  0  0  0  0
   11.5139   -3.0873   15.4683 C   0  0  0  0  0  0  0  0  0  0  0  0
   11.2785   -1.7448   15.1890 C   0  0  0  0  0  0  0  0  0  0  0  0
   12.1621   -0.8259   15.7389 C   0  0  0  0  0  0  0  0  0  0  0  0
   12.2269    0.5335   15.6225 N   0  0  0  0  0  0  0  0  0  0  0  0
   15.6562    2.8644   19.9285 H   0  0  0  0  0  0  0  0  0  0  0  0
   14.8137    4.2344   19.1683 H   0  0  0  0  0  0  0  0  0  0  0  0
   15.7361    4.4779   20.6519 H   0  0  0  0  0  0  0  0  0  0  0  0
   17.8518    4.0700   19.5354 H   0  0  0  0  0  0  0  0  0  0  0  0
   16.9743    5.3198   18.6614 H   0  0  0  0  0  0  0  0  0  0  0  0
   18.0526    3.7320   17.1022 H   0  0  0  0  0  0  0  0  0  0  0  0
   17.2359    2.3710   17.8420 H   0  0  0  0  0  0  0  0  0  0  0  0
   15.2768    1.9604   17.6469 H   0  0  0  0  0  0  0  0  0  0  0  0
   12.9394    2.9409   17.1294 H   0  0  0  0  0  0  0  0  0  0  0  0
   13.5321    2.9066   15.4544 H   0  0  0  0  0  0  0  0  0  0  0  0
   12.7161   -4.5470   16.4733 H   0  0  0  0  0  0  0  0  0  0  0  0
   10.8462   -3.8334   15.0465 H   0  0  0  0  0  0  0  0  0  0  0  0
   10.4476   -1.4358   14.5681 H   0  0  0  0  0  0  0  0  0  0  0  0
   11.6165    1.1051   15.0557 H   0  0  0  0  0  0  0  0  0  0  0  0
  1  2  1  0
  2  3  1  0
  3  4  1  0
  4  5  2  0
  4  6  1  0
  6  7  1  0
  7  8  1  0
  8  9  2  0
  9 10  1  0
 10 11  2  0
 11 12  1  0
 11 13  1  0
 13 14  2  0
 14 15  1  0
 15 16  2  0
 16 17  1  0
 17  8  1  0
 16 10  1  0
  1 18  1  0
  1 19  1  0
  1 20  1  0
  2 21  1  0
  2 22  1  0
  3 23  1  0
  3 24  1  0
  6 25  1  0
  7 26  1  0
  7 27  1  0
 13 28  1  0
 14 29  1  0
 15 30  1  0
 17 31  1  0
M  END
>  <Energy>  (143) 
15.418283920079434

>  <compound_id>  (143) 
483

>  <target_id>  (143) 
1

>  <reference_id>  (143) 
61

>  <inspiration_ids>  (143) 
[55, 61]

>  <energy_score>  (143) 
-0.9553182223133803

>  <distance_score>  (143) 
1.0007126263217232

>  <path>  (143) 
/opt/xchem-fragalysis-2/maxwin/BulkDock/SCRATCH/505733/C483-P61/C483-P61.minimised.mol

>  <scratch_subdir>  (143) 
/opt/xchem-fragalysis-2/maxwin/BulkDock/SCRATCH/505733/C483-P61

>  <fragmenstein_runtime>  (143) 
1.5154659748077393

>  <fragmenstein_outcome>  (143) 
too moved

>  <fragmenstein_mode>  (143) 
expansion

>  <fragmenstein_error>  (143) 


$$$$
C486-P55
     RDKit          3D

 64 63  0  0  0  0  0  0  0  0999 V2000
   16.7426    6.6292   19.2891 C   0  0  0  0  0  0  0  0  0  0  0  0
   18.0059    5.8518   18.9449 C   0  0  0  0  0  0  0  0  0  0  0  0
   17.8548    4.3389   19.0517 C   0  0  0  0  0  0  0  0  0  0  0  0
   17.3616    3.6740   17.7673 C   0  0  0  0  0  0  0  0  0  0  0  0
   18.1093    2.9757   17.1448 O   0  0  0  0  0  0  0  0  0  0  0  0
   15.9867    3.9850   17.5586 N   0  0  0  0  0  0  0  0  0  0  0  0
   15.0367    3.4844   16.5912 C   0  0  0  0  0  0  0  0  0  0  0  0
   14.4303    2.1596   17.1190 C   0  0  0  0  0  0  0  0  0  0  0  0
   13.9008    2.3681   18.4556 N   0  0  0  0  0  0  0  0  0  0  0  0
   13.3132    1.6666   16.3481 N   0  0  0  0  0  0  0  0  0  0  0  0
   13.1544    0.2190   16.5055 C   0  0  0  0  0  0  0  0  0  0  0  0
   14.0119   -0.6058   15.5459 C   0  0  0  0  0  0  0  0  0  0  0  0
   14.2574   -2.0511   16.0195 C   0  0  0  0  0  0  0  0  0  0  0  0
   12.9881   -2.8467   16.3796 C   0  0  0  0  0  0  0  0  0  0  0  0
   11.9512   -3.0240   15.2721 C   0  0  0  0  0  0  0  0  0  0  0  0
   10.9084   -1.9357   15.1723 C   0  0  0  0  0  0  0  0  0  0  0  0
   11.3735   -0.9086   14.4231 F   0  0  0  0  0  0  0  0  0  0  0  0
   15.1276   -2.1211   17.2135 N   0  0  0  0  0  0  0  0  0  0  0  0
   16.5015   -1.6739   16.9849 C   0  0  0  0  0  0  0  0  0  0  0  0
   17.4113   -2.0313   18.1655 C   0  0  0  0  0  0  0  0  0  0  0  0
   17.1426   -1.2876   19.4802 C   0  0  0  0  0  0  0  0  0  0  0  0
   17.2759    0.2308   19.4032 C   0  0  0  0  0  0  0  0  0  0  0  0
   18.5294    0.6683   18.8463 N   0  0  0  0  0  0  0  0  0  0  0  0
   19.8681    0.5529   19.3411 C   0  0  0  0  0  0  0  0  0  0  0  0
   20.8128    1.2730   18.3999 C   0  0  0  0  0  0  0  0  0  0  0  0
   20.2988   -0.0059   20.3068 O   0  0  0  0  0  0  0  0  0  0  0  0
   15.9969    6.5684   18.4924 H   0  0  0  0  0  0  0  0  0  0  0  0
   16.9848    7.6898   19.4160 H   0  0  0  0  0  0  0  0  0  0  0  0
   16.2950    6.2738   20.2223 H   0  0  0  0  0  0  0  0  0  0  0  0
   18.7843    6.1633   19.6526 H   0  0  0  0  0  0  0  0  0  0  0  0
   18.3523    6.1396   17.9456 H   0  0  0  0  0  0  0  0  0  0  0  0
   18.8399    3.9072   19.2700 H   0  0  0  0  0  0  0  0  0  0  0  0
   17.2055    4.0491   19.8862 H   0  0  0  0  0  0  0  0  0  0  0  0
   15.6543    4.5442   18.3331 H   0  0  0  0  0  0  0  0  0  0  0  0
   14.2708    4.2542   16.4490 H   0  0  0  0  0  0  0  0  0  0  0  0
   15.5581    3.3112   15.6441 H   0  0  0  0  0  0  0  0  0  0  0  0
   15.2482    1.4337   17.1580 H   0  0  0  0  0  0  0  0  0  0  0  0
   13.6909    1.4697   18.8698 H   0  0  0  0  0  0  0  0  0  0  0  0
   12.9925    2.8272   18.3455 H   0  0  0  0  0  0  0  0  0  0  0  0
   13.4591    1.8678   15.3582 H   0  0  0  0  0  0  0  0  0  0  0  0
   12.1014    0.0201   16.3260 H   0  0  0  0  0  0  0  0  0  0  0  0
   13.3281   -0.0823   17.5416 H   0  0  0  0  0  0  0  0  0  0  0  0
   14.9781   -0.1137   15.3845 H   0  0  0  0  0  0  0  0  0  0  0  0
   13.5571   -0.6160   14.5500 H   0  0  0  0  0  0  0  0  0  0  0  0
   14.7605   -2.5871   15.2050 H   0  0  0  0  0  0  0  0  0  0  0  0
   13.3096   -3.8576   16.6718 H   0  0  0  0  0  0  0  0  0  0  0  0
   12.5096   -2.4269   17.2686 H   0  0  0  0  0  0  0  0  0  0  0  0
   12.4326   -3.1388   14.2989 H   0  0  0  0  0  0  0  0  0  0  0  0
   11.4110   -3.9488   15.4963 H   0  0  0  0  0  0  0  0  0  0  0  0
   10.0035   -2.3265   14.7095 H   0  0  0  0  0  0  0  0  0  0  0  0
   10.6185   -1.5413   16.1434 H   0  0  0  0  0  0  0  0  0  0  0  0
   14.7227   -1.6364   18.0094 H   0  0  0  0  0  0  0  0  0  0  0  0
   16.9020   -2.1767   16.0963 H   0  0  0  0  0  0  0  0  0  0  0  0
   16.5478   -0.5978   16.7986 H   0  0  0  0  0  0  0  0  0  0  0  0
   17.3386   -3.1099   18.3589 H   0  0  0  0  0  0  0  0  0  0  0  0
   18.4512   -1.8570   17.8619 H   0  0  0  0  0  0  0  0  0  0  0  0
   17.8536   -1.6656   20.2260 H   0  0  0  0  0  0  0  0  0  0  0  0
   16.1441   -1.5394   19.8558 H   0  0  0  0  0  0  0  0  0  0  0  0
   16.4751    0.6611   18.8019 H   0  0  0  0  0  0  0  0  0  0  0  0
   17.2015    0.6520   20.4114 H   0  0  0  0  0  0  0  0  0  0  0  0
   18.5260    1.2939   18.0369 H   0  0  0  0  0  0  0  0  0  0  0  0
   20.6767    2.3532   18.4949 H   0  0  0  0  0  0  0  0  0  0  0  0
   21.8463    1.0238   18.6588 H   0  0  0  0  0  0  0  0  0  0  0  0
   20.6359    0.9610   17.3665 H   0  0  0  0  0  0  0  0  0  0  0  0
  1  2  1  0
  2  3  1  0
  3  4  1  0
  4  5  2  0
  4  6  1  0
  6  7  1  0
  7  8  1  0
  8  9  1  0
  8 10  1  0
 10 11  1  0
 11 12  1  0
 12 13  1  0
 13 14  1  0
 14 15  1  0
 15 16  1  0
 16 17  1  0
 13 18  1  0
 18 19  1  0
 19 20  1  0
 20 21  1  0
 21 22  1  0
 22 23  1  0
 23 24  1  0
 24 25  1  0
 24 26  2  0
  1 27  1  0
  1 28  1  0
  1 29  1  0
  2 30  1  0
  2 31  1  0
  3 32  1  0
  3 33  1  0
  6 34  1  0
  7 35  1  0
  7 36  1  0
  8 37  1  0
  9 38  1  0
  9 39  1  0
 10 40  1  0
 11 41  1  0
 11 42  1  0
 12 43  1  0
 12 44  1  0
 13 45  1  0
 14 46  1  0
 14 47  1  0
 15 48  1  0
 15 49  1  0
 16 50  1  0
 16 51  1  0
 18 52  1  0
 19 53  1  0
 19 54  1  0
 20 55  1  0
 20 56  1  0
 21 57  1  0
 21 58  1  0
 22 59  1  0
 22 60  1  0
 23 61  1  0
 25 62  1  0
 25 63  1  0
 25 64  1  0
M  END
>  <Energy>  (144) 
-58.208704900082793

>  <compound_id>  (144) 
486

>  <target_id>  (144) 
1

>  <reference_id>  (144) 
55

>  <inspiration_ids>  (144) 
[55, 71]

>  <energy_score>  (144) 
-56.838475540780586

>  <distance_score>  (144) 
2.60415600295619

>  <path>  (144) 
/opt/xchem-fragalysis-2/maxwin/BulkDock/SCRATCH/505733/C486-P55/C486-P55.minimised.mol

>  <scratch_subdir>  (144) 
/opt/xchem-fragalysis-2/maxwin/BulkDock/SCRATCH/505733/C486-P55

>  <fragmenstein_runtime>  (144) 
9.670422315597534

>  <fragmenstein_outcome>  (144) 
too moved

>  <fragmenstein_mode>  (144) 
expansion

>  <fragmenstein_error>  (144) 


$$$$
C486-P71
     RDKit          3D

 64 63  0  0  0  0  0  0  0  0999 V2000
   16.0723    3.9343   19.5566 C   0  0  0  0  0  0  0  0  0  0  0  0
   16.9987    4.2643   18.3940 C   0  0  0  0  0  0  0  0  0  0  0  0
   16.2280    4.4896   17.0938 C   0  0  0  0  0  0  0  0  0  0  0  0
   15.6362    3.1931   16.5280 C   0  0  0  0  0  0  0  0  0  0  0  0
   16.2272    2.1598   16.6567 O   0  0  0  0  0  0  0  0  0  0  0  0
   14.3903    3.4852   15.8796 N   0  0  0  0  0  0  0  0  0  0  0  0
   13.4088    2.6099   15.2592 C   0  0  0  0  0  0  0  0  0  0  0  0
   13.3201    1.1626   15.8291 C   0  0  0  0  0  0  0  0  0  0  0  0
   13.2128    1.1438   17.2687 N   0  0  0  0  0  0  0  0  0  0  0  0
   12.1246    0.5150   15.3364 N   0  0  0  0  0  0  0  0  0  0  0  0
   11.9749   -0.9167   15.6162 C   0  0  0  0  0  0  0  0  0  0  0  0
   13.0409   -1.8396   15.0248 C   0  0  0  0  0  0  0  0  0  0  0  0
   14.1944   -2.3530   15.9382 C   0  0  0  0  0  0  0  0  0  0  0  0
   15.5106   -2.4713   15.1316 C   0  0  0  0  0  0  0  0  0  0  0  0
   16.3113   -1.1815   14.9454 C   0  0  0  0  0  0  0  0  0  0  0  0
   16.0095   -0.4309   13.6627 C   0  0  0  0  0  0  0  0  0  0  0  0
   16.3062   -1.2229   12.5978 F   0  0  0  0  0  0  0  0  0  0  0  0
   14.3428   -1.6754   17.2513 N   0  0  0  0  0  0  0  0  0  0  0  0
   15.4930   -2.1708   18.0343 C   0  0  0  0  0  0  0  0  0  0  0  0
   15.4603   -1.6851   19.4865 C   0  0  0  0  0  0  0  0  0  0  0  0
   15.7573   -0.1995   19.7108 C   0  0  0  0  0  0  0  0  0  0  0  0
   17.2401    0.1537   19.6932 C   0  0  0  0  0  0  0  0  0  0  0  0
   17.7749    0.4149   18.3841 N   0  0  0  0  0  0  0  0  0  0  0  0
   19.0881    0.2153   17.8495 C   0  0  0  0  0  0  0  0  0  0  0  0
   19.1836    0.8332   16.4695 C   0  0  0  0  0  0  0  0  0  0  0  0
   20.0585   -0.2935   18.3300 O   0  0  0  0  0  0  0  0  0  0  0  0
   16.6529    3.8016   20.4748 H   0  0  0  0  0  0  0  0  0  0  0  0
   15.3527    4.7418   19.7255 H   0  0  0  0  0  0  0  0  0  0  0  0
   15.5143    3.0113   19.3749 H   0  0  0  0  0  0  0  0  0  0  0  0
   17.7387    3.4653   18.2770 H   0  0  0  0  0  0  0  0  0  0  0  0
   17.5532    5.1780   18.6373 H   0  0  0  0  0  0  0  0  0  0  0  0
   15.4516    5.2429   17.2670 H   0  0  0  0  0  0  0  0  0  0  0  0
   16.9080    4.8851   16.3303 H   0  0  0  0  0  0  0  0  0  0  0  0
   14.2370    4.4861   15.8944 H   0  0  0  0  0  0  0  0  0  0  0  0
   12.4457    3.1241   15.3660 H   0  0  0  0  0  0  0  0  0  0  0  0
   13.6446    2.5727   14.1896 H   0  0  0  0  0  0  0  0  0  0  0  0
   14.2246    0.6423   15.5199 H   0  0  0  0  0  0  0  0  0  0  0  0
   13.5987    0.2301   17.5368 H   0  0  0  0  0  0  0  0  0  0  0  0
   13.8988    1.8020   17.6355 H   0  0  0  0  0  0  0  0  0  0  0  0
   11.3404    1.0040   15.7624 H   0  0  0  0  0  0  0  0  0  0  0  0
   11.0192   -1.1993   15.1553 H   0  0  0  0  0  0  0  0  0  0  0  0
   11.8319   -1.1027   16.6812 H   0  0  0  0  0  0  0  0  0  0  0  0
   13.4239   -1.3950   14.1031 H   0  0  0  0  0  0  0  0  0  0  0  0
   12.5102   -2.7383   14.6771 H   0  0  0  0  0  0  0  0  0  0  0  0
   13.9129   -3.3885   16.1830 H   0  0  0  0  0  0  0  0  0  0  0  0
   16.1579   -3.1960   15.6439 H   0  0  0  0  0  0  0  0  0  0  0  0
   15.3218   -2.9088   14.1484 H   0  0  0  0  0  0  0  0  0  0  0  0
   16.1987   -0.5060   15.7955 H   0  0  0  0  0  0  0  0  0  0  0  0
   17.3707   -1.4655   14.9058 H   0  0  0  0  0  0  0  0  0  0  0  0
   14.9722   -0.1139   13.5677 H   0  0  0  0  0  0  0  0  0  0  0  0
   16.6397    0.4610   13.5905 H   0  0  0  0  0  0  0  0  0  0  0  0
   13.5056   -1.9049   17.7886 H   0  0  0  0  0  0  0  0  0  0  0  0
   15.4599   -3.2675   18.0571 H   0  0  0  0  0  0  0  0  0  0  0  0
   16.4450   -1.8797   17.5851 H   0  0  0  0  0  0  0  0  0  0  0  0
   14.4707   -1.9070   19.9072 H   0  0  0  0  0  0  0  0  0  0  0  0
   16.1688   -2.2852   20.0715 H   0  0  0  0  0  0  0  0  0  0  0  0
   15.3810    0.0476   20.7123 H   0  0  0  0  0  0  0  0  0  0  0  0
   15.2039    0.4273   19.0101 H   0  0  0  0  0  0  0  0  0  0  0  0
   17.3919    1.0796   20.2593 H   0  0  0  0  0  0  0  0  0  0  0  0
   17.8510   -0.6162   20.1758 H   0  0  0  0  0  0  0  0  0  0  0  0
   17.2231    0.9632   17.7174 H   0  0  0  0  0  0  0  0  0  0  0  0
   20.0740    0.4522   15.9603 H   0  0  0  0  0  0  0  0  0  0  0  0
   18.3164    0.5797   15.8598 H   0  0  0  0  0  0  0  0  0  0  0  0
   19.2646    1.9195   16.5642 H   0  0  0  0  0  0  0  0  0  0  0  0
  1  2  1  0
  2  3  1  0
  3  4  1  0
  4  5  2  0
  4  6  1  0
  6  7  1  0
  7  8  1  0
  8  9  1  0
  8 10  1  0
 10 11  1  0
 11 12  1  0
 12 13  1  0
 13 14  1  0
 14 15  1  0
 15 16  1  0
 16 17  1  0
 13 18  1  0
 18 19  1  0
 19 20  1  0
 20 21  1  0
 21 22  1  0
 22 23  1  0
 23 24  1  0
 24 25  1  0
 24 26  2  0
  1 27  1  0
  1 28  1  0
  1 29  1  0
  2 30  1  0
  2 31  1  0
  3 32  1  0
  3 33  1  0
  6 34  1  0
  7 35  1  0
  7 36  1  0
  8 37  1  0
  9 38  1  0
  9 39  1  0
 10 40  1  0
 11 41  1  0
 11 42  1  0
 12 43  1  0
 12 44  1  0
 13 45  1  0
 14 46  1  0
 14 47  1  0
 15 48  1  0
 15 49  1  0
 16 50  1  0
 16 51  1  0
 18 52  1  0
 19 53  1  0
 19 54  1  0
 20 55  1  0
 20 56  1  0
 21 57  1  0
 21 58  1  0
 22 59  1  0
 22 60  1  0
 23 61  1  0
 25 62  1  0
 25 63  1  0
 25 64  1  0
M  END
>  <Energy>  (145) 
-54.407176702596132

>  <compound_id>  (145) 
486

>  <target_id>  (145) 
1

>  <reference_id>  (145) 
71

>  <inspiration_ids>  (145) 
[55, 71]

>  <energy_score>  (145) 
-53.036947343295

>  <distance_score>  (145) 
2.4068065282062996

>  <path>  (145) 
/opt/xchem-fragalysis-2/maxwin/BulkDock/SCRATCH/505733/C486-P71/C486-P71.minimised.mol

>  <scratch_subdir>  (145) 
/opt/xchem-fragalysis-2/maxwin/BulkDock/SCRATCH/505733/C486-P71

>  <fragmenstein_runtime>  (145) 
9.292705535888672

>  <fragmenstein_outcome>  (145) 
too moved

>  <fragmenstein_mode>  (145) 
expansion

>  <fragmenstein_error>  (145) 


$$$$
C487-P55
     RDKit          3D

 40 41  0  0  0  0  0  0  0  0999 V2000
   15.8596    3.7006   19.9472 C   0  0  0  0  0  0  0  0  0  0  0  0
   16.9287    3.9072   18.8835 C   0  0  0  0  0  0  0  0  0  0  0  0
   16.5396    4.9131   17.8039 C   0  0  0  0  0  0  0  0  0  0  0  0
   15.8047    4.2743   16.6324 C   0  0  0  0  0  0  0  0  0  0  0  0
   16.2945    4.1327   15.5852 O   0  0  0  0  0  0  0  0  0  0  0  0
   14.3827    3.9344   17.1254 N   0  0  0  0  0  0  0  0  0  0  0  0
   13.3043    3.2666   16.4628 C   0  0  0  0  0  0  0  0  0  0  0  0
   13.4922    1.7646   16.3582 C   0  0  0  0  0  0  0  0  0  0  0  0
   14.0772    0.9740   17.2330 N   0  0  0  0  0  0  0  0  0  0  0  0
   13.8773   -0.2764   16.7061 C   0  0  0  0  0  0  0  0  0  0  0  0
   13.9913   -1.5135   17.2023 C   0  0  0  0  0  0  0  0  0  0  0  0
   14.5710   -1.6639   18.4096 F   0  0  0  0  0  0  0  0  0  0  0  0
   13.1966   -2.6156   16.6255 C   0  0  0  0  0  0  0  0  0  0  0  0
   12.8044   -3.6736   17.4234 O   0  0  0  0  0  0  0  0  0  0  0  0
   13.5985   -4.0737   18.5325 C   0  0  0  0  0  0  0  0  0  0  0  0
   14.8442   -4.3681   18.0823 F   0  0  0  0  0  0  0  0  0  0  0  0
   12.5723   -2.4470   15.4385 C   0  0  0  0  0  0  0  0  0  0  0  0
   11.3290   -3.1208   14.9733 C   0  0  0  0  0  0  0  0  0  0  0  0
   10.2086   -2.0872   15.1154 C   0  0  0  0  0  0  0  0  0  0  0  0
   12.9069   -1.2675   14.6146 C   0  0  0  0  0  0  0  0  0  0  0  0
   12.8788   -1.2272   13.4008 O   0  0  0  0  0  0  0  0  0  0  0  0
   13.2137   -0.0890   15.4384 C   0  0  0  0  0  0  0  0  0  0  0  0
   12.9250    1.1562   15.2429 N   0  0  0  0  0  0  0  0  0  0  0  0
   15.0388    3.0766   19.5849 H   0  0  0  0  0  0  0  0  0  0  0  0
   15.4545    4.6531   20.3025 H   0  0  0  0  0  0  0  0  0  0  0  0
   16.2928    3.1799   20.8081 H   0  0  0  0  0  0  0  0  0  0  0  0
   17.8247    4.2877   19.3895 H   0  0  0  0  0  0  0  0  0  0  0  0
   17.1992    2.9412   18.4417 H   0  0  0  0  0  0  0  0  0  0  0  0
   17.4546    5.3575   17.3911 H   0  0  0  0  0  0  0  0  0  0  0  0
   15.9493    5.7443   18.2055 H   0  0  0  0  0  0  0  0  0  0  0  0
   14.2659    4.2656   18.0736 H   0  0  0  0  0  0  0  0  0  0  0  0
   13.2201    3.6841   15.4548 H   0  0  0  0  0  0  0  0  0  0  0  0
   12.3824    3.4676   17.0145 H   0  0  0  0  0  0  0  0  0  0  0  0
   13.1761   -4.9871   18.9533 H   0  0  0  0  0  0  0  0  0  0  0  0
   13.6304   -3.3310   19.3333 H   0  0  0  0  0  0  0  0  0  0  0  0
   11.4231   -3.4551   13.9359 H   0  0  0  0  0  0  0  0  0  0  0  0
   11.1042   -3.9912   15.5889 H   0  0  0  0  0  0  0  0  0  0  0  0
   10.3743   -1.1986   14.5006 H   0  0  0  0  0  0  0  0  0  0  0  0
    9.2380   -2.5147   14.8548 H   0  0  0  0  0  0  0  0  0  0  0  0
   10.1557   -1.6920   16.1279 H   0  0  0  0  0  0  0  0  0  0  0  0
  1  2  1  0
  2  3  1  0
  3  4  1  0
  4  5  2  0
  4  6  1  0
  6  7  1  0
  7  8  1  0
  8  9  2  0
  9 10  1  0
 10 11  2  0
 11 12  1  0
 11 13  1  0
 13 14  1  0
 14 15  1  0
 15 16  1  0
 13 17  2  0
 17 18  1  0
 18 19  1  0
 17 20  1  0
 20 21  2  0
 20 22  1  0
 22 23  2  0
 23  8  1  0
 22 10  1  0
  1 24  1  0
  1 25  1  0
  1 26  1  0
  2 27  1  0
  2 28  1  0
  3 29  1  0
  3 30  1  0
  6 31  1  0
  7 32  1  0
  7 33  1  0
 15 34  1  0
 15 35  1  0
 18 36  1  0
 18 37  1  0
 19 38  1  0
 19 39  1  0
 19 40  1  0
M  END
>  <Energy>  (146) 
113.67608117883029

>  <compound_id>  (146) 
487

>  <target_id>  (146) 
1

>  <reference_id>  (146) 
55

>  <inspiration_ids>  (146) 
[55, 76]

>  <energy_score>  (146) 
1.9436158218222488

>  <distance_score>  (146) 
1.5933625375143918

>  <path>  (146) 
/opt/xchem-fragalysis-2/maxwin/BulkDock/SCRATCH/505733/C487-P55/C487-P55.minimised.mol

>  <scratch_subdir>  (146) 
/opt/xchem-fragalysis-2/maxwin/BulkDock/SCRATCH/505733/C487-P55

>  <fragmenstein_runtime>  (146) 
2.713848114013672

>  <fragmenstein_outcome>  (146) 
too moved

>  <fragmenstein_mode>  (146) 
expansion

>  <fragmenstein_error>  (146) 


$$$$
C487-P76
     RDKit          3D

 40 41  0  0  0  0  0  0  0  0999 V2000
   16.1179    5.6752   19.4605 C   0  0  0  0  0  0  0  0  0  0  0  0
   16.3625    4.5850   20.4859 C   0  0  0  0  0  0  0  0  0  0  0  0
   16.5295    3.1905   19.9196 C   0  0  0  0  0  0  0  0  0  0  0  0
   15.3784    2.8666   18.9913 C   0  0  0  0  0  0  0  0  0  0  0  0
   14.3831    2.3766   19.3508 O   0  0  0  0  0  0  0  0  0  0  0  0
   15.8324    3.2918   17.5731 N   0  0  0  0  0  0  0  0  0  0  0  0
   15.1216    3.2880   16.3283 C   0  0  0  0  0  0  0  0  0  0  0  0
   14.9123    1.8326   15.9939 C   0  0  0  0  0  0  0  0  0  0  0  0
   15.4850    0.8410   16.6354 N   0  0  0  0  0  0  0  0  0  0  0  0
   14.9210   -0.2534   16.0772 C   0  0  0  0  0  0  0  0  0  0  0  0
   14.9421   -1.5292   16.4325 C   0  0  0  0  0  0  0  0  0  0  0  0
   15.6746   -1.8981   17.5047 F   0  0  0  0  0  0  0  0  0  0  0  0
   14.0691   -2.5023   15.7986 C   0  0  0  0  0  0  0  0  0  0  0  0
   14.1512   -3.7952   16.2890 O   0  0  0  0  0  0  0  0  0  0  0  0
   15.5080   -4.2534   16.4419 C   0  0  0  0  0  0  0  0  0  0  0  0
   15.5488   -5.5616   16.0843 F   0  0  0  0  0  0  0  0  0  0  0  0
   13.1828   -2.1298   14.8402 C   0  0  0  0  0  0  0  0  0  0  0  0
   11.9884   -2.8393   14.3097 C   0  0  0  0  0  0  0  0  0  0  0  0
   11.1802   -3.3844   15.4437 C   0  0  0  0  0  0  0  0  0  0  0  0
   13.3066   -0.7798   14.2279 C   0  0  0  0  0  0  0  0  0  0  0  0
   12.8914   -0.4953   13.1200 O   0  0  0  0  0  0  0  0  0  0  0  0
   14.0523    0.2045   15.0208 C   0  0  0  0  0  0  0  0  0  0  0  0
   14.0558    1.5000   14.9585 N   0  0  0  0  0  0  0  0  0  0  0  0
   15.1515    5.5618   18.9604 H   0  0  0  0  0  0  0  0  0  0  0  0
   16.9114    5.6986   18.7072 H   0  0  0  0  0  0  0  0  0  0  0  0
   16.1073    6.6520   19.9563 H   0  0  0  0  0  0  0  0  0  0  0  0
   17.2560    4.8363   21.0697 H   0  0  0  0  0  0  0  0  0  0  0  0
   15.5226    4.5883   21.1921 H   0  0  0  0  0  0  0  0  0  0  0  0
   17.4928    3.0865   19.4089 H   0  0  0  0  0  0  0  0  0  0  0  0
   16.5358    2.4503   20.7283 H   0  0  0  0  0  0  0  0  0  0  0  0
   16.7919    3.6111   17.6068 H   0  0  0  0  0  0  0  0  0  0  0  0
   15.7180    3.7788   15.5571 H   0  0  0  0  0  0  0  0  0  0  0  0
   14.1544    3.7784   16.4600 H   0  0  0  0  0  0  0  0  0  0  0  0
   15.8048   -4.1910   17.4921 H   0  0  0  0  0  0  0  0  0  0  0  0
   16.2192   -3.7305   15.7933 H   0  0  0  0  0  0  0  0  0  0  0  0
   11.3355   -2.1160   13.8204 H   0  0  0  0  0  0  0  0  0  0  0  0
   12.2064   -3.5645   13.5324 H   0  0  0  0  0  0  0  0  0  0  0  0
   10.9437   -2.5668   16.1231 H   0  0  0  0  0  0  0  0  0  0  0  0
   10.2505   -3.7691   15.0442 H   0  0  0  0  0  0  0  0  0  0  0  0
   11.6758   -4.1746   16.0108 H   0  0  0  0  0  0  0  0  0  0  0  0
  1  2  1  0
  2  3  1  0
  3  4  1  0
  4  5  2  0
  4  6  1  0
  6  7  1  0
  7  8  1  0
  8  9  2  0
  9 10  1  0
 10 11  2  0
 11 12  1  0
 11 13  1  0
 13 14  1  0
 14 15  1  0
 15 16  1  0
 13 17  2  0
 17 18  1  0
 18 19  1  0
 17 20  1  0
 20 21  2  0
 20 22  1  0
 22 23  2  0
 23  8  1  0
 22 10  1  0
  1 24  1  0
  1 25  1  0
  1 26  1  0
  2 27  1  0
  2 28  1  0
  3 29  1  0
  3 30  1  0
  6 31  1  0
  7 32  1  0
  7 33  1  0
 15 34  1  0
 15 35  1  0
 18 36  1  0
 18 37  1  0
 19 38  1  0
 19 39  1  0
 19 40  1  0
M  END
>  <Energy>  (147) 
110.29574365103002

>  <compound_id>  (147) 
487

>  <target_id>  (147) 
1

>  <reference_id>  (147) 
76

>  <inspiration_ids>  (147) 
[55, 76]

>  <energy_score>  (147) 
-1.436721705976538

>  <distance_score>  (147) 
2.385742087345223

>  <path>  (147) 
/opt/xchem-fragalysis-2/maxwin/BulkDock/SCRATCH/505733/C487-P76/C487-P76.minimised.mol

>  <scratch_subdir>  (147) 
/opt/xchem-fragalysis-2/maxwin/BulkDock/SCRATCH/505733/C487-P76

>  <fragmenstein_runtime>  (147) 
2.385495662689209

>  <fragmenstein_outcome>  (147) 
too moved

>  <fragmenstein_mode>  (147) 
expansion

>  <fragmenstein_error>  (147) 


$$$$
C490-P55
     RDKit          3D

 44 45  0  0  0  0  0  0  0  0999 V2000
   16.1286    4.8895   19.9962 C   0  0  0  0  0  0  0  0  0  0  0  0
   17.2030    4.1548   19.2040 C   0  0  0  0  0  0  0  0  0  0  0  0
   17.1585    2.6348   19.3763 C   0  0  0  0  0  0  0  0  0  0  0  0
   15.7520    2.0603   19.2836 C   0  0  0  0  0  0  0  0  0  0  0  0
   15.2603    1.4421   20.1393 O   0  0  0  0  0  0  0  0  0  0  0  0
   15.1745    2.5364   17.9365 N   0  0  0  0  0  0  0  0  0  0  0  0
   13.8579    2.4341   17.4080 C   0  0  0  0  0  0  0  0  0  0  0  0
   13.7346    1.0945   16.8079 C   0  0  0  0  0  0  0  0  0  0  0  0
   13.8103    0.7973   15.5326 N   0  0  0  0  0  0  0  0  0  0  0  0
   13.4835   -0.5210   15.4675 C   0  0  0  0  0  0  0  0  0  0  0  0
   13.5566   -1.3866   14.3796 C   0  0  0  0  0  0  0  0  0  0  0  0
   14.8076   -1.3039   13.5118 C   0  0  0  0  0  0  0  0  0  0  0  0
   14.5782   -1.8344   12.2088 O   0  0  0  0  0  0  0  0  0  0  0  0
   15.9373   -2.0984   14.2134 C   0  0  0  0  0  0  0  0  0  0  0  0
   17.5146   -1.3386   14.2065 S   0  0  0  0  0  0  0  0  0  0  0  0
   17.9400   -1.3356   12.4875 C   0  0  0  0  0  0  0  0  0  0  0  0
   17.3948    0.0329   14.6602 O   0  0  0  0  0  0  0  0  0  0  0  0
   18.4095   -2.2557   14.8897 O   0  0  0  0  0  0  0  0  0  0  0  0
   12.7519   -2.5300   14.4752 C   0  0  0  0  0  0  0  0  0  0  0  0
   12.3864   -3.0238   15.7296 C   0  0  0  0  0  0  0  0  0  0  0  0
   12.7776   -2.3626   16.8919 C   0  0  0  0  0  0  0  0  0  0  0  0
   13.2201   -1.0543   16.7180 C   0  0  0  0  0  0  0  0  0  0  0  0
   13.5979   -0.0453   17.5637 N   0  0  0  0  0  0  0  0  0  0  0  0
   15.1229    4.6912   19.6155 H   0  0  0  0  0  0  0  0  0  0  0  0
   16.2939    5.9701   19.9313 H   0  0  0  0  0  0  0  0  0  0  0  0
   16.1617    4.6084   21.0537 H   0  0  0  0  0  0  0  0  0  0  0  0
   17.1238    4.4354   18.1480 H   0  0  0  0  0  0  0  0  0  0  0  0
   18.1887    4.5075   19.5315 H   0  0  0  0  0  0  0  0  0  0  0  0
   17.7947    2.1426   18.6324 H   0  0  0  0  0  0  0  0  0  0  0  0
   17.5571    2.3723   20.3640 H   0  0  0  0  0  0  0  0  0  0  0  0
   15.9038    2.9826   17.3949 H   0  0  0  0  0  0  0  0  0  0  0  0
   13.7157    3.2244   16.6662 H   0  0  0  0  0  0  0  0  0  0  0  0
   13.1433    2.5672   18.2236 H   0  0  0  0  0  0  0  0  0  0  0  0
   15.0801   -0.2515   13.3778 H   0  0  0  0  0  0  0  0  0  0  0  0
   13.6843   -1.5500   11.9523 H   0  0  0  0  0  0  0  0  0  0  0  0
   16.0640   -3.0841   13.7588 H   0  0  0  0  0  0  0  0  0  0  0  0
   15.7275   -2.2554   15.2783 H   0  0  0  0  0  0  0  0  0  0  0  0
   17.8967   -2.3581   12.1076 H   0  0  0  0  0  0  0  0  0  0  0  0
   17.2475   -0.6897   11.9457 H   0  0  0  0  0  0  0  0  0  0  0  0
   18.9565   -0.9479   12.3913 H   0  0  0  0  0  0  0  0  0  0  0  0
   12.5520   -3.1250   13.5882 H   0  0  0  0  0  0  0  0  0  0  0  0
   11.8798   -3.9825   15.8111 H   0  0  0  0  0  0  0  0  0  0  0  0
   12.6539   -2.8257   17.8620 H   0  0  0  0  0  0  0  0  0  0  0  0
   13.6796   -0.0787   18.5722 H   0  0  0  0  0  0  0  0  0  0  0  0
  1  2  1  0
  2  3  1  0
  3  4  1  0
  4  5  2  0
  4  6  1  0
  6  7  1  0
  7  8  1  0
  8  9  2  0
  9 10  1  0
 10 11  2  0
 11 12  1  0
 12 13  1  0
 12 14  1  0
 14 15  1  0
 15 16  1  0
 15 17  2  0
 15 18  2  0
 11 19  1  0
 19 20  2  0
 20 21  1  0
 21 22  2  0
 22 23  1  0
 23  8  1  0
 22 10  1  0
  1 24  1  0
  1 25  1  0
  1 26  1  0
  2 27  1  0
  2 28  1  0
  3 29  1  0
  3 30  1  0
  6 31  1  0
  7 32  1  0
  7 33  1  0
 12 34  1  0
 13 35  1  0
 14 36  1  0
 14 37  1  0
 16 38  1  0
 16 39  1  0
 16 40  1  0
 19 41  1  0
 20 42  1  0
 21 43  1  0
 23 44  1  0
M  END
>  <Energy>  (148) 
15.85302389964397

>  <compound_id>  (148) 
490

>  <target_id>  (148) 
1

>  <reference_id>  (148) 
55

>  <inspiration_ids>  (148) 
[55, 83]

>  <energy_score>  (148) 
-7.353054733638793

>  <distance_score>  (148) 
1.827293396970997

>  <path>  (148) 
/opt/xchem-fragalysis-2/maxwin/BulkDock/SCRATCH/505733/C490-P55/C490-P55.minimised.mol

>  <scratch_subdir>  (148) 
/opt/xchem-fragalysis-2/maxwin/BulkDock/SCRATCH/505733/C490-P55

>  <fragmenstein_runtime>  (148) 
3.1502532958984375

>  <fragmenstein_outcome>  (148) 
too moved

>  <fragmenstein_mode>  (148) 
expansion

>  <fragmenstein_error>  (148) 


$$$$
C490-P83
     RDKit          3D

 44 45  0  0  0  0  0  0  0  0999 V2000
   15.5797    4.7879   18.9937 C   0  0  0  0  0  0  0  0  0  0  0  0
   16.3663    3.4943   19.1080 C   0  0  0  0  0  0  0  0  0  0  0  0
   15.8130    2.6369   20.2437 C   0  0  0  0  0  0  0  0  0  0  0  0
   16.4855    1.2737   20.3437 C   0  0  0  0  0  0  0  0  0  0  0  0
   17.1413    0.9615   21.2549 O   0  0  0  0  0  0  0  0  0  0  0  0
   16.0493    0.4668   19.1018 N   0  0  0  0  0  0  0  0  0  0  0  0
   16.4050   -0.8532   18.6790 C   0  0  0  0  0  0  0  0  0  0  0  0
   15.3489   -1.3309   17.7523 C   0  0  0  0  0  0  0  0  0  0  0  0
   15.0764   -0.8519   16.5574 N   0  0  0  0  0  0  0  0  0  0  0  0
   14.1986   -1.7369   16.0072 C   0  0  0  0  0  0  0  0  0  0  0  0
   13.8572   -1.8672   14.6574 C   0  0  0  0  0  0  0  0  0  0  0  0
   14.6961   -1.1191   13.6413 C   0  0  0  0  0  0  0  0  0  0  0  0
   13.9853   -1.0175   12.3949 O   0  0  0  0  0  0  0  0  0  0  0  0
   16.0646   -1.7690   13.3427 C   0  0  0  0  0  0  0  0  0  0  0  0
   17.3873   -1.4303   14.4632 S   0  0  0  0  0  0  0  0  0  0  0  0
   18.7653   -1.7549   13.4050 C   0  0  0  0  0  0  0  0  0  0  0  0
   17.4399   -0.0139   14.7653 O   0  0  0  0  0  0  0  0  0  0  0  0
   17.4294   -2.4498   15.4945 O   0  0  0  0  0  0  0  0  0  0  0  0
   12.8414   -2.8062   14.3752 C   0  0  0  0  0  0  0  0  0  0  0  0
   12.3060   -3.6372   15.3721 C   0  0  0  0  0  0  0  0  0  0  0  0
   12.7763   -3.5993   16.6859 C   0  0  0  0  0  0  0  0  0  0  0  0
   13.7366   -2.6340   16.9530 C   0  0  0  0  0  0  0  0  0  0  0  0
   14.5145   -2.3799   18.0527 N   0  0  0  0  0  0  0  0  0  0  0  0
   14.5263    4.5904   18.7706 H   0  0  0  0  0  0  0  0  0  0  0  0
   15.9855    5.4075   18.1879 H   0  0  0  0  0  0  0  0  0  0  0  0
   15.6324    5.3644   19.9229 H   0  0  0  0  0  0  0  0  0  0  0  0
   16.3283    2.9658   18.1499 H   0  0  0  0  0  0  0  0  0  0  0  0
   17.4225    3.7185   19.2978 H   0  0  0  0  0  0  0  0  0  0  0  0
   14.7333    2.4820   20.1354 H   0  0  0  0  0  0  0  0  0  0  0  0
   15.9577    3.1530   21.2010 H   0  0  0  0  0  0  0  0  0  0  0  0
   15.4089    1.0240   18.5426 H   0  0  0  0  0  0  0  0  0  0  0  0
   16.5184   -1.4876   19.5628 H   0  0  0  0  0  0  0  0  0  0  0  0
   17.3711   -0.7940   18.1696 H   0  0  0  0  0  0  0  0  0  0  0  0
   14.8352   -0.0870   13.9816 H   0  0  0  0  0  0  0  0  0  0  0  0
   13.8659   -1.9188   12.0566 H   0  0  0  0  0  0  0  0  0  0  0  0
   15.9737   -2.8574   13.2497 H   0  0  0  0  0  0  0  0  0  0  0  0
   16.3993   -1.3973   12.3659 H   0  0  0  0  0  0  0  0  0  0  0  0
   18.7054   -2.7837   13.0442 H   0  0  0  0  0  0  0  0  0  0  0  0
   18.7558   -1.0507   12.5709 H   0  0  0  0  0  0  0  0  0  0  0  0
   19.6803   -1.6216   13.9868 H   0  0  0  0  0  0  0  0  0  0  0  0
   12.4724   -2.9318   13.3617 H   0  0  0  0  0  0  0  0  0  0  0  0
   11.5489   -4.3736   15.1061 H   0  0  0  0  0  0  0  0  0  0  0  0
   12.4352   -4.3104   17.4318 H   0  0  0  0  0  0  0  0  0  0  0  0
   14.5226   -2.9207   18.9064 H   0  0  0  0  0  0  0  0  0  0  0  0
  1  2  1  0
  2  3  1  0
  3  4  1  0
  4  5  2  0
  4  6  1  0
  6  7  1  0
  7  8  1  0
  8  9  2  0
  9 10  1  0
 10 11  2  0
 11 12  1  0
 12 13  1  0
 12 14  1  0
 14 15  1  0
 15 16  1  0
 15 17  2  0
 15 18  2  0
 11 19  1  0
 19 20  2  0
 20 21  1  0
 21 22  2  0
 22 23  1  0
 23  8  1  0
 22 10  1  0
  1 24  1  0
  1 25  1  0
  1 26  1  0
  2 27  1  0
  2 28  1  0
  3 29  1  0
  3 30  1  0
  6 31  1  0
  7 32  1  0
  7 33  1  0
 12 34  1  0
 13 35  1  0
 14 36  1  0
 14 37  1  0
 16 38  1  0
 16 39  1  0
 16 40  1  0
 19 41  1  0
 20 42  1  0
 21 43  1  0
 23 44  1  0
M  END
>  <Energy>  (149) 
2.9938120778455621

>  <compound_id>  (149) 
490

>  <target_id>  (149) 
1

>  <reference_id>  (149) 
83

>  <inspiration_ids>  (149) 
[55, 83]

>  <energy_score>  (149) 
-20.212266555436265

>  <distance_score>  (149) 
2.7253623551745614

>  <path>  (149) 
/opt/xchem-fragalysis-2/maxwin/BulkDock/SCRATCH/505733/C490-P83/C490-P83.minimised.mol

>  <scratch_subdir>  (149) 
/opt/xchem-fragalysis-2/maxwin/BulkDock/SCRATCH/505733/C490-P83

>  <fragmenstein_runtime>  (149) 
3.7165212631225586

>  <fragmenstein_outcome>  (149) 
too moved

>  <fragmenstein_mode>  (149) 
expansion

>  <fragmenstein_error>  (149) 


$$$$
C491-P55
     RDKit          3D

 48 50  0  0  0  0  0  0  0  0999 V2000
   15.4674    4.8457   18.9843 C   0  0  0  0  0  0  0  0  0  0  0  0
   16.4744    4.1370   18.0792 C   0  0  0  0  0  0  0  0  0  0  0  0
   16.1919    2.6500   17.7478 C   0  0  0  0  0  0  0  0  0  0  0  0
   16.2972    1.8464   19.0610 C   0  0  0  0  0  0  0  0  0  0  0  0
   16.3924    2.3651   20.1755 O   0  0  0  0  0  0  0  0  0  0  0  0
   16.3489    0.4896   19.0102 N   0  0  0  0  0  0  0  0  0  0  0  0
   16.4893   -0.3121   17.8359 C   0  0  0  0  0  0  0  0  0  0  0  0
   15.1955   -0.6875   17.1288 C   0  0  0  0  0  0  0  0  0  0  0  0
   14.0183   -0.0063   17.2719 C   0  0  0  0  0  0  0  0  0  0  0  0
   12.8040   -0.4399   16.7896 N   0  0  0  0  0  0  0  0  0  0  0  0
   12.5287   -1.6819   16.5491 C   0  0  0  0  0  0  0  0  0  0  0  0
   11.4702   -1.9522   15.5205 C   0  0  0  0  0  0  0  0  0  0  0  0
   12.2620   -2.2918   14.2508 C   0  0  0  0  0  0  0  0  0  0  0  0
   13.7848   -2.0561   14.3931 C   0  0  0  0  0  0  0  0  0  0  0  0
   14.3954   -2.6416   15.7123 C   0  0  0  0  0  0  0  0  0  0  0  0
   13.3894   -2.8562   16.8248 C   0  0  0  0  0  0  0  0  0  0  0  0
   15.4055   -1.7498   16.2350 N   0  0  0  0  0  0  0  0  0  0  0  0
   14.0354    1.3510   17.6065 N   0  0  0  0  0  0  0  0  0  0  0  0
   14.9170    2.3239   16.8756 C   0  0  0  0  0  0  0  0  0  0  0  0
   14.0497    3.5534   16.5613 C   0  0  0  0  0  0  0  0  0  0  0  0
   15.3018    1.7568   15.4515 C   0  0  0  0  0  0  0  0  0  0  0  0
   15.7171    2.7544   14.5363 O   0  0  0  0  0  0  0  0  0  0  0  0
   15.9948    5.4500   19.7304 H   0  0  0  0  0  0  0  0  0  0  0  0
   14.7991    4.1612   19.5129 H   0  0  0  0  0  0  0  0  0  0  0  0
   14.8511    5.5402   18.4043 H   0  0  0  0  0  0  0  0  0  0  0  0
   16.5969    4.7078   17.1509 H   0  0  0  0  0  0  0  0  0  0  0  0
   17.4543    4.1900   18.5747 H   0  0  0  0  0  0  0  0  0  0  0  0
   17.0719    2.3472   17.1627 H   0  0  0  0  0  0  0  0  0  0  0  0
   16.3374    0.0442   19.9176 H   0  0  0  0  0  0  0  0  0  0  0  0
   16.9675   -1.2343   18.1914 H   0  0  0  0  0  0  0  0  0  0  0  0
   17.1993    0.1521   17.1459 H   0  0  0  0  0  0  0  0  0  0  0  0
   10.8552   -2.8017   15.8164 H   0  0  0  0  0  0  0  0  0  0  0  0
   10.8293   -1.0775   15.3756 H   0  0  0  0  0  0  0  0  0  0  0  0
   12.0637   -3.3327   13.9795 H   0  0  0  0  0  0  0  0  0  0  0  0
   11.8906   -1.6897   13.4158 H   0  0  0  0  0  0  0  0  0  0  0  0
   14.3174   -2.4473   13.5189 H   0  0  0  0  0  0  0  0  0  0  0  0
   13.9628   -0.9737   14.3403 H   0  0  0  0  0  0  0  0  0  0  0  0
   14.8979   -3.5912   15.5150 H   0  0  0  0  0  0  0  0  0  0  0  0
   13.7975   -2.8475   17.8394 H   0  0  0  0  0  0  0  0  0  0  0  0
   12.8244   -3.7844   16.6902 H   0  0  0  0  0  0  0  0  0  0  0  0
   16.3308   -2.1709   16.2889 H   0  0  0  0  0  0  0  0  0  0  0  0
   13.0614    1.6541   17.5774 H   0  0  0  0  0  0  0  0  0  0  0  0
   13.5373    3.9233   17.4550 H   0  0  0  0  0  0  0  0  0  0  0  0
   14.6121    4.3780   16.1135 H   0  0  0  0  0  0  0  0  0  0  0  0
   13.2465    3.2944   15.8583 H   0  0  0  0  0  0  0  0  0  0  0  0
   16.1142    1.0320   15.4906 H   0  0  0  0  0  0  0  0  0  0  0  0
   14.4318    1.2747   14.9914 H   0  0  0  0  0  0  0  0  0  0  0  0
   15.8109    2.3188   13.6713 H   0  0  0  0  0  0  0  0  0  0  0  0
  1  2  1  0
  2  3  1  0
  3  4  1  0
  4  5  2  0
  4  6  1  0
  6  7  1  0
  7  8  1  0
  8  9  2  0
  9 10  1  0
 10 11  2  0
 11 12  1  0
 12 13  1  0
 13 14  1  0
 14 15  1  0
 15 16  1  0
 15 17  1  0
  9 18  1  0
 18 19  1  0
 19 20  1  0
 19 21  1  0
 21 22  1  0
 19  3  1  0
 17  8  1  0
 16 11  1  0
  1 23  1  0
  1 24  1  0
  1 25  1  0
  2 26  1  0
  2 27  1  0
  3 28  1  0
  6 29  1  0
  7 30  1  0
  7 31  1  0
 12 32  1  0
 12 33  1  0
 13 34  1  0
 13 35  1  0
 14 36  1  0
 14 37  1  0
 15 38  1  0
 16 39  1  0
 16 40  1  0
 17 41  1  0
 18 42  1  0
 20 43  1  0
 20 44  1  0
 20 45  1  0
 21 46  1  0
 21 47  1  0
 22 48  1  0
M  END
>  <Energy>  (150) 
90.611748090458747

>  <compound_id>  (150) 
491

>  <target_id>  (150) 
1

>  <reference_id>  (150) 
55

>  <inspiration_ids>  (150) 
[55, 93]

>  <energy_score>  (150) 
-98.61673723488536

>  <distance_score>  (150) 
2.523353768980118

>  <path>  (150) 
/opt/xchem-fragalysis-2/maxwin/BulkDock/SCRATCH/505733/C491-P55/C491-P55.minimised.mol

>  <scratch_subdir>  (150) 
/opt/xchem-fragalysis-2/maxwin/BulkDock/SCRATCH/505733/C491-P55

>  <fragmenstein_runtime>  (150) 
2.5415797233581543

>  <fragmenstein_outcome>  (150) 
too moved

>  <fragmenstein_mode>  (150) 
expansion

>  <fragmenstein_error>  (150) 


$$$$
C491-P93
     RDKit          3D

 48 50  0  0  0  0  0  0  0  0999 V2000
   16.5420    4.9964   18.9216 C   0  0  0  0  0  0  0  0  0  0  0  0
   16.9981    3.9282   17.9289 C   0  0  0  0  0  0  0  0  0  0  0  0
   15.8900    3.4066   16.9809 C   0  0  0  0  0  0  0  0  0  0  0  0
   16.5379    2.7820   15.7461 C   0  0  0  0  0  0  0  0  0  0  0  0
   17.7376    2.5365   15.6486 O   0  0  0  0  0  0  0  0  0  0  0  0
   15.6317    2.4474   14.7605 N   0  0  0  0  0  0  0  0  0  0  0  0
   15.5719    1.0491   14.4336 C   0  0  0  0  0  0  0  0  0  0  0  0
   14.5218    0.3043   15.2528 C   0  0  0  0  0  0  0  0  0  0  0  0
   14.6282    0.0917   16.5989 C   0  0  0  0  0  0  0  0  0  0  0  0
   13.9641   -0.9839   17.1883 N   0  0  0  0  0  0  0  0  0  0  0  0
   14.0053   -2.1220   16.5449 C   0  0  0  0  0  0  0  0  0  0  0  0
   12.9680   -3.1749   16.8034 C   0  0  0  0  0  0  0  0  0  0  0  0
   11.8561   -2.8288   15.8026 C   0  0  0  0  0  0  0  0  0  0  0  0
   12.3211   -2.4745   14.3721 C   0  0  0  0  0  0  0  0  0  0  0  0
   13.7119   -1.7940   14.2500 C   0  0  0  0  0  0  0  0  0  0  0  0
   14.7351   -2.3574   15.2542 C   0  0  0  0  0  0  0  0  0  0  0  0
   13.5145   -0.3419   14.5040 N   0  0  0  0  0  0  0  0  0  0  0  0
   15.3021    0.9812   17.4058 N   0  0  0  0  0  0  0  0  0  0  0  0
   14.8598    2.4015   17.5925 C   0  0  0  0  0  0  0  0  0  0  0  0
   14.7359    2.5539   19.1005 C   0  0  0  0  0  0  0  0  0  0  0  0
   13.3994    2.6949   17.0757 C   0  0  0  0  0  0  0  0  0  0  0  0
   13.2503    2.7708   15.6594 O   0  0  0  0  0  0  0  0  0  0  0  0
   16.1753    4.5752   19.8589 H   0  0  0  0  0  0  0  0  0  0  0  0
   15.7748    5.6490   18.4945 H   0  0  0  0  0  0  0  0  0  0  0  0
   17.3970    5.6263   19.1933 H   0  0  0  0  0  0  0  0  0  0  0  0
   17.7799    4.3985   17.3167 H   0  0  0  0  0  0  0  0  0  0  0  0
   17.4942    3.1026   18.4525 H   0  0  0  0  0  0  0  0  0  0  0  0
   15.3527    4.2961   16.6218 H   0  0  0  0  0  0  0  0  0  0  0  0
   14.7029    2.8476   14.8712 H   0  0  0  0  0  0  0  0  0  0  0  0
   16.5504    0.5718   14.5647 H   0  0  0  0  0  0  0  0  0  0  0  0
   15.3230    0.9920   13.3678 H   0  0  0  0  0  0  0  0  0  0  0  0
   13.3792   -4.1687   16.6014 H   0  0  0  0  0  0  0  0  0  0  0  0
   12.6332   -3.1517   17.8379 H   0  0  0  0  0  0  0  0  0  0  0  0
   11.1391   -3.6523   15.7515 H   0  0  0  0  0  0  0  0  0  0  0  0
   11.3104   -1.9555   16.1768 H   0  0  0  0  0  0  0  0  0  0  0  0
   12.2869   -3.3765   13.7635 H   0  0  0  0  0  0  0  0  0  0  0  0
   11.5654   -1.8232   13.9216 H   0  0  0  0  0  0  0  0  0  0  0  0
   14.0876   -1.9062   13.2269 H   0  0  0  0  0  0  0  0  0  0  0  0
   15.7137   -1.8700   15.2268 H   0  0  0  0  0  0  0  0  0  0  0  0
   14.9306   -3.4224   15.1354 H   0  0  0  0  0  0  0  0  0  0  0  0
   12.6661   -0.2743   15.0725 H   0  0  0  0  0  0  0  0  0  0  0  0
   15.4282    0.5071   18.3002 H   0  0  0  0  0  0  0  0  0  0  0  0
   15.6755    2.3597   19.6289 H   0  0  0  0  0  0  0  0  0  0  0  0
   14.3522    3.5374   19.3891 H   0  0  0  0  0  0  0  0  0  0  0  0
   14.0248    1.8259   19.5107 H   0  0  0  0  0  0  0  0  0  0  0  0
   12.6910    1.9533   17.4531 H   0  0  0  0  0  0  0  0  0  0  0  0
   13.0687    3.6681   17.4578 H   0  0  0  0  0  0  0  0  0  0  0  0
   12.7967    1.9562   15.3712 H   0  0  0  0  0  0  0  0  0  0  0  0
  1  2  1  0
  2  3  1  0
  3  4  1  0
  4  5  2  0
  4  6  1  0
  6  7  1  0
  7  8  1  0
  8  9  2  0
  9 10  1  0
 10 11  2  0
 11 12  1  0
 12 13  1  0
 13 14  1  0
 14 15  1  0
 15 16  1  0
 15 17  1  0
  9 18  1  0
 18 19  1  0
 19 20  1  0
 19 21  1  0
 21 22  1  0
 19  3  1  0
 17  8  1  0
 16 11  1  0
  1 23  1  0
  1 24  1  0
  1 25  1  0
  2 26  1  0
  2 27  1  0
  3 28  1  0
  6 29  1  0
  7 30  1  0
  7 31  1  0
 12 32  1  0
 12 33  1  0
 13 34  1  0
 13 35  1  0
 14 36  1  0
 14 37  1  0
 15 38  1  0
 16 39  1  0
 16 40  1  0
 17 41  1  0
 18 42  1  0
 20 43  1  0
 20 44  1  0
 20 45  1  0
 21 46  1  0
 21 47  1  0
 22 48  1  0
M  END
>  <Energy>  (151) 
82.945341572134097

>  <compound_id>  (151) 
491

>  <target_id>  (151) 
1

>  <reference_id>  (151) 
93

>  <inspiration_ids>  (151) 
[55, 93]

>  <energy_score>  (151) 
-106.28314375320812

>  <distance_score>  (151) 
2.457127434521337

>  <path>  (151) 
/opt/xchem-fragalysis-2/maxwin/BulkDock/SCRATCH/505733/C491-P93/C491-P93.minimised.mol

>  <scratch_subdir>  (151) 
/opt/xchem-fragalysis-2/maxwin/BulkDock/SCRATCH/505733/C491-P93

>  <fragmenstein_runtime>  (151) 
2.2455978393554688

>  <fragmenstein_outcome>  (151) 
too moved

>  <fragmenstein_mode>  (151) 
expansion

>  <fragmenstein_error>  (151) 


$$$$
C493-P55
     RDKit          3D

 49 51  0  0  0  0  0  0  0  0999 V2000
   16.0618    4.1705   19.4963 C   0  0  0  0  0  0  0  0  0  0  0  0
   16.3218    4.7003   18.0944 C   0  0  0  0  0  0  0  0  0  0  0  0
   16.7020    3.6404   17.0624 C   0  0  0  0  0  0  0  0  0  0  0  0
   15.6336    2.5594   16.9973 C   0  0  0  0  0  0  0  0  0  0  0  0
   14.6168    2.7090   16.4480 O   0  0  0  0  0  0  0  0  0  0  0  0
   16.1452    1.3788   17.8524 N   0  0  0  0  0  0  0  0  0  0  0  0
   15.4760    0.1798   18.2869 C   0  0  0  0  0  0  0  0  0  0  0  0
   15.1449   -0.9232   17.1727 C   0  0  0  0  0  0  0  0  0  0  0  0
   16.3959   -1.5255   16.6062 N   0  0  0  0  0  0  0  0  0  0  0  0
   16.1212   -2.6361   15.6639 C   0  0  0  0  0  0  0  0  0  0  0  0
   16.2744   -4.0747   16.1821 C   0  0  0  0  0  0  0  0  0  0  0  0
   16.1943   -4.2289   17.6873 C   0  0  0  0  0  0  0  0  0  0  0  0
   16.6586   -5.5305   18.0642 O   0  0  0  0  0  0  0  0  0  0  0  0
   17.0018   -3.1734   18.4333 C   0  0  0  0  0  0  0  0  0  0  0  0
   17.4020   -1.9872   17.5601 C   0  0  0  0  0  0  0  0  0  0  0  0
   14.2646   -0.2557   16.1648 N   0  0  0  0  0  0  0  0  0  0  0  0
   13.2020   -1.1520   16.0109 C   0  0  0  0  0  0  0  0  0  0  0  0
   12.2409   -1.1696   15.0347 C   0  0  0  0  0  0  0  0  0  0  0  0
   11.4646   -2.3187   14.9496 C   0  0  0  0  0  0  0  0  0  0  0  0
   11.6367   -3.3814   15.8405 C   0  0  0  0  0  0  0  0  0  0  0  0
   12.5440   -3.3103   16.8776 C   0  0  0  0  0  0  0  0  0  0  0  0
   13.3176   -2.1866   16.9291 C   0  0  0  0  0  0  0  0  0  0  0  0
   14.3193   -1.9257   17.8794 N   0  0  0  0  0  0  0  0  0  0  0  0
   15.1741    3.5318   19.5293 H   0  0  0  0  0  0  0  0  0  0  0  0
   16.9191    3.5980   19.8642 H   0  0  0  0  0  0  0  0  0  0  0  0
   15.8920    5.0040   20.1857 H   0  0  0  0  0  0  0  0  0  0  0  0
   17.1243    5.4460   18.1389 H   0  0  0  0  0  0  0  0  0  0  0  0
   15.4226    5.2293   17.7548 H   0  0  0  0  0  0  0  0  0  0  0  0
   17.6907    3.2266   17.2842 H   0  0  0  0  0  0  0  0  0  0  0  0
   16.7786    4.0949   16.0676 H   0  0  0  0  0  0  0  0  0  0  0  0
   17.1093    1.5421   18.1116 H   0  0  0  0  0  0  0  0  0  0  0  0
   14.5250    0.5313   18.7112 H   0  0  0  0  0  0  0  0  0  0  0  0
   16.0406   -0.2418   19.1248 H   0  0  0  0  0  0  0  0  0  0  0  0
   15.1882   -2.5274   15.1076 H   0  0  0  0  0  0  0  0  0  0  0  0
   16.8687   -2.5255   14.8642 H   0  0  0  0  0  0  0  0  0  0  0  0
   17.2412   -4.4670   15.8368 H   0  0  0  0  0  0  0  0  0  0  0  0
   15.5289   -4.7245   15.7188 H   0  0  0  0  0  0  0  0  0  0  0  0
   15.1541   -4.2073   18.0140 H   0  0  0  0  0  0  0  0  0  0  0  0
   17.5782   -5.6221   17.7622 H   0  0  0  0  0  0  0  0  0  0  0  0
   17.9105   -3.6116   18.8656 H   0  0  0  0  0  0  0  0  0  0  0  0
   16.4187   -2.8232   19.2941 H   0  0  0  0  0  0  0  0  0  0  0  0
   17.7565   -1.1660   18.1923 H   0  0  0  0  0  0  0  0  0  0  0  0
   18.2996   -2.2702   16.9909 H   0  0  0  0  0  0  0  0  0  0  0  0
   13.9885    0.7011   16.3722 H   0  0  0  0  0  0  0  0  0  0  0  0
   12.1510   -0.3759   14.3031 H   0  0  0  0  0  0  0  0  0  0  0  0
   10.7349   -2.4214   14.1621 H   0  0  0  0  0  0  0  0  0  0  0  0
   11.0412   -4.2695   15.7126 H   0  0  0  0  0  0  0  0  0  0  0  0
   12.6660   -4.1230   17.5823 H   0  0  0  0  0  0  0  0  0  0  0  0
   13.8950   -1.5352   18.7075 H   0  0  0  0  0  0  0  0  0  0  0  0
  1  2  1  0
  2  3  1  0
  3  4  1  0
  4  5  2  0
  4  6  1  0
  6  7  1  0
  7  8  1  0
  8  9  1  0
  9 10  1  0
 10 11  1  0
 11 12  1  0
 12 13  1  0
 12 14  1  0
 14 15  1  0
  8 16  1  0
 16 17  1  0
 17 18  2  0
 18 19  1  0
 19 20  2  0
 20 21  1  0
 21 22  2  0
 22 23  1  0
 23  8  1  0
 15  9  1  0
 22 17  1  0
  1 24  1  0
  1 25  1  0
  1 26  1  0
  2 27  1  0
  2 28  1  0
  3 29  1  0
  3 30  1  0
  6 31  1  0
  7 32  1  0
  7 33  1  0
 10 34  1  0
 10 35  1  0
 11 36  1  0
 11 37  1  0
 12 38  1  0
 13 39  1  0
 14 40  1  0
 14 41  1  0
 15 42  1  0
 15 43  1  0
 16 44  1  0
 18 45  1  0
 19 46  1  0
 20 47  1  0
 21 48  1  0
 23 49  1  0
M  END
>  <Energy>  (152) 
-8.3625973623433829

>  <compound_id>  (152) 
493

>  <target_id>  (152) 
1

>  <reference_id>  (152) 
55

>  <inspiration_ids>  (152) 
[55, 98]

>  <energy_score>  (152) 
-21.49622127599637

>  <distance_score>  (152) 
1.9867043896108834

>  <path>  (152) 
/opt/xchem-fragalysis-2/maxwin/BulkDock/SCRATCH/505733/C493-P55/C493-P55.minimised.mol

>  <scratch_subdir>  (152) 
/opt/xchem-fragalysis-2/maxwin/BulkDock/SCRATCH/505733/C493-P55

>  <fragmenstein_runtime>  (152) 
3.929781913757324

>  <fragmenstein_outcome>  (152) 
too moved

>  <fragmenstein_mode>  (152) 
expansion

>  <fragmenstein_error>  (152) 


$$$$
C493-P98
     RDKit          3D

 49 51  0  0  0  0  0  0  0  0999 V2000
   15.2558    3.9184   19.2614 C   0  0  0  0  0  0  0  0  0  0  0  0
   16.7241    3.8260   19.6463 C   0  0  0  0  0  0  0  0  0  0  0  0
   17.3121    2.4204   19.5169 C   0  0  0  0  0  0  0  0  0  0  0  0
   17.5096    2.0814   18.0487 C   0  0  0  0  0  0  0  0  0  0  0  0
   18.4071    2.4966   17.4321 O   0  0  0  0  0  0  0  0  0  0  0  0
   16.2957    1.2356   17.6044 N   0  0  0  0  0  0  0  0  0  0  0  0
   15.8845    0.8052   16.2898 C   0  0  0  0  0  0  0  0  0  0  0  0
   15.1892   -0.6262   16.1179 C   0  0  0  0  0  0  0  0  0  0  0  0
   16.2946   -1.6341   16.0584 N   0  0  0  0  0  0  0  0  0  0  0  0
   16.0341   -2.9010   15.3711 C   0  0  0  0  0  0  0  0  0  0  0  0
   15.5913   -4.1219   16.1880 C   0  0  0  0  0  0  0  0  0  0  0  0
   15.9969   -4.0376   17.6439 C   0  0  0  0  0  0  0  0  0  0  0  0
   16.1502   -5.3527   18.1768 O   0  0  0  0  0  0  0  0  0  0  0  0
   17.2866   -3.2481   17.7591 C   0  0  0  0  0  0  0  0  0  0  0  0
   17.0393   -1.8067   17.3131 C   0  0  0  0  0  0  0  0  0  0  0  0
   14.3210   -0.4320   14.8975 N   0  0  0  0  0  0  0  0  0  0  0  0
   13.2570   -1.3092   15.1885 C   0  0  0  0  0  0  0  0  0  0  0  0
   12.3443   -1.8320   14.3112 C   0  0  0  0  0  0  0  0  0  0  0  0
   11.6183   -2.9248   14.7591 C   0  0  0  0  0  0  0  0  0  0  0  0
   11.8207   -3.4396   16.0450 C   0  0  0  0  0  0  0  0  0  0  0  0
   12.6501   -2.7969   16.9545 C   0  0  0  0  0  0  0  0  0  0  0  0
   13.3179   -1.6898   16.5179 C   0  0  0  0  0  0  0  0  0  0  0  0
   14.2305   -0.8657   17.2402 N   0  0  0  0  0  0  0  0  0  0  0  0
   14.8746    4.9229   19.4715 H   0  0  0  0  0  0  0  0  0  0  0  0
   15.1089    3.7253   18.1947 H   0  0  0  0  0  0  0  0  0  0  0  0
   14.6539    3.2023   19.8299 H   0  0  0  0  0  0  0  0  0  0  0  0
   16.8243    4.1444   20.6910 H   0  0  0  0  0  0  0  0  0  0  0  0
   17.2986    4.5382   19.0420 H   0  0  0  0  0  0  0  0  0  0  0  0
   16.6962    1.6775   20.0333 H   0  0  0  0  0  0  0  0  0  0  0  0
   18.3004    2.3865   19.9913 H   0  0  0  0  0  0  0  0  0  0  0  0
   15.6609    1.1184   18.3851 H   0  0  0  0  0  0  0  0  0  0  0  0
   16.7449    0.8931   15.6141 H   0  0  0  0  0  0  0  0  0  0  0  0
   15.1886    1.5935   15.9750 H   0  0  0  0  0  0  0  0  0  0  0  0
   15.4007   -2.7705   14.4901 H   0  0  0  0  0  0  0  0  0  0  0  0
   16.9989   -3.1782   14.9196 H   0  0  0  0  0  0  0  0  0  0  0  0
   14.5199   -4.2986   16.1204 H   0  0  0  0  0  0  0  0  0  0  0  0
   16.0413   -5.0149   15.7331 H   0  0  0  0  0  0  0  0  0  0  0  0
   15.2156   -3.5514   18.2359 H   0  0  0  0  0  0  0  0  0  0  0  0
   16.9246   -5.7590   17.7503 H   0  0  0  0  0  0  0  0  0  0  0  0
   18.0784   -3.7127   17.1570 H   0  0  0  0  0  0  0  0  0  0  0  0
   17.6517   -3.2652   18.7931 H   0  0  0  0  0  0  0  0  0  0  0  0
   16.5379   -1.3101   18.1515 H   0  0  0  0  0  0  0  0  0  0  0  0
   18.0089   -1.3055   17.2070 H   0  0  0  0  0  0  0  0  0  0  0  0
   13.9418    0.5030   14.8093 H   0  0  0  0  0  0  0  0  0  0  0  0
   12.2747   -1.4987   13.2831 H   0  0  0  0  0  0  0  0  0  0  0  0
   10.9539   -3.4319   14.0735 H   0  0  0  0  0  0  0  0  0  0  0  0
   11.3356   -4.3613   16.3409 H   0  0  0  0  0  0  0  0  0  0  0  0
   12.8103   -3.2120   17.9429 H   0  0  0  0  0  0  0  0  0  0  0  0
   13.7491    0.0181   17.3713 H   0  0  0  0  0  0  0  0  0  0  0  0
  1  2  1  0
  2  3  1  0
  3  4  1  0
  4  5  2  0
  4  6  1  0
  6  7  1  0
  7  8  1  0
  8  9  1  0
  9 10  1  0
 10 11  1  0
 11 12  1  0
 12 13  1  0
 12 14  1  0
 14 15  1  0
  8 16  1  0
 16 17  1  0
 17 18  2  0
 18 19  1  0
 19 20  2  0
 20 21  1  0
 21 22  2  0
 22 23  1  0
 23  8  1  0
 15  9  1  0
 22 17  1  0
  1 24  1  0
  1 25  1  0
  1 26  1  0
  2 27  1  0
  2 28  1  0
  3 29  1  0
  3 30  1  0
  6 31  1  0
  7 32  1  0
  7 33  1  0
 10 34  1  0
 10 35  1  0
 11 36  1  0
 11 37  1  0
 12 38  1  0
 13 39  1  0
 14 40  1  0
 14 41  1  0
 15 42  1  0
 15 43  1  0
 16 44  1  0
 18 45  1  0
 19 46  1  0
 20 47  1  0
 21 48  1  0
 23 49  1  0
M  END
>  <Energy>  (153) 
-0.13135050694030159

>  <compound_id>  (153) 
493

>  <target_id>  (153) 
1

>  <reference_id>  (153) 
98

>  <inspiration_ids>  (153) 
[55, 98]

>  <energy_score>  (153) 
-13.264974420591983

>  <distance_score>  (153) 
2.0619730551299846

>  <path>  (153) 
/opt/xchem-fragalysis-2/maxwin/BulkDock/SCRATCH/505733/C493-P98/C493-P98.minimised.mol

>  <scratch_subdir>  (153) 
/opt/xchem-fragalysis-2/maxwin/BulkDock/SCRATCH/505733/C493-P98

>  <fragmenstein_runtime>  (153) 
3.4570419788360596

>  <fragmenstein_outcome>  (153) 
too moved

>  <fragmenstein_mode>  (153) 
expansion

>  <fragmenstein_error>  (153) 


$$$$
C47-P55
     RDKit          3D

 28 29  0  0  0  0  0  0  0  0999 V2000
   11.9120    0.4985   14.7245 C   0  0  0  0  0  0  0  0  0  0  0  0
   12.2365   -0.7894   15.4319 C   0  0  0  0  0  0  0  0  0  0  0  0
   11.5300   -1.9423   15.0808 C   0  0  0  0  0  0  0  0  0  0  0  0
   11.8024   -3.1591   15.6898 C   0  0  0  0  0  0  0  0  0  0  0  0
   12.8006   -3.2399   16.6447 C   0  0  0  0  0  0  0  0  0  0  0  0
   13.0532   -4.4197   17.2244 F   0  0  0  0  0  0  0  0  0  0  0  0
   13.5112   -2.1098   17.0273 C   0  0  0  0  0  0  0  0  0  0  0  0
   13.2128   -0.8779   16.4400 C   0  0  0  0  0  0  0  0  0  0  0  0
   13.8451    0.2911   16.8511 N   0  0  0  0  0  0  0  0  0  0  0  0
   14.9834    0.5103   17.8709 C   0  0  0  0  0  0  0  0  0  0  0  0
   15.5167   -0.2442   18.5820 O   0  0  0  0  0  0  0  0  0  0  0  0
   15.4341    1.9264   17.8303 C   0  0  0  0  0  0  0  0  0  0  0  0
   15.6408    2.5605   16.6037 C   0  0  0  0  0  0  0  0  0  0  0  0
   16.1025    3.8558   16.6292 C   0  0  0  0  0  0  0  0  0  0  0  0
   16.3633    4.5272   17.7686 N   0  0  0  0  0  0  0  0  0  0  0  0
   16.1612    3.8864   18.9394 C   0  0  0  0  0  0  0  0  0  0  0  0
   15.6972    2.5926   19.0252 C   0  0  0  0  0  0  0  0  0  0  0  0
   12.8063    0.9025   14.2390 H   0  0  0  0  0  0  0  0  0  0  0  0
   11.5144    1.2314   15.4339 H   0  0  0  0  0  0  0  0  0  0  0  0
   11.1572    0.3523   13.9441 H   0  0  0  0  0  0  0  0  0  0  0  0
   10.7517   -1.9014   14.3300 H   0  0  0  0  0  0  0  0  0  0  0  0
   11.2319   -4.0398   15.4248 H   0  0  0  0  0  0  0  0  0  0  0  0
   14.2678   -2.2103   17.7983 H   0  0  0  0  0  0  0  0  0  0  0  0
   13.6781    1.1477   16.3427 H   0  0  0  0  0  0  0  0  0  0  0  0
   15.5089    2.0548   15.6544 H   0  0  0  0  0  0  0  0  0  0  0  0
   16.3012    4.4048   15.7130 H   0  0  0  0  0  0  0  0  0  0  0  0
   16.3929    4.4617   19.8313 H   0  0  0  0  0  0  0  0  0  0  0  0
   15.5611    2.1067   19.9852 H   0  0  0  0  0  0  0  0  0  0  0  0
  1  2  1  0
  2  3  2  0
  3  4  1  0
  4  5  2  0
  5  6  1  0
  5  7  1  0
  7  8  2  0
  8  9  1  0
  9 10  1  0
 10 11  2  0
 10 12  1  0
 12 13  2  0
 13 14  1  0
 14 15  2  0
 15 16  1  0
 16 17  2  0
  8  2  1  0
 17 12  1  0
  1 18  1  0
  1 19  1  0
  1 20  1  0
  3 21  1  0
  4 22  1  0
  7 23  1  0
  9 24  1  0
 13 25  1  0
 14 26  1  0
 16 27  1  0
 17 28  1  0
M  END
>  <Energy>  (154) 
28.710628930582597

>  <compound_id>  (154) 
47

>  <target_id>  (154) 
1

>  <reference_id>  (154) 
55

>  <inspiration_ids>  (154) 
[55, 118]

>  <energy_score>  (154) 
-16.80294230368014

>  <distance_score>  (154) 
1.542466250912846

>  <path>  (154) 
/opt/xchem-fragalysis-2/maxwin/BulkDock/SCRATCH/505733/C47-P55/C47-P55.minimised.mol

>  <scratch_subdir>  (154) 
/opt/xchem-fragalysis-2/maxwin/BulkDock/SCRATCH/505733/C47-P55

>  <fragmenstein_runtime>  (154) 
9.421698570251465

>  <fragmenstein_outcome>  (154) 
too moved

>  <fragmenstein_mode>  (154) 
expansion

>  <fragmenstein_error>  (154) 


$$$$
C47-P118
     RDKit          3D

 28 29  0  0  0  0  0  0  0  0999 V2000
   11.9814    0.5146   14.5338 C   0  0  0  0  0  0  0  0  0  0  0  0
   12.3340   -0.7468   15.2692 C   0  0  0  0  0  0  0  0  0  0  0  0
   11.5486   -1.8724   14.9737 C   0  0  0  0  0  0  0  0  0  0  0  0
   11.7261   -3.0737   15.6415 C   0  0  0  0  0  0  0  0  0  0  0  0
   12.7130   -3.1759   16.6019 C   0  0  0  0  0  0  0  0  0  0  0  0
   12.8880   -4.3370   17.2449 F   0  0  0  0  0  0  0  0  0  0  0  0
   13.5178   -2.0875   16.9085 C   0  0  0  0  0  0  0  0  0  0  0  0
   13.3407   -0.8658   16.2425 C   0  0  0  0  0  0  0  0  0  0  0  0
   14.1486    0.1853   16.6798 N   0  0  0  0  0  0  0  0  0  0  0  0
   14.5804    1.4864   15.9629 C   0  0  0  0  0  0  0  0  0  0  0  0
   14.3912    1.8458   14.8680 O   0  0  0  0  0  0  0  0  0  0  0  0
   15.2575    2.4371   16.8854 C   0  0  0  0  0  0  0  0  0  0  0  0
   15.0110    3.7894   16.6618 C   0  0  0  0  0  0  0  0  0  0  0  0
   15.6333    4.6958   17.4869 C   0  0  0  0  0  0  0  0  0  0  0  0
   16.4536    4.3472   18.5005 N   0  0  0  0  0  0  0  0  0  0  0  0
   16.6797    3.0377   18.6948 C   0  0  0  0  0  0  0  0  0  0  0  0
   16.1076    2.0492   17.9209 C   0  0  0  0  0  0  0  0  0  0  0  0
   12.6620    0.6693   13.6927 H   0  0  0  0  0  0  0  0  0  0  0  0
   11.9710    1.3757   15.2077 H   0  0  0  0  0  0  0  0  0  0  0  0
   10.9677    0.4600   14.1184 H   0  0  0  0  0  0  0  0  0  0  0  0
   10.7677   -1.8085   14.2228 H   0  0  0  0  0  0  0  0  0  0  0  0
   11.0937   -3.9205   15.4093 H   0  0  0  0  0  0  0  0  0  0  0  0
   14.2835   -2.2142   17.6672 H   0  0  0  0  0  0  0  0  0  0  0  0
   14.5519    0.1602   17.6045 H   0  0  0  0  0  0  0  0  0  0  0  0
   14.3635    4.1292   15.8600 H   0  0  0  0  0  0  0  0  0  0  0  0
   15.4865    5.7648   17.3577 H   0  0  0  0  0  0  0  0  0  0  0  0
   17.3629    2.7985   19.5050 H   0  0  0  0  0  0  0  0  0  0  0  0
   16.3758    1.0157   18.1011 H   0  0  0  0  0  0  0  0  0  0  0  0
  1  2  1  0
  2  3  2  0
  3  4  1  0
  4  5  2  0
  5  6  1  0
  5  7  1  0
  7  8  2  0
  8  9  1  0
  9 10  1  0
 10 11  2  0
 10 12  1  0
 12 13  2  0
 13 14  1  0
 14 15  2  0
 15 16  1  0
 16 17  2  0
  8  2  1  0
 17 12  1  0
  1 18  1  0
  1 19  1  0
  1 20  1  0
  3 21  1  0
  4 22  1  0
  7 23  1  0
  9 24  1  0
 13 25  1  0
 14 26  1  0
 16 27  1  0
 17 28  1  0
M  END
>  <Energy>  (155) 
36.388985839399467

>  <compound_id>  (155) 
47

>  <target_id>  (155) 
1

>  <reference_id>  (155) 
118

>  <inspiration_ids>  (155) 
[55, 118]

>  <energy_score>  (155) 
-9.124585394863828

>  <distance_score>  (155) 
1.6117793248539387

>  <path>  (155) 
/opt/xchem-fragalysis-2/maxwin/BulkDock/SCRATCH/505733/C47-P118/C47-P118.minimised.mol

>  <scratch_subdir>  (155) 
/opt/xchem-fragalysis-2/maxwin/BulkDock/SCRATCH/505733/C47-P118

>  <fragmenstein_runtime>  (155) 
8.49789023399353

>  <fragmenstein_outcome>  (155) 
too moved

>  <fragmenstein_mode>  (155) 
expansion

>  <fragmenstein_error>  (155) 


$$$$
C499-P55
     RDKit          3D

 54 57  0  0  0  0  0  0  0  0999 V2000
   13.3114    1.8944   12.3126 C   0  0  0  0  0  0  0  0  0  0  0  0
   14.6957    2.0864   12.8728 C   0  0  0  0  0  0  0  0  0  0  0  0
   15.0017    3.4163   13.2374 C   0  0  0  0  0  0  0  0  0  0  0  0
   16.2069    3.7313   13.8479 C   0  0  0  0  0  0  0  0  0  0  0  0
   17.1354    2.7293   14.0531 C   0  0  0  0  0  0  0  0  0  0  0  0
   18.2627    3.0039   14.7160 F   0  0  0  0  0  0  0  0  0  0  0  0
   16.9050    1.4263   13.6345 C   0  0  0  0  0  0  0  0  0  0  0  0
   15.6795    1.0546   13.0441 C   0  0  0  0  0  0  0  0  0  0  0  0
   15.3043   -0.4752   13.0383 N   0  0  0  0  0  0  0  0  0  0  0  0
   15.3865   -0.2541   11.5242 C   0  0  0  0  0  0  0  0  0  0  0  0
   15.1576   -1.5994   10.9956 N   0  0  0  0  0  0  0  0  0  0  0  0
   16.1651   -1.2068   13.9256 C   0  0  0  0  0  0  0  0  0  0  0  0
   17.2183   -1.7582   13.7172 O   0  0  0  0  0  0  0  0  0  0  0  0
   15.6521   -1.1563   15.3960 C   0  0  0  0  0  0  0  0  0  0  0  0
   16.8501   -1.4900   16.3324 C   0  0  0  0  0  0  0  0  0  0  0  0
   17.2244   -2.9786   16.3118 C   0  0  0  0  0  0  0  0  0  0  0  0
   16.1219   -3.8576   15.9157 N   0  0  0  0  0  0  0  0  0  0  0  0
   14.8611   -3.3646   16.4497 C   0  0  0  0  0  0  0  0  0  0  0  0
   14.4019   -1.9899   15.8557 C   0  0  0  0  0  0  0  0  0  0  0  0
   13.2901   -2.2108   14.7610 C   0  0  0  0  0  0  0  0  0  0  0  0
   12.2110   -1.1256   14.5237 C   0  0  0  0  0  0  0  0  0  0  0  0
   12.3812    0.0257   15.4320 C   0  0  0  0  0  0  0  0  0  0  0  0
   11.8696    1.2773   15.2543 N   0  0  0  0  0  0  0  0  0  0  0  0
   12.3928    2.1053   16.2154 C   0  0  0  0  0  0  0  0  0  0  0  0
   13.1916    1.3505   17.0497 C   0  0  0  0  0  0  0  0  0  0  0  0
   13.1213    0.0198   16.5864 C   0  0  0  0  0  0  0  0  0  0  0  0
   13.7573   -1.2310   17.0592 C   0  0  0  0  0  0  0  0  0  0  0  0
   13.2983    2.1577   11.2495 H   0  0  0  0  0  0  0  0  0  0  0  0
   12.9583    0.8708   12.4248 H   0  0  0  0  0  0  0  0  0  0  0  0
   12.5885    2.5391   12.8233 H   0  0  0  0  0  0  0  0  0  0  0  0
   14.2699    4.2095   13.0925 H   0  0  0  0  0  0  0  0  0  0  0  0
   16.4200    4.7418   14.1807 H   0  0  0  0  0  0  0  0  0  0  0  0
   17.6935    0.7066   13.8372 H   0  0  0  0  0  0  0  0  0  0  0  0
   16.3975    0.0125   11.1809 H   0  0  0  0  0  0  0  0  0  0  0  0
   14.6011    0.3486   11.0722 H   0  0  0  0  0  0  0  0  0  0  0  0
   14.3541   -2.0044   11.4663 H   0  0  0  0  0  0  0  0  0  0  0  0
   14.9546   -1.5695   10.0011 H   0  0  0  0  0  0  0  0  0  0  0  0
   15.4529   -0.0920   15.5682 H   0  0  0  0  0  0  0  0  0  0  0  0
   16.6003   -1.2014   17.3603 H   0  0  0  0  0  0  0  0  0  0  0  0
   17.7302   -0.8909   16.0660 H   0  0  0  0  0  0  0  0  0  0  0  0
   18.0728   -3.1531   15.6405 H   0  0  0  0  0  0  0  0  0  0  0  0
   17.5769   -3.2699   17.3088 H   0  0  0  0  0  0  0  0  0  0  0  0
   16.0942   -3.8937   14.8912 H   0  0  0  0  0  0  0  0  0  0  0  0
   14.9618   -3.3071   17.5427 H   0  0  0  0  0  0  0  0  0  0  0  0
   14.0933   -4.1304   16.2966 H   0  0  0  0  0  0  0  0  0  0  0  0
   12.7168   -3.1071   15.0339 H   0  0  0  0  0  0  0  0  0  0  0  0
   13.7509   -2.4485   13.7985 H   0  0  0  0  0  0  0  0  0  0  0  0
   11.2191   -1.5642   14.6885 H   0  0  0  0  0  0  0  0  0  0  0  0
   12.2374   -0.8142   13.4776 H   0  0  0  0  0  0  0  0  0  0  0  0
   11.2598    1.5635   14.4999 H   0  0  0  0  0  0  0  0  0  0  0  0
   12.1529    3.1599   16.2314 H   0  0  0  0  0  0  0  0  0  0  0  0
   13.7375    1.7242   17.9070 H   0  0  0  0  0  0  0  0  0  0  0  0
   12.9838   -1.8767   17.4884 H   0  0  0  0  0  0  0  0  0  0  0  0
   14.4763   -1.0163   17.8566 H   0  0  0  0  0  0  0  0  0  0  0  0
  1  2  1  0
  2  3  2  0
  3  4  1  0
  4  5  2  0
  5  6  1  0
  5  7  1  0
  7  8  2  0
  8  9  1  0
  9 10  1  0
 10 11  1  0
  9 12  1  0
 12 13  2  0
 12 14  1  0
 14 15  1  0
 15 16  1  0
 16 17  1  0
 17 18  1  0
 18 19  1  0
 19 20  1  0
 20 21  1  0
 21 22  1  0
 22 23  1  0
 23 24  1  0
 24 25  2  0
 25 26  1  0
 26 27  1  0
  8  2  1  0
 19 14  1  0
 26 22  2  0
 27 19  1  0
  1 28  1  0
  1 29  1  0
  1 30  1  0
  3 31  1  0
  4 32  1  0
  7 33  1  0
 10 34  1  0
 10 35  1  0
 11 36  1  0
 11 37  1  0
 14 38  1  0
 15 39  1  0
 15 40  1  0
 16 41  1  0
 16 42  1  0
 17 43  1  0
 18 44  1  0
 18 45  1  0
 20 46  1  0
 20 47  1  0
 21 48  1  0
 21 49  1  0
 23 50  1  0
 24 51  1  0
 25 52  1  0
 27 53  1  0
 27 54  1  0
M  END
>  <Energy>  (156) 
96.302922847827958

>  <compound_id>  (156) 
499

>  <target_id>  (156) 
1

>  <reference_id>  (156) 
55

>  <inspiration_ids>  (156) 
[55, 120]

>  <energy_score>  (156) 
-3.346601433667786

>  <distance_score>  (156) 
2.3636245762899963

>  <path>  (156) 
/opt/xchem-fragalysis-2/maxwin/BulkDock/SCRATCH/505733/C499-P55/C499-P55.minimised.mol

>  <scratch_subdir>  (156) 
/opt/xchem-fragalysis-2/maxwin/BulkDock/SCRATCH/505733/C499-P55

>  <fragmenstein_runtime>  (156) 
9.429091453552246

>  <fragmenstein_outcome>  (156) 
too moved

>  <fragmenstein_mode>  (156) 
expansion

>  <fragmenstein_error>  (156) 


$$$$
C499-P120
     RDKit          3D

 54 57  0  0  0  0  0  0  0  0999 V2000
   13.5719    2.1887   12.3650 C   0  0  0  0  0  0  0  0  0  0  0  0
   14.9464    2.2615   12.9772 C   0  0  0  0  0  0  0  0  0  0  0  0
   15.3240    3.5535   13.4065 C   0  0  0  0  0  0  0  0  0  0  0  0
   16.5255    3.7663   14.0662 C   0  0  0  0  0  0  0  0  0  0  0  0
   17.3820    2.6998   14.2567 C   0  0  0  0  0  0  0  0  0  0  0  0
   18.5016    2.8735   14.9651 F   0  0  0  0  0  0  0  0  0  0  0  0
   17.0845    1.4320   13.7770 C   0  0  0  0  0  0  0  0  0  0  0  0
   15.8575    1.1624   13.1365 C   0  0  0  0  0  0  0  0  0  0  0  0
   15.3861   -0.3393   13.0628 N   0  0  0  0  0  0  0  0  0  0  0  0
   15.5120   -0.0648   11.5622 C   0  0  0  0  0  0  0  0  0  0  0  0
   15.2686   -1.3876   10.9746 N   0  0  0  0  0  0  0  0  0  0  0  0
   16.1797   -1.1580   13.9335 C   0  0  0  0  0  0  0  0  0  0  0  0
   17.1991   -1.7673   13.7207 O   0  0  0  0  0  0  0  0  0  0  0  0
   15.6416   -1.1315   15.3948 C   0  0  0  0  0  0  0  0  0  0  0  0
   16.7994   -1.5568   16.3441 C   0  0  0  0  0  0  0  0  0  0  0  0
   17.0959   -3.0628   16.2882 C   0  0  0  0  0  0  0  0  0  0  0  0
   15.9456   -3.8761   15.8847 N   0  0  0  0  0  0  0  0  0  0  0  0
   14.7144   -3.3011   16.4071 C   0  0  0  0  0  0  0  0  0  0  0  0
   14.3425   -1.9099   15.7970 C   0  0  0  0  0  0  0  0  0  0  0  0
   13.2736   -2.0895   14.6578 C   0  0  0  0  0  0  0  0  0  0  0  0
   12.2971   -0.9349   14.3359 C   0  0  0  0  0  0  0  0  0  0  0  0
   12.4117    0.1772   15.3007 C   0  0  0  0  0  0  0  0  0  0  0  0
   11.9006    1.4322   15.1415 N   0  0  0  0  0  0  0  0  0  0  0  0
   12.3669    2.2283   16.1570 C   0  0  0  0  0  0  0  0  0  0  0  0
   13.1275    1.4487   17.0031 C   0  0  0  0  0  0  0  0  0  0  0  0
   13.0851    0.1336   16.4941 C   0  0  0  0  0  0  0  0  0  0  0  0
   13.6786   -1.1327   16.9754 C   0  0  0  0  0  0  0  0  0  0  0  0
   13.6149    2.4974   11.3150 H   0  0  0  0  0  0  0  0  0  0  0  0
   13.1426    1.1903   12.4192 H   0  0  0  0  0  0  0  0  0  0  0  0
   12.8775    2.8600   12.8816 H   0  0  0  0  0  0  0  0  0  0  0  0
   14.6492    4.3975   13.2715 H   0  0  0  0  0  0  0  0  0  0  0  0
   16.7902    4.7474   14.4465 H   0  0  0  0  0  0  0  0  0  0  0  0
   17.8211    0.6582   13.9740 H   0  0  0  0  0  0  0  0  0  0  0  0
   16.5337    0.1934   11.2426 H   0  0  0  0  0  0  0  0  0  0  0  0
   14.7479    0.5653   11.1123 H   0  0  0  0  0  0  0  0  0  0  0  0
   16.0014   -2.0103   11.3251 H   0  0  0  0  0  0  0  0  0  0  0  0
   14.4144   -1.7528   11.3904 H   0  0  0  0  0  0  0  0  0  0  0  0
   15.4918   -0.0649   15.6021 H   0  0  0  0  0  0  0  0  0  0  0  0
   16.5392   -1.2851   17.3744 H   0  0  0  0  0  0  0  0  0  0  0  0
   17.7158   -0.9983   16.1150 H   0  0  0  0  0  0  0  0  0  0  0  0
   17.9286   -3.2675   15.6061 H   0  0  0  0  0  0  0  0  0  0  0  0
   17.4397   -3.3926   17.2760 H   0  0  0  0  0  0  0  0  0  0  0  0
   15.9244   -3.9133   14.8606 H   0  0  0  0  0  0  0  0  0  0  0  0
   14.8113   -3.2413   17.5005 H   0  0  0  0  0  0  0  0  0  0  0  0
   13.8980   -4.0142   16.2537 H   0  0  0  0  0  0  0  0  0  0  0  0
   12.6225   -2.9308   14.9332 H   0  0  0  0  0  0  0  0  0  0  0  0
   13.7606   -2.3955   13.7271 H   0  0  0  0  0  0  0  0  0  0  0  0
   11.2704   -1.3174   14.3462 H   0  0  0  0  0  0  0  0  0  0  0  0
   12.4865   -0.5848   13.3207 H   0  0  0  0  0  0  0  0  0  0  0  0
   11.3290    1.7422   14.3666 H   0  0  0  0  0  0  0  0  0  0  0  0
   12.1187    3.2805   16.1967 H   0  0  0  0  0  0  0  0  0  0  0  0
   13.6237    1.7945   17.9014 H   0  0  0  0  0  0  0  0  0  0  0  0
   12.8727   -1.7582   17.3714 H   0  0  0  0  0  0  0  0  0  0  0  0
   14.3765   -0.9409   17.7975 H   0  0  0  0  0  0  0  0  0  0  0  0
  1  2  1  0
  2  3  2  0
  3  4  1  0
  4  5  2  0
  5  6  1  0
  5  7  1  0
  7  8  2  0
  8  9  1  0
  9 10  1  0
 10 11  1  0
  9 12  1  0
 12 13  2  0
 12 14  1  0
 14 15  1  0
 15 16  1  0
 16 17  1  0
 17 18  1  0
 18 19  1  0
 19 20  1  0
 20 21  1  0
 21 22  1  0
 22 23  1  0
 23 24  1  0
 24 25  2  0
 25 26  1  0
 26 27  1  0
  8  2  1  0
 19 14  1  0
 26 22  2  0
 27 19  1  0
  1 28  1  0
  1 29  1  0
  1 30  1  0
  3 31  1  0
  4 32  1  0
  7 33  1  0
 10 34  1  0
 10 35  1  0
 11 36  1  0
 11 37  1  0
 14 38  1  0
 15 39  1  0
 15 40  1  0
 16 41  1  0
 16 42  1  0
 17 43  1  0
 18 44  1  0
 18 45  1  0
 20 46  1  0
 20 47  1  0
 21 48  1  0
 21 49  1  0
 23 50  1  0
 24 51  1  0
 25 52  1  0
 27 53  1  0
 27 54  1  0
M  END
>  <Energy>  (157) 
91.049304727041275

>  <compound_id>  (157) 
499

>  <target_id>  (157) 
1

>  <reference_id>  (157) 
120

>  <inspiration_ids>  (157) 
[55, 120]

>  <energy_score>  (157) 
-8.600219554455549

>  <distance_score>  (157) 
2.438319558348544

>  <path>  (157) 
/opt/xchem-fragalysis-2/maxwin/BulkDock/SCRATCH/505733/C499-P120/C499-P120.minimised.mol

>  <scratch_subdir>  (157) 
/opt/xchem-fragalysis-2/maxwin/BulkDock/SCRATCH/505733/C499-P120

>  <fragmenstein_runtime>  (157) 
9.752506017684937

>  <fragmenstein_outcome>  (157) 
too moved

>  <fragmenstein_mode>  (157) 
expansion

>  <fragmenstein_error>  (157) 


$$$$
C505-P56
     RDKit          3D

 56 58  0  0  0  0  0  0  0  0999 V2000
    3.1877   -4.1648   34.5744 C   0  0  0  0  0  0  0  0  0  0  0  0
    2.3016   -3.9175   35.7645 C   0  0  0  0  0  0  0  0  0  0  0  0
    2.6940   -2.9486   36.7066 C   0  0  0  0  0  0  0  0  0  0  0  0
    1.9173   -2.6966   37.8357 C   0  0  0  0  0  0  0  0  0  0  0  0
    0.7383   -3.4019   38.0200 C   0  0  0  0  0  0  0  0  0  0  0  0
   -0.0048   -3.1656   39.1101 F   0  0  0  0  0  0  0  0  0  0  0  0
    0.3128   -4.3428   37.0905 C   0  0  0  0  0  0  0  0  0  0  0  0
    1.0920   -4.6123   35.9603 C   0  0  0  0  0  0  0  0  0  0  0  0
    0.6534   -5.5300   35.0010 N   0  0  0  0  0  0  0  0  0  0  0  0
   -0.5568   -6.2863   34.9097 C   0  0  0  0  0  0  0  0  0  0  0  0
   -1.4758   -6.3901   35.6732 O   0  0  0  0  0  0  0  0  0  0  0  0
   -0.7640   -6.9969   33.5954 C   0  0  0  0  0  0  0  0  0  0  0  0
   -1.5373   -8.1643   33.7050 C   0  0  0  0  0  0  0  0  0  0  0  0
   -1.9256   -8.8234   32.5618 C   0  0  0  0  0  0  0  0  0  0  0  0
   -1.5636   -8.4426   31.3280 N   0  0  0  0  0  0  0  0  0  0  0  0
   -0.7656   -7.3550   31.2423 C   0  0  0  0  0  0  0  0  0  0  0  0
   -0.3800   -6.5436   32.3127 C   0  0  0  0  0  0  0  0  0  0  0  0
    0.3984   -5.2711   32.0361 C   0  0  0  0  0  0  0  0  0  0  0  0
    0.2666   -4.6800   30.6252 C   0  0  0  0  0  0  0  0  0  0  0  0
    0.9457   -3.4225   30.4721 N   0  0  0  0  0  0  0  0  0  0  0  0
    2.3480   -3.1210   30.2782 C   0  0  0  0  0  0  0  0  0  0  0  0
    3.2863   -3.8270   30.2759 O   0  0  0  0  0  0  0  0  0  0  0  0
    2.2594   -1.6714   30.1549 N   0  0  0  0  0  0  0  0  0  0  0  0
    3.3247   -0.6438   30.1015 C   0  0  0  0  0  0  0  0  0  0  0  0
    2.1046   -1.2739   28.6664 C   0  0  0  0  0  0  0  0  0  0  0  0
    0.8944   -0.3775   28.4097 C   0  0  0  0  0  0  0  0  0  0  0  0
   -0.3918   -0.9307   28.3191 C   0  0  0  0  0  0  0  0  0  0  0  0
   -1.4992   -0.1239   28.0507 C   0  0  0  0  0  0  0  0  0  0  0  0
   -1.3420    1.2483   27.8782 C   0  0  0  0  0  0  0  0  0  0  0  0
   -0.0721    1.8122   27.9601 C   0  0  0  0  0  0  0  0  0  0  0  0
    1.0395    1.0046   28.2153 C   0  0  0  0  0  0  0  0  0  0  0  0
    4.1389   -3.6289   34.6625 H   0  0  0  0  0  0  0  0  0  0  0  0
    3.4264   -5.2297   34.4869 H   0  0  0  0  0  0  0  0  0  0  0  0
    2.6953   -3.8202   33.6601 H   0  0  0  0  0  0  0  0  0  0  0  0
    3.6275   -2.4062   36.5776 H   0  0  0  0  0  0  0  0  0  0  0  0
    2.2303   -1.9678   38.5747 H   0  0  0  0  0  0  0  0  0  0  0  0
   -0.6265   -4.8519   37.2765 H   0  0  0  0  0  0  0  0  0  0  0  0
    1.2381   -5.7476   34.2065 H   0  0  0  0  0  0  0  0  0  0  0  0
   -1.8703   -8.5379   34.6717 H   0  0  0  0  0  0  0  0  0  0  0  0
   -2.5553   -9.7024   32.6113 H   0  0  0  0  0  0  0  0  0  0  0  0
   -0.4480   -7.1540   30.2218 H   0  0  0  0  0  0  0  0  0  0  0  0
    0.0658   -4.4935   32.7334 H   0  0  0  0  0  0  0  0  0  0  0  0
    1.4607   -5.4693   32.2189 H   0  0  0  0  0  0  0  0  0  0  0  0
    0.6999   -5.3559   29.8827 H   0  0  0  0  0  0  0  0  0  0  0  0
   -0.7805   -4.5007   30.3754 H   0  0  0  0  0  0  0  0  0  0  0  0
    0.4205   -2.5563   30.4931 H   0  0  0  0  0  0  0  0  0  0  0  0
    2.9967    0.3872   29.9359 H   0  0  0  0  0  0  0  0  0  0  0  0
    4.2242   -0.9556   29.5487 H   0  0  0  0  0  0  0  0  0  0  0  0
    3.6937   -0.6229   31.1381 H   0  0  0  0  0  0  0  0  0  0  0  0
    1.8587   -2.2160   28.1462 H   0  0  0  0  0  0  0  0  0  0  0  0
    2.9793   -0.9608   28.0656 H   0  0  0  0  0  0  0  0  0  0  0  0
   -0.5399   -2.0046   28.4120 H   0  0  0  0  0  0  0  0  0  0  0  0
   -2.4807   -0.5789   27.9559 H   0  0  0  0  0  0  0  0  0  0  0  0
   -2.2054    1.8773   27.6712 H   0  0  0  0  0  0  0  0  0  0  0  0
    0.0525    2.8833   27.8174 H   0  0  0  0  0  0  0  0  0  0  0  0
    2.0201    1.4720   28.2466 H   0  0  0  0  0  0  0  0  0  0  0  0
  1  2  1  0
  2  3  2  0
  3  4  1  0
  4  5  2  0
  5  6  1  0
  5  7  1  0
  7  8  2  0
  8  9  1  0
  9 10  1  0
 10 11  2  0
 10 12  1  0
 12 13  2  0
 13 14  1  0
 14 15  2  0
 15 16  1  0
 16 17  2  0
 17 18  1  0
 18 19  1  0
 19 20  1  0
 20 21  1  0
 21 22  2  0
 21 23  1  0
 23 24  1  0
 23 25  1  0
 25 26  1  0
 26 27  2  0
 27 28  1  0
 28 29  2  0
 29 30  1  0
 30 31  2  0
  8  2  1  0
 17 12  1  0
 31 26  1  0
  1 32  1  0
  1 33  1  0
  1 34  1  0
  3 35  1  0
  4 36  1  0
  7 37  1  0
  9 38  1  0
 13 39  1  0
 14 40  1  0
 16 41  1  0
 18 42  1  0
 18 43  1  0
 19 44  1  0
 19 45  1  0
 20 46  1  0
 24 47  1  0
 24 48  1  0
 24 49  1  0
 25 50  1  0
 25 51  1  0
 27 52  1  0
 28 53  1  0
 29 54  1  0
 30 55  1  0
 31 56  1  0
M  END
>  <Energy>  (158) 
49.409670021359297

>  <compound_id>  (158) 
505

>  <target_id>  (158) 
1

>  <reference_id>  (158) 
56

>  <inspiration_ids>  (158) 
[56, 13]

>  <energy_score>  (158) 
40.45992763160343

>  <distance_score>  (158) 
2.134463571407006

>  <path>  (158) 
/opt/xchem-fragalysis-2/maxwin/BulkDock/SCRATCH/505733/C505-P56/C505-P56.minimised.mol

>  <scratch_subdir>  (158) 
/opt/xchem-fragalysis-2/maxwin/BulkDock/SCRATCH/505733/C505-P56

>  <fragmenstein_runtime>  (158) 
15.145977973937988

>  <fragmenstein_outcome>  (158) 
too moved

>  <fragmenstein_mode>  (158) 
expansion

>  <fragmenstein_error>  (158) 


$$$$
C505-P13
     RDKit          3D

 56 58  0  0  0  0  0  0  0  0999 V2000
    3.3413   -1.1928   35.6180 C   0  0  0  0  0  0  0  0  0  0  0  0
    2.8571   -2.0363   36.7642 C   0  0  0  0  0  0  0  0  0  0  0  0
    2.8651   -1.5002   38.0619 C   0  0  0  0  0  0  0  0  0  0  0  0
    2.4043   -2.2513   39.1425 C   0  0  0  0  0  0  0  0  0  0  0  0
    1.9455   -3.5431   38.9309 C   0  0  0  0  0  0  0  0  0  0  0  0
    1.4691   -4.2490   39.9643 F   0  0  0  0  0  0  0  0  0  0  0  0
    1.9481   -4.1041   37.6613 C   0  0  0  0  0  0  0  0  0  0  0  0
    2.3889   -3.3481   36.5720 C   0  0  0  0  0  0  0  0  0  0  0  0
    2.2777   -3.8481   35.2768 N   0  0  0  0  0  0  0  0  0  0  0  0
    1.9916   -5.1614   34.8023 C   0  0  0  0  0  0  0  0  0  0  0  0
    1.8507   -6.1930   35.3901 O   0  0  0  0  0  0  0  0  0  0  0  0
    1.7450   -5.1758   33.3518 C   0  0  0  0  0  0  0  0  0  0  0  0
    2.8001   -5.3116   32.4676 C   0  0  0  0  0  0  0  0  0  0  0  0
    2.4897   -5.4271   31.1249 C   0  0  0  0  0  0  0  0  0  0  0  0
    1.2351   -5.4848   30.6463 N   0  0  0  0  0  0  0  0  0  0  0  0
    0.2381   -5.2949   31.5315 C   0  0  0  0  0  0  0  0  0  0  0  0
    0.4384   -5.0617   32.8865 C   0  0  0  0  0  0  0  0  0  0  0  0
   -0.6833   -4.5261   33.7386 C   0  0  0  0  0  0  0  0  0  0  0  0
   -0.7346   -2.9750   33.7270 C   0  0  0  0  0  0  0  0  0  0  0  0
   -0.7596   -2.4739   32.3715 N   0  0  0  0  0  0  0  0  0  0  0  0
   -1.7237   -2.6585   31.3163 C   0  0  0  0  0  0  0  0  0  0  0  0
   -2.7636   -3.1963   31.3248 O   0  0  0  0  0  0  0  0  0  0  0  0
   -0.9788   -2.0648   30.2093 N   0  0  0  0  0  0  0  0  0  0  0  0
   -1.2611   -2.0617   28.7416 C   0  0  0  0  0  0  0  0  0  0  0  0
   -1.3453   -0.5880   30.0633 C   0  0  0  0  0  0  0  0  0  0  0  0
   -0.4328    0.3673   29.3078 C   0  0  0  0  0  0  0  0  0  0  0  0
   -0.9794    1.1834   28.3018 C   0  0  0  0  0  0  0  0  0  0  0  0
   -0.1735    2.0719   27.5951 C   0  0  0  0  0  0  0  0  0  0  0  0
    1.1867    2.1488   27.8806 C   0  0  0  0  0  0  0  0  0  0  0  0
    1.7414    1.3366   28.8704 C   0  0  0  0  0  0  0  0  0  0  0  0
    0.9363    0.4484   29.5851 C   0  0  0  0  0  0  0  0  0  0  0  0
    3.7704   -0.2481   35.9689 H   0  0  0  0  0  0  0  0  0  0  0  0
    4.1250   -1.7159   35.0602 H   0  0  0  0  0  0  0  0  0  0  0  0
    2.5108   -0.9514   34.9468 H   0  0  0  0  0  0  0  0  0  0  0  0
    3.2214   -0.4876   38.2404 H   0  0  0  0  0  0  0  0  0  0  0  0
    2.3937   -1.8360   40.1453 H   0  0  0  0  0  0  0  0  0  0  0  0
    1.5615   -5.1113   37.5455 H   0  0  0  0  0  0  0  0  0  0  0  0
    2.4094   -3.2326   34.4842 H   0  0  0  0  0  0  0  0  0  0  0  0
    3.8261   -5.3319   32.8138 H   0  0  0  0  0  0  0  0  0  0  0  0
    3.2660   -5.5079   30.3693 H   0  0  0  0  0  0  0  0  0  0  0  0
   -0.7530   -5.2681   31.0894 H   0  0  0  0  0  0  0  0  0  0  0  0
   -1.6044   -4.9380   33.3264 H   0  0  0  0  0  0  0  0  0  0  0  0
   -0.6223   -4.8937   34.7683 H   0  0  0  0  0  0  0  0  0  0  0  0
   -1.6440   -2.6336   34.2301 H   0  0  0  0  0  0  0  0  0  0  0  0
    0.1312   -2.5325   34.2245 H   0  0  0  0  0  0  0  0  0  0  0  0
    0.0673   -2.0338   31.9896 H   0  0  0  0  0  0  0  0  0  0  0  0
   -0.4614   -1.6495   28.1161 H   0  0  0  0  0  0  0  0  0  0  0  0
   -2.2841   -1.8127   28.4300 H   0  0  0  0  0  0  0  0  0  0  0  0
   -1.1910   -3.1331   28.5090 H   0  0  0  0  0  0  0  0  0  0  0  0
   -1.2986   -0.2018   31.0957 H   0  0  0  0  0  0  0  0  0  0  0  0
   -2.4170   -0.4357   29.8480 H   0  0  0  0  0  0  0  0  0  0  0  0
   -2.0410    1.1367   28.0618 H   0  0  0  0  0  0  0  0  0  0  0  0
   -0.6115    2.7084   26.8300 H   0  0  0  0  0  0  0  0  0  0  0  0
    1.8151    2.8474   27.3347 H   0  0  0  0  0  0  0  0  0  0  0  0
    2.8048    1.3986   29.0859 H   0  0  0  0  0  0  0  0  0  0  0  0
    1.3805   -0.1860   30.3469 H   0  0  0  0  0  0  0  0  0  0  0  0
  1  2  1  0
  2  3  2  0
  3  4  1  0
  4  5  2  0
  5  6  1  0
  5  7  1  0
  7  8  2  0
  8  9  1  0
  9 10  1  0
 10 11  2  0
 10 12  1  0
 12 13  2  0
 13 14  1  0
 14 15  2  0
 15 16  1  0
 16 17  2  0
 17 18  1  0
 18 19  1  0
 19 20  1  0
 20 21  1  0
 21 22  2  0
 21 23  1  0
 23 24  1  0
 23 25  1  0
 25 26  1  0
 26 27  2  0
 27 28  1  0
 28 29  2  0
 29 30  1  0
 30 31  2  0
  8  2  1  0
 17 12  1  0
 31 26  1  0
  1 32  1  0
  1 33  1  0
  1 34  1  0
  3 35  1  0
  4 36  1  0
  7 37  1  0
  9 38  1  0
 13 39  1  0
 14 40  1  0
 16 41  1  0
 18 42  1  0
 18 43  1  0
 19 44  1  0
 19 45  1  0
 20 46  1  0
 24 47  1  0
 24 48  1  0
 24 49  1  0
 25 50  1  0
 25 51  1  0
 27 52  1  0
 28 53  1  0
 29 54  1  0
 30 55  1  0
 31 56  1  0
M  END
>  <Energy>  (159) 
50.200705018051174

>  <compound_id>  (159) 
505

>  <target_id>  (159) 
1

>  <reference_id>  (159) 
13

>  <inspiration_ids>  (159) 
[56, 13]

>  <energy_score>  (159) 
41.25096262829726

>  <distance_score>  (159) 
2.554241936417042

>  <path>  (159) 
/opt/xchem-fragalysis-2/maxwin/BulkDock/SCRATCH/505733/C505-P13/C505-P13.minimised.mol

>  <scratch_subdir>  (159) 
/opt/xchem-fragalysis-2/maxwin/BulkDock/SCRATCH/505733/C505-P13

>  <fragmenstein_runtime>  (159) 
14.757701873779297

>  <fragmenstein_outcome>  (159) 
too moved

>  <fragmenstein_mode>  (159) 
expansion

>  <fragmenstein_error>  (159) 


$$$$
C505-P56
     RDKit          2D

  0  0  0  0  0  0  0  0  0  0999 V2000
M  END
>  <compound_id>  (160) 
505

>  <target_id>  (160) 
1

>  <reference_id>  (160) 
56

>  <inspiration_ids>  (160) 
[56, 25]

>  <energy_score>  (160) 
nan

>  <distance_score>  (160) 
nan

>  <path>  (160) 
/opt/xchem-fragalysis-2/maxwin/BulkDock/SCRATCH/505733/C505-P56/C505-P56.minimised.mol

>  <scratch_subdir>  (160) 
/opt/xchem-fragalysis-2/maxwin/BulkDock/SCRATCH/505733/C505-P56

>  <fragmenstein_runtime>  (160) 
0.24549126625061035

>  <fragmenstein_outcome>  (160) 
too distant

>  <fragmenstein_mode>  (160) 
expansion

>  <fragmenstein_error>  (160) 
DistanceError: hit0+hit1

$$$$
C507-P56
     RDKit          3D

 51 53  0  0  0  0  0  0  0  0999 V2000
    0.5940   -2.2568   34.2499 C   0  0  0  0  0  0  0  0  0  0  0  0
    0.5490   -2.7922   35.6517 C   0  0  0  0  0  0  0  0  0  0  0  0
    0.8773   -1.9324   36.7162 C   0  0  0  0  0  0  0  0  0  0  0  0
    0.8778   -2.3947   38.0307 C   0  0  0  0  0  0  0  0  0  0  0  0
    0.5512   -3.7173   38.2846 C   0  0  0  0  0  0  0  0  0  0  0  0
    0.5184   -4.1555   39.5508 F   0  0  0  0  0  0  0  0  0  0  0  0
    0.2365   -4.5870   37.2481 C   0  0  0  0  0  0  0  0  0  0  0  0
    0.2304   -4.1342   35.9270 C   0  0  0  0  0  0  0  0  0  0  0  0
   -0.0976   -5.0169   34.8947 N   0  0  0  0  0  0  0  0  0  0  0  0
   -0.0742   -6.4498   34.8390 C   0  0  0  0  0  0  0  0  0  0  0  0
    0.3078   -7.2597   35.6372 O   0  0  0  0  0  0  0  0  0  0  0  0
   -0.6209   -7.0274   33.5808 C   0  0  0  0  0  0  0  0  0  0  0  0
   -1.5839   -8.0284   33.7530 C   0  0  0  0  0  0  0  0  0  0  0  0
   -2.1137   -8.6288   32.6310 C   0  0  0  0  0  0  0  0  0  0  0  0
   -1.7446   -8.3182   31.3727 N   0  0  0  0  0  0  0  0  0  0  0  0
   -0.7765   -7.3840   31.2372 C   0  0  0  0  0  0  0  0  0  0  0  0
   -0.1751   -6.7046   32.2934 C   0  0  0  0  0  0  0  0  0  0  0  0
    0.9008   -5.7061   31.9623 C   0  0  0  0  0  0  0  0  0  0  0  0
    0.3008   -4.4565   31.3155 C   0  0  0  0  0  0  0  0  0  0  0  0
   -0.6784   -3.9435   31.7932 O   0  0  0  0  0  0  0  0  0  0  0  0
    1.0577   -4.1125   30.1518 N   0  0  0  0  0  0  0  0  0  0  0  0
    2.1663   -3.1663   30.5182 C   0  0  0  0  0  0  0  0  0  0  0  0
    0.8075   -3.0578   29.0750 C   0  0  0  0  0  0  0  0  0  0  0  0
    0.2326   -1.6814   29.3863 C   0  0  0  0  0  0  0  0  0  0  0  0
   -1.0588   -1.5336   29.9084 C   0  0  0  0  0  0  0  0  0  0  0  0
   -1.5749   -0.2662   30.1839 C   0  0  0  0  0  0  0  0  0  0  0  0
   -0.8118    0.8704   29.9271 C   0  0  0  0  0  0  0  0  0  0  0  0
    0.4654    0.7417   29.3865 C   0  0  0  0  0  0  0  0  0  0  0  0
    0.9833   -0.5253   29.1116 C   0  0  0  0  0  0  0  0  0  0  0  0
    0.9481   -1.2206   34.2243 H   0  0  0  0  0  0  0  0  0  0  0  0
   -0.4074   -2.2709   33.8102 H   0  0  0  0  0  0  0  0  0  0  0  0
    1.2829   -2.8477   33.6397 H   0  0  0  0  0  0  0  0  0  0  0  0
    1.1365   -0.8936   36.5243 H   0  0  0  0  0  0  0  0  0  0  0  0
    1.1249   -1.7342   38.8545 H   0  0  0  0  0  0  0  0  0  0  0  0
   -0.0290   -5.6072   37.4959 H   0  0  0  0  0  0  0  0  0  0  0  0
   -0.4158   -4.6552   33.9986 H   0  0  0  0  0  0  0  0  0  0  0  0
   -1.9084   -8.3370   34.7431 H   0  0  0  0  0  0  0  0  0  0  0  0
   -2.8778   -9.3936   32.7163 H   0  0  0  0  0  0  0  0  0  0  0  0
   -0.4710   -7.1994   30.2079 H   0  0  0  0  0  0  0  0  0  0  0  0
    1.4731   -5.3990   32.8421 H   0  0  0  0  0  0  0  0  0  0  0  0
    1.6238   -6.1724   31.2849 H   0  0  0  0  0  0  0  0  0  0  0  0
    1.8407   -2.2928   31.0991 H   0  0  0  0  0  0  0  0  0  0  0  0
    2.9184   -2.9569   29.7427 H   0  0  0  0  0  0  0  0  0  0  0  0
    2.7577   -3.7234   31.2625 H   0  0  0  0  0  0  0  0  0  0  0  0
    1.6014   -3.0352   28.3081 H   0  0  0  0  0  0  0  0  0  0  0  0
   -0.0060   -3.5388   28.5062 H   0  0  0  0  0  0  0  0  0  0  0  0
   -1.6788   -2.4072   30.0962 H   0  0  0  0  0  0  0  0  0  0  0  0
   -2.5773   -0.1691   30.5927 H   0  0  0  0  0  0  0  0  0  0  0  0
   -1.2180    1.8559   30.1384 H   0  0  0  0  0  0  0  0  0  0  0  0
    1.0553    1.6292   29.1725 H   0  0  0  0  0  0  0  0  0  0  0  0
    1.9778   -0.6022   28.6773 H   0  0  0  0  0  0  0  0  0  0  0  0
  1  2  1  0
  2  3  2  0
  3  4  1  0
  4  5  2  0
  5  6  1  0
  5  7  1  0
  7  8  2  0
  8  9  1  0
  9 10  1  0
 10 11  2  0
 10 12  1  0
 12 13  2  0
 13 14  1  0
 14 15  2  0
 15 16  1  0
 16 17  2  0
 17 18  1  0
 18 19  1  0
 19 20  2  0
 19 21  1  0
 21 22  1  0
 21 23  1  0
 23 24  1  0
 24 25  2  0
 25 26  1  0
 26 27  2  0
 27 28  1  0
 28 29  2  0
  8  2  1  0
 17 12  1  0
 29 24  1  0
  1 30  1  0
  1 31  1  0
  1 32  1  0
  3 33  1  0
  4 34  1  0
  7 35  1  0
  9 36  1  0
 13 37  1  0
 14 38  1  0
 16 39  1  0
 18 40  1  0
 18 41  1  0
 22 42  1  0
 22 43  1  0
 22 44  1  0
 23 45  1  0
 23 46  1  0
 25 47  1  0
 26 48  1  0
 27 49  1  0
 28 50  1  0
 29 51  1  0
M  END
>  <Energy>  (161) 
110.85991574325031

>  <compound_id>  (161) 
507

>  <target_id>  (161) 
1

>  <reference_id>  (161) 
56

>  <inspiration_ids>  (161) 
[56, 72]

>  <energy_score>  (161) 
21.403115947527013

>  <distance_score>  (161) 
1.1284280356242293

>  <path>  (161) 
/opt/xchem-fragalysis-2/maxwin/BulkDock/SCRATCH/505733/C507-P56/C507-P56.minimised.mol

>  <scratch_subdir>  (161) 
/opt/xchem-fragalysis-2/maxwin/BulkDock/SCRATCH/505733/C507-P56

>  <fragmenstein_runtime>  (161) 
6.0866782665252686

>  <fragmenstein_outcome>  (161) 
too moved

>  <fragmenstein_mode>  (161) 
expansion

>  <fragmenstein_error>  (161) 


$$$$
C507-P72
     RDKit          3D

 51 53  0  0  0  0  0  0  0  0999 V2000
    1.3252   -2.0870   35.3290 C   0  0  0  0  0  0  0  0  0  0  0  0
    0.9405   -2.5746   36.7000 C   0  0  0  0  0  0  0  0  0  0  0  0
    1.2482   -1.7650   37.8068 C   0  0  0  0  0  0  0  0  0  0  0  0
    0.9659   -2.1970   39.1001 C   0  0  0  0  0  0  0  0  0  0  0  0
    0.3832   -3.4410   39.2909 C   0  0  0  0  0  0  0  0  0  0  0  0
    0.1130   -3.8539   40.5355 F   0  0  0  0  0  0  0  0  0  0  0  0
    0.0808   -4.2673   38.2171 C   0  0  0  0  0  0  0  0  0  0  0  0
    0.3568   -3.8411   36.9175 C   0  0  0  0  0  0  0  0  0  0  0  0
    0.1055   -4.6735   35.8265 N   0  0  0  0  0  0  0  0  0  0  0  0
   -0.2908   -6.0469   35.7645 C   0  0  0  0  0  0  0  0  0  0  0  0
   -0.5862   -6.8170   36.6324 O   0  0  0  0  0  0  0  0  0  0  0  0
   -0.2785   -6.5856   34.3729 C   0  0  0  0  0  0  0  0  0  0  0  0
   -1.3506   -7.3987   34.0129 C   0  0  0  0  0  0  0  0  0  0  0  0
   -1.4401   -7.8421   32.7092 C   0  0  0  0  0  0  0  0  0  0  0  0
   -0.5626   -7.5065   31.7527 N   0  0  0  0  0  0  0  0  0  0  0  0
    0.5163   -6.8024   32.1536 C   0  0  0  0  0  0  0  0  0  0  0  0
    0.7686   -6.3949   33.4655 C   0  0  0  0  0  0  0  0  0  0  0  0
    2.1089   -5.7817   33.7651 C   0  0  0  0  0  0  0  0  0  0  0  0
    2.9115   -6.1358   35.0316 C   0  0  0  0  0  0  0  0  0  0  0  0
    3.1915   -5.2135   35.7561 O   0  0  0  0  0  0  0  0  0  0  0  0
    3.2858   -7.5190   35.0980 N   0  0  0  0  0  0  0  0  0  0  0  0
    2.2654   -8.3007   35.8969 C   0  0  0  0  0  0  0  0  0  0  0  0
    4.2381   -8.2412   36.0280 C   0  0  0  0  0  0  0  0  0  0  0  0
    5.6636   -7.8766   35.6050 C   0  0  0  0  0  0  0  0  0  0  0  0
    6.4185   -8.7521   34.8077 C   0  0  0  0  0  0  0  0  0  0  0  0
    7.7123   -8.4101   34.4104 C   0  0  0  0  0  0  0  0  0  0  0  0
    8.2632   -7.1911   34.8011 C   0  0  0  0  0  0  0  0  0  0  0  0
    7.5216   -6.3116   35.5876 C   0  0  0  0  0  0  0  0  0  0  0  0
    6.2282   -6.6508   35.9871 C   0  0  0  0  0  0  0  0  0  0  0  0
    1.6037   -1.0275   35.3463 H   0  0  0  0  0  0  0  0  0  0  0  0
    0.4860   -2.1797   34.6325 H   0  0  0  0  0  0  0  0  0  0  0  0
    2.1834   -2.6509   34.9534 H   0  0  0  0  0  0  0  0  0  0  0  0
    1.7187   -0.7941   37.6675 H   0  0  0  0  0  0  0  0  0  0  0  0
    1.1994   -1.5759   39.9586 H   0  0  0  0  0  0  0  0  0  0  0  0
   -0.3685   -5.2319   38.4250 H   0  0  0  0  0  0  0  0  0  0  0  0
    0.1986   -4.3151   34.8875 H   0  0  0  0  0  0  0  0  0  0  0  0
   -2.0978   -7.6906   34.7420 H   0  0  0  0  0  0  0  0  0  0  0  0
   -2.2576   -8.4775   32.3890 H   0  0  0  0  0  0  0  0  0  0  0  0
    1.2231   -6.5957   31.3529 H   0  0  0  0  0  0  0  0  0  0  0  0
    1.9899   -4.6919   33.7332 H   0  0  0  0  0  0  0  0  0  0  0  0
    2.7949   -5.9983   32.9368 H   0  0  0  0  0  0  0  0  0  0  0  0
    2.0984   -7.8858   36.9023 H   0  0  0  0  0  0  0  0  0  0  0  0
    2.3602   -9.3967   35.8847 H   0  0  0  0  0  0  0  0  0  0  0  0
    1.3177   -8.1723   35.3830 H   0  0  0  0  0  0  0  0  0  0  0  0
    4.1528   -7.9026   37.0736 H   0  0  0  0  0  0  0  0  0  0  0  0
    4.2159   -9.3401   35.9525 H   0  0  0  0  0  0  0  0  0  0  0  0
    6.0022   -9.7042   34.4846 H   0  0  0  0  0  0  0  0  0  0  0  0
    8.2905   -9.0944   33.7955 H   0  0  0  0  0  0  0  0  0  0  0  0
    9.2708   -6.9248   34.4929 H   0  0  0  0  0  0  0  0  0  0  0  0
    7.9482   -5.3586   35.8901 H   0  0  0  0  0  0  0  0  0  0  0  0
    5.6580   -5.9489   36.5942 H   0  0  0  0  0  0  0  0  0  0  0  0
  1  2  1  0
  2  3  2  0
  3  4  1  0
  4  5  2  0
  5  6  1  0
  5  7  1  0
  7  8  2  0
  8  9  1  0
  9 10  1  0
 10 11  2  0
 10 12  1  0
 12 13  2  0
 13 14  1  0
 14 15  2  0
 15 16  1  0
 16 17  2  0
 17 18  1  0
 18 19  1  0
 19 20  2  0
 19 21  1  0
 21 22  1  0
 21 23  1  0
 23 24  1  0
 24 25  2  0
 25 26  1  0
 26 27  2  0
 27 28  1  0
 28 29  2  0
  8  2  1  0
 17 12  1  0
 29 24  1  0
  1 30  1  0
  1 31  1  0
  1 32  1  0
  3 33  1  0
  4 34  1  0
  7 35  1  0
  9 36  1  0
 13 37  1  0
 14 38  1  0
 16 39  1  0
 18 40  1  0
 18 41  1  0
 22 42  1  0
 22 43  1  0
 22 44  1  0
 23 45  1  0
 23 46  1  0
 25 47  1  0
 26 48  1  0
 27 49  1  0
 28 50  1  0
 29 51  1  0
M  END
>  <Energy>  (162) 
113.85489481569694

>  <compound_id>  (162) 
507

>  <target_id>  (162) 
1

>  <reference_id>  (162) 
72

>  <inspiration_ids>  (162) 
[56, 72]

>  <energy_score>  (162) 
24.398095019971606

>  <distance_score>  (162) 
1.511898138381105

>  <path>  (162) 
/opt/xchem-fragalysis-2/maxwin/BulkDock/SCRATCH/505733/C507-P72/C507-P72.minimised.mol

>  <scratch_subdir>  (162) 
/opt/xchem-fragalysis-2/maxwin/BulkDock/SCRATCH/505733/C507-P72

>  <fragmenstein_runtime>  (162) 
4.873101234436035

>  <fragmenstein_outcome>  (162) 
too moved

>  <fragmenstein_mode>  (162) 
expansion

>  <fragmenstein_error>  (162) 


$$$$
C508-P56
     RDKit          3D

 53 56  0  0  0  0  0  0  0  0999 V2000
   -0.3534  -10.4526   42.6025 C   0  0  0  0  0  0  0  0  0  0  0  0
   -0.6698  -10.1457   41.2387 N   0  0  0  0  0  0  0  0  0  0  0  0
   -1.7785  -10.6992   40.3179 C   0  0  0  0  0  0  0  0  0  0  0  0
   -2.5560  -11.5437   40.5004 O   0  0  0  0  0  0  0  0  0  0  0  0
   -1.8036  -10.0144   38.8848 C   0  0  0  0  0  0  0  0  0  0  0  0
   -2.9363  -10.0356   37.8162 C   0  0  0  0  0  0  0  0  0  0  0  0
   -3.0264   -9.3697   36.5118 C   0  0  0  0  0  0  0  0  0  0  0  0
   -1.9556   -8.5670   36.0934 C   0  0  0  0  0  0  0  0  0  0  0  0
   -1.8209   -8.1585   34.7137 C   0  0  0  0  0  0  0  0  0  0  0  0
   -2.6535   -8.7099   33.7525 C   0  0  0  0  0  0  0  0  0  0  0  0
   -2.4461   -8.4969   32.4128 C   0  0  0  0  0  0  0  0  0  0  0  0
   -1.4725   -7.6422   31.9805 C   0  0  0  0  0  0  0  0  0  0  0  0
   -1.3740   -7.4579   30.6689 N   0  0  0  0  0  0  0  0  0  0  0  0
   -0.4159   -6.6004   30.2550 C   0  0  0  0  0  0  0  0  0  0  0  0
    0.4411   -5.8884   31.0883 C   0  0  0  0  0  0  0  0  0  0  0  0
    1.3032   -4.9107   30.5790 N   0  0  0  0  0  0  0  0  0  0  0  0
    0.2467   -6.0300   32.4591 C   0  0  0  0  0  0  0  0  0  0  0  0
    1.1253   -5.2247   33.3713 C   0  0  0  0  0  0  0  0  0  0  0  0
    2.2705   -5.2172   33.1298 O   0  0  0  0  0  0  0  0  0  0  0  0
    0.3436   -4.6086   34.5658 N   0  0  0  0  0  0  0  0  0  0  0  0
    0.8068   -3.9601   35.7200 C   0  0  0  0  0  0  0  0  0  0  0  0
   -0.0728   -3.9936   36.8157 C   0  0  0  0  0  0  0  0  0  0  0  0
    0.3334   -3.5259   38.0619 C   0  0  0  0  0  0  0  0  0  0  0  0
   -0.4877   -3.6364   39.1145 F   0  0  0  0  0  0  0  0  0  0  0  0
    1.5877   -2.9756   38.2419 C   0  0  0  0  0  0  0  0  0  0  0  0
    2.4491   -2.8956   37.1537 C   0  0  0  0  0  0  0  0  0  0  0  0
    2.0753   -3.3789   35.8817 C   0  0  0  0  0  0  0  0  0  0  0  0
    3.0977   -3.2358   34.7932 C   0  0  0  0  0  0  0  0  0  0  0  0
   -0.6693   -6.9859   32.9284 C   0  0  0  0  0  0  0  0  0  0  0  0
   -0.8016   -7.3284   34.2763 C   0  0  0  0  0  0  0  0  0  0  0  0
   -0.9746   -8.3067   37.0963 C   0  0  0  0  0  0  0  0  0  0  0  0
   -0.8861   -9.0541   38.4947 C   0  0  0  0  0  0  0  0  0  0  0  0
   -0.6160   -9.5916   43.2211 H   0  0  0  0  0  0  0  0  0  0  0  0
    0.7184  -10.6481   42.6763 H   0  0  0  0  0  0  0  0  0  0  0  0
   -0.9242  -11.3271   42.9217 H   0  0  0  0  0  0  0  0  0  0  0  0
   -0.2335   -9.3651   40.8018 H   0  0  0  0  0  0  0  0  0  0  0  0
   -3.8796  -10.5145   38.0540 H   0  0  0  0  0  0  0  0  0  0  0  0
   -3.9200   -9.5389   35.9265 H   0  0  0  0  0  0  0  0  0  0  0  0
   -3.5012   -9.3301   34.0054 H   0  0  0  0  0  0  0  0  0  0  0  0
   -3.1333   -8.9823   31.7422 H   0  0  0  0  0  0  0  0  0  0  0  0
   -0.3564   -6.4839   29.1753 H   0  0  0  0  0  0  0  0  0  0  0  0
    1.6173   -5.0773   29.6338 H   0  0  0  0  0  0  0  0  0  0  0  0
    2.0934   -4.7470   31.2152 H   0  0  0  0  0  0  0  0  0  0  0  0
   -0.6347   -4.8747   34.5047 H   0  0  0  0  0  0  0  0  0  0  0  0
   -1.0628   -4.4299   36.7294 H   0  0  0  0  0  0  0  0  0  0  0  0
    1.8954   -2.6277   39.2213 H   0  0  0  0  0  0  0  0  0  0  0  0
    3.4422   -2.4764   37.3046 H   0  0  0  0  0  0  0  0  0  0  0  0
    3.6887   -4.1503   34.6981 H   0  0  0  0  0  0  0  0  0  0  0  0
    2.6313   -2.9487   33.8468 H   0  0  0  0  0  0  0  0  0  0  0  0
    3.7989   -2.4241   35.0233 H   0  0  0  0  0  0  0  0  0  0  0  0
   -0.0690   -6.9526   34.9802 H   0  0  0  0  0  0  0  0  0  0  0  0
   -0.3413   -7.4426   36.9076 H   0  0  0  0  0  0  0  0  0  0  0  0
   -0.4769   -8.5202   39.3350 H   0  0  0  0  0  0  0  0  0  0  0  0
  1  2  1  0
  2  3  1  0
  3  4  2  0
  3  5  1  0
  5  6  2  0
  6  7  1  0
  7  8  2  0
  8  9  1  0
  9 10  2  0
 10 11  1  0
 11 12  2  0
 12 13  1  0
 13 14  2  0
 14 15  1  0
 15 16  1  0
 15 17  2  0
 17 18  1  0
 18 19  2  0
 18 20  1  0
 20 21  1  0
 21 22  2  0
 22 23  1  0
 23 24  1  0
 23 25  2  0
 25 26  1  0
 26 27  2  0
 27 28  1  0
 17 29  1  0
 29 30  2  0
  8 31  1  0
 31 32  2  0
 32  5  1  0
 30  9  1  0
 29 12  1  0
 27 21  1  0
  1 33  1  0
  1 34  1  0
  1 35  1  0
  2 36  1  0
  6 37  1  0
  7 38  1  0
 10 39  1  0
 11 40  1  0
 14 41  1  0
 16 42  1  0
 16 43  1  0
 20 44  1  0
 22 45  1  0
 25 46  1  0
 26 47  1  0
 28 48  1  0
 28 49  1  0
 28 50  1  0
 30 51  1  0
 31 52  1  0
 32 53  1  0
M  END
>  <Energy>  (163) 
178.28156497583714

>  <compound_id>  (163) 
508

>  <target_id>  (163) 
1

>  <reference_id>  (163) 
56

>  <inspiration_ids>  (163) 
[56, 78]

>  <energy_score>  (163) 
13.772475673735244

>  <distance_score>  (163) 
1.4694810252562225

>  <path>  (163) 
/opt/xchem-fragalysis-2/maxwin/BulkDock/SCRATCH/505733/C508-P56/C508-P56.minimised.mol

>  <scratch_subdir>  (163) 
/opt/xchem-fragalysis-2/maxwin/BulkDock/SCRATCH/505733/C508-P56

>  <fragmenstein_runtime>  (163) 
5.407306909561157

>  <fragmenstein_outcome>  (163) 
too moved

>  <fragmenstein_mode>  (163) 
expansion

>  <fragmenstein_error>  (163) 


$$$$
C508-P78
     RDKit          3D

 53 56  0  0  0  0  0  0  0  0999 V2000
    0.6779   -8.0197   43.7008 C   0  0  0  0  0  0  0  0  0  0  0  0
    0.6978   -7.9340   42.2688 N   0  0  0  0  0  0  0  0  0  0  0  0
    1.4288   -8.6796   41.2968 C   0  0  0  0  0  0  0  0  0  0  0  0
    2.2724   -9.5156   41.4262 O   0  0  0  0  0  0  0  0  0  0  0  0
    1.0605   -8.3176   39.8973 C   0  0  0  0  0  0  0  0  0  0  0  0
    0.8324   -9.3412   38.9743 C   0  0  0  0  0  0  0  0  0  0  0  0
    0.4948   -9.0274   37.6548 C   0  0  0  0  0  0  0  0  0  0  0  0
    0.3925   -7.6895   37.2327 C   0  0  0  0  0  0  0  0  0  0  0  0
    0.0463   -7.3705   35.8429 C   0  0  0  0  0  0  0  0  0  0  0  0
   -1.1020   -7.8643   35.2415 C   0  0  0  0  0  0  0  0  0  0  0  0
   -1.3454   -7.6828   33.8730 C   0  0  0  0  0  0  0  0  0  0  0  0
   -0.5242   -6.9178   33.0752 C   0  0  0  0  0  0  0  0  0  0  0  0
   -0.8105   -6.7840   31.7716 N   0  0  0  0  0  0  0  0  0  0  0  0
    0.0055   -6.0033   31.0254 C   0  0  0  0  0  0  0  0  0  0  0  0
    1.0622   -5.2485   31.5148 C   0  0  0  0  0  0  0  0  0  0  0  0
    1.9121   -4.5682   30.6443 N   0  0  0  0  0  0  0  0  0  0  0  0
    1.3146   -5.4000   32.8792 C   0  0  0  0  0  0  0  0  0  0  0  0
    2.2784   -4.5006   33.5766 C   0  0  0  0  0  0  0  0  0  0  0  0
    3.4267   -4.5192   33.2415 O   0  0  0  0  0  0  0  0  0  0  0  0
    1.6183   -3.7966   34.6541 N   0  0  0  0  0  0  0  0  0  0  0  0
    2.1335   -3.0004   35.6856 C   0  0  0  0  0  0  0  0  0  0  0  0
    1.1917   -2.7916   36.7149 C   0  0  0  0  0  0  0  0  0  0  0  0
    1.5530   -2.1886   37.9107 C   0  0  0  0  0  0  0  0  0  0  0  0
    0.6484   -2.0814   38.8931 F   0  0  0  0  0  0  0  0  0  0  0  0
    2.8425   -1.7373   38.1049 C   0  0  0  0  0  0  0  0  0  0  0  0
    3.7726   -1.8897   37.0770 C   0  0  0  0  0  0  0  0  0  0  0  0
    3.4349   -2.5110   35.8516 C   0  0  0  0  0  0  0  0  0  0  0  0
    4.5193   -2.5912   34.8199 C   0  0  0  0  0  0  0  0  0  0  0  0
    0.5727   -6.3005   33.6835 C   0  0  0  0  0  0  0  0  0  0  0  0
    0.8783   -6.5927   35.0445 C   0  0  0  0  0  0  0  0  0  0  0  0
    0.6437   -6.6738   38.1705 C   0  0  0  0  0  0  0  0  0  0  0  0
    0.9771   -6.9813   39.4931 C   0  0  0  0  0  0  0  0  0  0  0  0
    0.7178   -7.0089   44.1119 H   0  0  0  0  0  0  0  0  0  0  0  0
    1.5311   -8.6071   44.0477 H   0  0  0  0  0  0  0  0  0  0  0  0
   -0.2524   -8.5050   44.0047 H   0  0  0  0  0  0  0  0  0  0  0  0
    0.0011   -7.3702   41.7967 H   0  0  0  0  0  0  0  0  0  0  0  0
    0.9127  -10.3822   39.2823 H   0  0  0  0  0  0  0  0  0  0  0  0
    0.3081   -9.8413   36.9541 H   0  0  0  0  0  0  0  0  0  0  0  0
   -1.7812   -8.4953   35.8095 H   0  0  0  0  0  0  0  0  0  0  0  0
   -2.1810   -8.2033   33.4155 H   0  0  0  0  0  0  0  0  0  0  0  0
   -0.2391   -5.9837   29.9683 H   0  0  0  0  0  0  0  0  0  0  0  0
    2.5785   -3.9310   31.0817 H   0  0  0  0  0  0  0  0  0  0  0  0
    1.4908   -4.1940   29.7979 H   0  0  0  0  0  0  0  0  0  0  0  0
    0.6175   -3.9525   34.5887 H   0  0  0  0  0  0  0  0  0  0  0  0
    0.1697   -3.1507   36.6267 H   0  0  0  0  0  0  0  0  0  0  0  0
    3.1211   -1.2699   39.0436 H   0  0  0  0  0  0  0  0  0  0  0  0
    4.7846   -1.5185   37.2371 H   0  0  0  0  0  0  0  0  0  0  0  0
    4.9696   -3.5873   34.8124 H   0  0  0  0  0  0  0  0  0  0  0  0
    4.1405   -2.3095   33.8333 H   0  0  0  0  0  0  0  0  0  0  0  0
    5.3240   -1.8785   35.0371 H   0  0  0  0  0  0  0  0  0  0  0  0
    1.7992   -6.2138   35.4909 H   0  0  0  0  0  0  0  0  0  0  0  0
    0.5818   -5.6280   37.8780 H   0  0  0  0  0  0  0  0  0  0  0  0
    1.1949   -6.1751   40.1895 H   0  0  0  0  0  0  0  0  0  0  0  0
  1  2  1  0
  2  3  1  0
  3  4  2  0
  3  5  1  0
  5  6  2  0
  6  7  1  0
  7  8  2  0
  8  9  1  0
  9 10  2  0
 10 11  1  0
 11 12  2  0
 12 13  1  0
 13 14  2  0
 14 15  1  0
 15 16  1  0
 15 17  2  0
 17 18  1  0
 18 19  2  0
 18 20  1  0
 20 21  1  0
 21 22  2  0
 22 23  1  0
 23 24  1  0
 23 25  2  0
 25 26  1  0
 26 27  2  0
 27 28  1  0
 17 29  1  0
 29 30  2  0
  8 31  1  0
 31 32  2  0
 32  5  1  0
 30  9  1  0
 29 12  1  0
 27 21  1  0
  1 33  1  0
  1 34  1  0
  1 35  1  0
  2 36  1  0
  6 37  1  0
  7 38  1  0
 10 39  1  0
 11 40  1  0
 14 41  1  0
 16 42  1  0
 16 43  1  0
 20 44  1  0
 22 45  1  0
 25 46  1  0
 26 47  1  0
 28 48  1  0
 28 49  1  0
 28 50  1  0
 30 51  1  0
 31 52  1  0
 32 53  1  0
M  END
>  <Energy>  (164) 
108.16386233698228

>  <compound_id>  (164) 
508

>  <target_id>  (164) 
1

>  <reference_id>  (164) 
78

>  <inspiration_ids>  (164) 
[56, 78]

>  <energy_score>  (164) 
-55.80138480860745

>  <distance_score>  (164) 
2.3890105361288345

>  <path>  (164) 
/opt/xchem-fragalysis-2/maxwin/BulkDock/SCRATCH/505733/C508-P78/C508-P78.minimised.mol

>  <scratch_subdir>  (164) 
/opt/xchem-fragalysis-2/maxwin/BulkDock/SCRATCH/505733/C508-P78

>  <fragmenstein_runtime>  (164) 
6.727922677993774

>  <fragmenstein_outcome>  (164) 
too moved

>  <fragmenstein_mode>  (164) 
expansion

>  <fragmenstein_error>  (164) 


$$$$
C510-P56
     RDKit          3D

 62 65  0  0  0  0  0  0  0  0999 V2000
    2.5734   -3.5763   35.2720 C   0  0  0  0  0  0  0  0  0  0  0  0
    1.6471   -3.6909   36.4495 C   0  0  0  0  0  0  0  0  0  0  0  0
    1.9189   -2.8911   37.5746 C   0  0  0  0  0  0  0  0  0  0  0  0
    1.1882   -3.0480   38.7487 C   0  0  0  0  0  0  0  0  0  0  0  0
    0.1866   -4.0057   38.8015 C   0  0  0  0  0  0  0  0  0  0  0  0
   -0.4972   -4.1723   39.9412 F   0  0  0  0  0  0  0  0  0  0  0  0
   -0.1223   -4.7873   37.6951 C   0  0  0  0  0  0  0  0  0  0  0  0
    0.5857   -4.6145   36.5029 C   0  0  0  0  0  0  0  0  0  0  0  0
    0.2147   -5.3547   35.3789 N   0  0  0  0  0  0  0  0  0  0  0  0
   -0.3686   -6.6583   35.2614 C   0  0  0  0  0  0  0  0  0  0  0  0
   -0.6158   -7.4831   36.0967 O   0  0  0  0  0  0  0  0  0  0  0  0
   -0.7828   -7.1207   33.8647 C   0  0  0  0  0  0  0  0  0  0  0  0
   -1.8076   -8.0892   33.8733 C   0  0  0  0  0  0  0  0  0  0  0  0
   -2.2814   -8.6255   32.6893 C   0  0  0  0  0  0  0  0  0  0  0  0
   -1.8224   -8.2800   31.4781 N   0  0  0  0  0  0  0  0  0  0  0  0
   -0.8174   -7.3830   31.4746 C   0  0  0  0  0  0  0  0  0  0  0  0
   -0.2498   -6.7844   32.6104 C   0  0  0  0  0  0  0  0  0  0  0  0
    0.8994   -5.8678   32.3275 C   0  0  0  0  0  0  0  0  0  0  0  0
    0.4491   -4.4327   32.1670 C   0  0  0  0  0  0  0  0  0  0  0  0
    0.4707   -3.7366   33.1446 O   0  0  0  0  0  0  0  0  0  0  0  0
    0.0972   -4.1301   30.8249 N   0  0  0  0  0  0  0  0  0  0  0  0
    1.3372   -3.6943   30.0465 C   0  0  0  0  0  0  0  0  0  0  0  0
    1.3946   -3.0930   28.6307 C   0  0  0  0  0  0  0  0  0  0  0  0
    0.9335   -1.6465   28.6943 C   0  0  0  0  0  0  0  0  0  0  0  0
    0.2131   -1.4711   30.0325 C   0  0  0  0  0  0  0  0  0  0  0  0
    1.0166   -0.9518   31.2232 C   0  0  0  0  0  0  0  0  0  0  0  0
    2.3691   -0.5839   31.1371 C   0  0  0  0  0  0  0  0  0  0  0  0
    3.0838   -0.1676   32.2654 C   0  0  0  0  0  0  0  0  0  0  0  0
    2.4642   -0.0930   33.5142 C   0  0  0  0  0  0  0  0  0  0  0  0
    3.2485    0.3254   34.7264 C   0  0  0  0  0  0  0  0  0  0  0  0
    3.5653    1.7102   34.6611 O   0  0  0  0  0  0  0  0  0  0  0  0
    1.1067   -0.4069   33.6049 C   0  0  0  0  0  0  0  0  0  0  0  0
    0.3943   -0.8252   32.4744 C   0  0  0  0  0  0  0  0  0  0  0  0
   -0.4717   -2.8692   30.2169 C   0  0  0  0  0  0  0  0  0  0  0  0
    2.6875   -4.5333   34.7558 H   0  0  0  0  0  0  0  0  0  0  0  0
    3.5787   -3.2845   35.5969 H   0  0  0  0  0  0  0  0  0  0  0  0
    2.2129   -2.8211   34.5766 H   0  0  0  0  0  0  0  0  0  0  0  0
    2.7364   -2.1748   37.5518 H   0  0  0  0  0  0  0  0  0  0  0  0
    1.4096   -2.4512   39.6262 H   0  0  0  0  0  0  0  0  0  0  0  0
   -0.9336   -5.5029   37.7728 H   0  0  0  0  0  0  0  0  0  0  0  0
    0.3507   -4.9705   34.4555 H   0  0  0  0  0  0  0  0  0  0  0  0
   -2.2481   -8.4397   34.8057 H   0  0  0  0  0  0  0  0  0  0  0  0
   -3.0854   -9.3534   32.6950 H   0  0  0  0  0  0  0  0  0  0  0  0
   -0.4343   -7.1557   30.4793 H   0  0  0  0  0  0  0  0  0  0  0  0
    1.4477   -6.1936   31.4375 H   0  0  0  0  0  0  0  0  0  0  0  0
    1.6400   -5.9036   33.1310 H   0  0  0  0  0  0  0  0  0  0  0  0
    1.8414   -4.6636   29.9064 H   0  0  0  0  0  0  0  0  0  0  0  0
    2.0475   -3.2055   30.7277 H   0  0  0  0  0  0  0  0  0  0  0  0
    0.7807   -3.6817   27.9407 H   0  0  0  0  0  0  0  0  0  0  0  0
    2.4203   -3.1172   28.2516 H   0  0  0  0  0  0  0  0  0  0  0  0
    0.2266   -1.4764   27.8724 H   0  0  0  0  0  0  0  0  0  0  0  0
    1.7487   -0.9398   28.5231 H   0  0  0  0  0  0  0  0  0  0  0  0
   -0.5742   -0.7225   29.8633 H   0  0  0  0  0  0  0  0  0  0  0  0
    2.9166   -0.6332   30.2006 H   0  0  0  0  0  0  0  0  0  0  0  0
    4.1363    0.0916   32.1644 H   0  0  0  0  0  0  0  0  0  0  0  0
    2.6801    0.1488   35.6454 H   0  0  0  0  0  0  0  0  0  0  0  0
    4.1787   -0.2478   34.7990 H   0  0  0  0  0  0  0  0  0  0  0  0
    2.9208    2.1238   34.0609 H   0  0  0  0  0  0  0  0  0  0  0  0
    0.5904   -0.3626   34.5621 H   0  0  0  0  0  0  0  0  0  0  0  0
   -0.6538   -1.0906   32.6007 H   0  0  0  0  0  0  0  0  0  0  0  0
   -1.3018   -2.6667   30.9126 H   0  0  0  0  0  0  0  0  0  0  0  0
   -1.0115   -3.1724   29.3033 H   0  0  0  0  0  0  0  0  0  0  0  0
  1  2  1  0
  2  3  2  0
  3  4  1  0
  4  5  2  0
  5  6  1  0
  5  7  1  0
  7  8  2  0
  8  9  1  0
  9 10  1  0
 10 11  2  0
 10 12  1  0
 12 13  2  0
 13 14  1  0
 14 15  2  0
 15 16  1  0
 16 17  2  0
 17 18  1  0
 18 19  1  0
 19 20  2  0
 19 21  1  0
 21 22  1  0
 22 23  1  0
 23 24  1  0
 24 25  1  0
 25 26  1  0
 26 27  2  0
 27 28  1  0
 28 29  2  0
 29 30  1  0
 30 31  1  0
 29 32  1  0
 32 33  2  0
 25 34  1  0
  8  2  1  0
 17 12  1  0
 34 21  1  0
 33 26  1  0
  1 35  1  0
  1 36  1  0
  1 37  1  0
  3 38  1  0
  4 39  1  0
  7 40  1  0
  9 41  1  0
 13 42  1  0
 14 43  1  0
 16 44  1  0
 18 45  1  0
 18 46  1  0
 22 47  1  0
 22 48  1  0
 23 49  1  0
 23 50  1  0
 24 51  1  0
 24 52  1  0
 25 53  1  0
 27 54  1  0
 28 55  1  0
 30 56  1  0
 30 57  1  0
 31 58  1  0
 32 59  1  0
 33 60  1  0
 34 61  1  0
 34 62  1  0
M  END
>  <Energy>  (165) 
158.54203568336001

>  <compound_id>  (165) 
510

>  <target_id>  (165) 
1

>  <reference_id>  (165) 
56

>  <inspiration_ids>  (165) 
[56, 128]

>  <energy_score>  (165) 
44.229624337357166

>  <distance_score>  (165) 
2.1965497799349736

>  <path>  (165) 
/opt/xchem-fragalysis-2/maxwin/BulkDock/SCRATCH/505733/C510-P56/C510-P56.minimised.mol

>  <scratch_subdir>  (165) 
/opt/xchem-fragalysis-2/maxwin/BulkDock/SCRATCH/505733/C510-P56

>  <fragmenstein_runtime>  (165) 
7.798186302185059

>  <fragmenstein_outcome>  (165) 
too moved

>  <fragmenstein_mode>  (165) 
expansion

>  <fragmenstein_error>  (165) 


$$$$
C510-P128
     RDKit          3D

 62 65  0  0  0  0  0  0  0  0999 V2000
    2.9990   -4.0158   35.3045 C   0  0  0  0  0  0  0  0  0  0  0  0
    2.0329   -4.0486   36.4539 C   0  0  0  0  0  0  0  0  0  0  0  0
    2.4134   -3.3991   37.6436 C   0  0  0  0  0  0  0  0  0  0  0  0
    1.5660   -3.3848   38.7467 C   0  0  0  0  0  0  0  0  0  0  0  0
    0.3341   -4.0144   38.6626 C   0  0  0  0  0  0  0  0  0  0  0  0
   -0.4785   -3.9984   39.7268 F   0  0  0  0  0  0  0  0  0  0  0  0
   -0.0724   -4.6504   37.4947 C   0  0  0  0  0  0  0  0  0  0  0  0
    0.7655   -4.6641   36.3751 C   0  0  0  0  0  0  0  0  0  0  0  0
    0.3424   -5.2703   35.1848 N   0  0  0  0  0  0  0  0  0  0  0  0
   -0.8483   -6.0177   34.8777 C   0  0  0  0  0  0  0  0  0  0  0  0
   -1.7476   -6.3816   35.5806 O   0  0  0  0  0  0  0  0  0  0  0  0
   -0.9273   -6.4596   33.4554 C   0  0  0  0  0  0  0  0  0  0  0  0
   -1.2026   -7.7989   33.2527 C   0  0  0  0  0  0  0  0  0  0  0  0
   -1.2116   -8.2982   31.9669 C   0  0  0  0  0  0  0  0  0  0  0  0
   -0.9262   -7.5698   30.8767 N   0  0  0  0  0  0  0  0  0  0  0  0
   -0.6898   -6.2655   31.0983 C   0  0  0  0  0  0  0  0  0  0  0  0
   -0.7827   -5.6427   32.3414 C   0  0  0  0  0  0  0  0  0  0  0  0
   -0.7029   -4.1510   32.4067 C   0  0  0  0  0  0  0  0  0  0  0  0
    0.7369   -3.7229   32.2798 C   0  0  0  0  0  0  0  0  0  0  0  0
    1.6170   -4.4701   32.6252 O   0  0  0  0  0  0  0  0  0  0  0  0
    0.7913   -2.3821   31.8220 N   0  0  0  0  0  0  0  0  0  0  0  0
    0.9241   -2.3495   30.2866 C   0  0  0  0  0  0  0  0  0  0  0  0
    2.1197   -3.0665   29.6177 C   0  0  0  0  0  0  0  0  0  0  0  0
    3.4201   -2.3774   29.9987 C   0  0  0  0  0  0  0  0  0  0  0  0
    3.3134   -2.0944   31.4834 C   0  0  0  0  0  0  0  0  0  0  0  0
    4.4087   -1.2753   32.1087 C   0  0  0  0  0  0  0  0  0  0  0  0
    4.5910    0.0727   31.7923 C   0  0  0  0  0  0  0  0  0  0  0  0
    5.4472    0.8592   32.5617 C   0  0  0  0  0  0  0  0  0  0  0  0
    6.1355    0.3137   33.6550 C   0  0  0  0  0  0  0  0  0  0  0  0
    7.0299    1.1898   34.4873 C   0  0  0  0  0  0  0  0  0  0  0  0
    7.1122    0.7187   35.8267 O   0  0  0  0  0  0  0  0  0  0  0  0
    6.0103   -1.0532   33.9184 C   0  0  0  0  0  0  0  0  0  0  0  0
    5.1564   -1.8399   33.1528 C   0  0  0  0  0  0  0  0  0  0  0  0
    1.9344   -1.4331   31.7270 C   0  0  0  0  0  0  0  0  0  0  0  0
    3.0598   -4.9896   34.8097 H   0  0  0  0  0  0  0  0  0  0  0  0
    4.0131   -3.7816   35.6470 H   0  0  0  0  0  0  0  0  0  0  0  0
    2.6969   -3.2432   34.5936 H   0  0  0  0  0  0  0  0  0  0  0  0
    3.3776   -2.8993   37.7151 H   0  0  0  0  0  0  0  0  0  0  0  0
    1.8547   -2.8886   39.6671 H   0  0  0  0  0  0  0  0  0  0  0  0
   -1.0535   -5.1142   37.4847 H   0  0  0  0  0  0  0  0  0  0  0  0
    0.9241   -5.2156   34.3521 H   0  0  0  0  0  0  0  0  0  0  0  0
   -1.4178   -8.4228   34.1070 H   0  0  0  0  0  0  0  0  0  0  0  0
   -1.4343   -9.3383   31.7734 H   0  0  0  0  0  0  0  0  0  0  0  0
   -0.4589   -5.6941   30.2010 H   0  0  0  0  0  0  0  0  0  0  0  0
   -1.1038   -3.7622   33.3487 H   0  0  0  0  0  0  0  0  0  0  0  0
   -1.3183   -3.7190   31.6091 H   0  0  0  0  0  0  0  0  0  0  0  0
    0.7080   -1.3603   29.8477 H   0  0  0  0  0  0  0  0  0  0  0  0
    0.0502   -2.9289   29.9493 H   0  0  0  0  0  0  0  0  0  0  0  0
    1.9983   -3.0592   28.5287 H   0  0  0  0  0  0  0  0  0  0  0  0
    2.1498   -4.1178   29.9273 H   0  0  0  0  0  0  0  0  0  0  0  0
    3.5296   -1.4480   29.4267 H   0  0  0  0  0  0  0  0  0  0  0  0
    4.2860   -3.0060   29.7643 H   0  0  0  0  0  0  0  0  0  0  0  0
    3.3408   -3.0664   31.9853 H   0  0  0  0  0  0  0  0  0  0  0  0
    4.0344    0.5395   30.9836 H   0  0  0  0  0  0  0  0  0  0  0  0
    5.5532    1.9149   32.3206 H   0  0  0  0  0  0  0  0  0  0  0  0
    8.0364    1.2013   34.0564 H   0  0  0  0  0  0  0  0  0  0  0  0
    6.6403    2.2128   34.5185 H   0  0  0  0  0  0  0  0  0  0  0  0
    7.6593    1.3578   36.3124 H   0  0  0  0  0  0  0  0  0  0  0  0
    6.5557   -1.5025   34.7459 H   0  0  0  0  0  0  0  0  0  0  0  0
    5.0451   -2.8899   33.4123 H   0  0  0  0  0  0  0  0  0  0  0  0
    1.9696   -1.0820   32.7722 H   0  0  0  0  0  0  0  0  0  0  0  0
    1.7485   -0.4835   31.1962 H   0  0  0  0  0  0  0  0  0  0  0  0
  1  2  1  0
  2  3  2  0
  3  4  1  0
  4  5  2  0
  5  6  1  0
  5  7  1  0
  7  8  2  0
  8  9  1  0
  9 10  1  0
 10 11  2  0
 10 12  1  0
 12 13  2  0
 13 14  1  0
 14 15  2  0
 15 16  1  0
 16 17  2  0
 17 18  1  0
 18 19  1  0
 19 20  2  0
 19 21  1  0
 21 22  1  0
 22 23  1  0
 23 24  1  0
 24 25  1  0
 25 26  1  0
 26 27  2  0
 27 28  1  0
 28 29  2  0
 29 30  1  0
 30 31  1  0
 29 32  1  0
 32 33  2  0
 25 34  1  0
  8  2  1  0
 17 12  1  0
 34 21  1  0
 33 26  1  0
  1 35  1  0
  1 36  1  0
  1 37  1  0
  3 38  1  0
  4 39  1  0
  7 40  1  0
  9 41  1  0
 13 42  1  0
 14 43  1  0
 16 44  1  0
 18 45  1  0
 18 46  1  0
 22 47  1  0
 22 48  1  0
 23 49  1  0
 23 50  1  0
 24 51  1  0
 24 52  1  0
 25 53  1  0
 27 54  1  0
 28 55  1  0
 30 56  1  0
 30 57  1  0
 31 58  1  0
 32 59  1  0
 33 60  1  0
 34 61  1  0
 34 62  1  0
M  END
>  <Energy>  (166) 
129.03175445275676

>  <compound_id>  (166) 
510

>  <target_id>  (166) 
1

>  <reference_id>  (166) 
128

>  <inspiration_ids>  (166) 
[56, 128]

>  <energy_score>  (166) 
14.71934310675067

>  <distance_score>  (166) 
2.4905399176866143

>  <path>  (166) 
/opt/xchem-fragalysis-2/maxwin/BulkDock/SCRATCH/505733/C510-P128/C510-P128.minimised.mol

>  <scratch_subdir>  (166) 
/opt/xchem-fragalysis-2/maxwin/BulkDock/SCRATCH/505733/C510-P128

>  <fragmenstein_runtime>  (166) 
7.739557981491089

>  <fragmenstein_outcome>  (166) 
too moved

>  <fragmenstein_mode>  (166) 
expansion

>  <fragmenstein_error>  (166) 


$$$$
C510-P56
     RDKit          3D

 62 65  0  0  0  0  0  0  0  0999 V2000
    1.7940   -0.5283   37.1110 C   0  0  0  0  0  0  0  0  0  0  0  0
    1.5366   -1.7626   37.9300 C   0  0  0  0  0  0  0  0  0  0  0  0
    1.9387   -1.7723   39.2747 C   0  0  0  0  0  0  0  0  0  0  0  0
    1.6589   -2.8682   40.0849 C   0  0  0  0  0  0  0  0  0  0  0  0
    0.9836   -3.9562   39.5509 C   0  0  0  0  0  0  0  0  0  0  0  0
    0.6627   -4.9794   40.3537 F   0  0  0  0  0  0  0  0  0  0  0  0
    0.6061   -3.9872   38.2154 C   0  0  0  0  0  0  0  0  0  0  0  0
    0.8694   -2.8852   37.4040 C   0  0  0  0  0  0  0  0  0  0  0  0
    0.3701   -2.8228   36.1072 N   0  0  0  0  0  0  0  0  0  0  0  0
   -0.2152   -3.8338   35.2735 C   0  0  0  0  0  0  0  0  0  0  0  0
   -0.3526   -5.0098   35.4487 O   0  0  0  0  0  0  0  0  0  0  0  0
   -0.8121   -3.2198   34.0476 C   0  0  0  0  0  0  0  0  0  0  0  0
   -1.6410   -2.1003   34.2483 C   0  0  0  0  0  0  0  0  0  0  0  0
   -2.3749   -1.6073   33.1891 C   0  0  0  0  0  0  0  0  0  0  0  0
   -2.3329   -2.1301   31.9577 N   0  0  0  0  0  0  0  0  0  0  0  0
   -1.5141   -3.1885   31.7895 C   0  0  0  0  0  0  0  0  0  0  0  0
   -0.7404   -3.8024   32.7852 C   0  0  0  0  0  0  0  0  0  0  0  0
    0.0723   -5.0418   32.4659 C   0  0  0  0  0  0  0  0  0  0  0  0
    0.3111   -5.0803   30.9553 C   0  0  0  0  0  0  0  0  0  0  0  0
   -0.2570   -5.8640   30.2427 O   0  0  0  0  0  0  0  0  0  0  0  0
    1.1954   -4.0022   30.6344 N   0  0  0  0  0  0  0  0  0  0  0  0
    1.6037   -3.4380   29.3153 C   0  0  0  0  0  0  0  0  0  0  0  0
    2.3665   -2.1220   29.4035 C   0  0  0  0  0  0  0  0  0  0  0  0
    3.7893   -2.4100   29.8177 C   0  0  0  0  0  0  0  0  0  0  0  0
    3.7955   -3.5110   30.8730 C   0  0  0  0  0  0  0  0  0  0  0  0
    3.9194   -3.0974   32.3271 C   0  0  0  0  0  0  0  0  0  0  0  0
    3.7579   -1.7880   32.7846 C   0  0  0  0  0  0  0  0  0  0  0  0
    4.0698   -1.4534   34.1074 C   0  0  0  0  0  0  0  0  0  0  0  0
    4.5335   -2.4223   35.0055 C   0  0  0  0  0  0  0  0  0  0  0  0
    4.9359   -2.1005   36.4206 C   0  0  0  0  0  0  0  0  0  0  0  0
    5.4076   -0.7618   36.5446 O   0  0  0  0  0  0  0  0  0  0  0  0
    4.5910   -3.7487   34.5781 C   0  0  0  0  0  0  0  0  0  0  0  0
    4.3029   -4.0785   33.2570 C   0  0  0  0  0  0  0  0  0  0  0  0
    2.6301   -4.4935   30.6275 C   0  0  0  0  0  0  0  0  0  0  0  0
    2.5778    0.0909   37.5603 H   0  0  0  0  0  0  0  0  0  0  0  0
    2.1275   -0.7784   36.1024 H   0  0  0  0  0  0  0  0  0  0  0  0
    0.8802    0.0710   37.0461 H   0  0  0  0  0  0  0  0  0  0  0  0
    2.4564   -0.9160   39.7011 H   0  0  0  0  0  0  0  0  0  0  0  0
    1.9458   -2.8754   41.1305 H   0  0  0  0  0  0  0  0  0  0  0  0
    0.0691   -4.8544   37.8482 H   0  0  0  0  0  0  0  0  0  0  0  0
    0.3892   -1.9489   35.6011 H   0  0  0  0  0  0  0  0  0  0  0  0
   -1.7970   -1.6748   35.2343 H   0  0  0  0  0  0  0  0  0  0  0  0
   -3.0526   -0.7690   33.3185 H   0  0  0  0  0  0  0  0  0  0  0  0
   -1.5238   -3.5406   30.7613 H   0  0  0  0  0  0  0  0  0  0  0  0
   -0.4848   -5.9381   32.7592 H   0  0  0  0  0  0  0  0  0  0  0  0
    1.0292   -5.0341   32.9967 H   0  0  0  0  0  0  0  0  0  0  0  0
    0.6213   -3.1440   28.9093 H   0  0  0  0  0  0  0  0  0  0  0  0
    1.9137   -4.1334   28.5299 H   0  0  0  0  0  0  0  0  0  0  0  0
    1.8851   -1.4566   30.1301 H   0  0  0  0  0  0  0  0  0  0  0  0
    2.3558   -1.6083   28.4357 H   0  0  0  0  0  0  0  0  0  0  0  0
    4.3174   -1.5007   30.1208 H   0  0  0  0  0  0  0  0  0  0  0  0
    4.3268   -2.7750   28.9329 H   0  0  0  0  0  0  0  0  0  0  0  0
    4.7231   -4.0748   30.6843 H   0  0  0  0  0  0  0  0  0  0  0  0
    3.4240   -0.9955   32.1207 H   0  0  0  0  0  0  0  0  0  0  0  0
    3.9650   -0.4184   34.4266 H   0  0  0  0  0  0  0  0  0  0  0  0
    4.0991   -2.2474   37.1020 H   0  0  0  0  0  0  0  0  0  0  0  0
    5.7525   -2.7564   36.7417 H   0  0  0  0  0  0  0  0  0  0  0  0
    6.0418   -0.6330   35.8183 H   0  0  0  0  0  0  0  0  0  0  0  0
    4.8828   -4.5388   35.2701 H   0  0  0  0  0  0  0  0  0  0  0  0
    4.4101   -5.1209   32.9605 H   0  0  0  0  0  0  0  0  0  0  0  0
    2.6623   -5.2087   31.4635 H   0  0  0  0  0  0  0  0  0  0  0  0
    2.8462   -5.1893   29.8128 H   0  0  0  0  0  0  0  0  0  0  0  0
  1  2  1  0
  2  3  2  0
  3  4  1  0
  4  5  2  0
  5  6  1  0
  5  7  1  0
  7  8  2  0
  8  9  1  0
  9 10  1  0
 10 11  2  0
 10 12  1  0
 12 13  2  0
 13 14  1  0
 14 15  2  0
 15 16  1  0
 16 17  2  0
 17 18  1  0
 18 19  1  0
 19 20  2  0
 19 21  1  0
 21 22  1  0
 22 23  1  0
 23 24  1  0
 24 25  1  0
 25 26  1  0
 26 27  2  0
 27 28  1  0
 28 29  2  0
 29 30  1  0
 30 31  1  0
 29 32  1  0
 32 33  2  0
 25 34  1  0
  8  2  1  0
 17 12  1  0
 34 21  1  0
 33 26  1  0
  1 35  1  0
  1 36  1  0
  1 37  1  0
  3 38  1  0
  4 39  1  0
  7 40  1  0
  9 41  1  0
 13 42  1  0
 14 43  1  0
 16 44  1  0
 18 45  1  0
 18 46  1  0
 22 47  1  0
 22 48  1  0
 23 49  1  0
 23 50  1  0
 24 51  1  0
 24 52  1  0
 25 53  1  0
 27 54  1  0
 28 55  1  0
 30 56  1  0
 30 57  1  0
 31 58  1  0
 32 59  1  0
 33 60  1  0
 34 61  1  0
 34 62  1  0
M  END
>  <Energy>  (167) 
134.26323398396676

>  <compound_id>  (167) 
510

>  <target_id>  (167) 
1

>  <reference_id>  (167) 
56

>  <inspiration_ids>  (167) 
[56, 129]

>  <energy_score>  (167) 
19.950822637961778

>  <distance_score>  (167) 
3.6645739612105834

>  <path>  (167) 
/opt/xchem-fragalysis-2/maxwin/BulkDock/SCRATCH/505733/C510-P56/C510-P56.minimised.mol

>  <scratch_subdir>  (167) 
/opt/xchem-fragalysis-2/maxwin/BulkDock/SCRATCH/505733/C510-P56

>  <fragmenstein_runtime>  (167) 
8.68901538848877

>  <fragmenstein_outcome>  (167) 
too moved

>  <fragmenstein_mode>  (167) 
expansion

>  <fragmenstein_error>  (167) 


$$$$
C510-P129
     RDKit          3D

 62 65  0  0  0  0  0  0  0  0999 V2000
    3.7747   -3.1848   35.7187 C   0  0  0  0  0  0  0  0  0  0  0  0
    3.0119   -3.0652   37.0071 C   0  0  0  0  0  0  0  0  0  0  0  0
    3.7220   -3.1187   38.2184 C   0  0  0  0  0  0  0  0  0  0  0  0
    3.0493   -3.0761   39.4385 C   0  0  0  0  0  0  0  0  0  0  0  0
    1.6661   -2.9839   39.4520 C   0  0  0  0  0  0  0  0  0  0  0  0
    1.0159   -2.9682   40.6222 F   0  0  0  0  0  0  0  0  0  0  0  0
    0.9431   -2.9184   38.2708 C   0  0  0  0  0  0  0  0  0  0  0  0
    1.6086   -2.9532   37.0429 C   0  0  0  0  0  0  0  0  0  0  0  0
    0.8782   -2.9476   35.8545 N   0  0  0  0  0  0  0  0  0  0  0  0
   -0.5327   -2.9302   35.6202 C   0  0  0  0  0  0  0  0  0  0  0  0
   -1.4511   -2.8362   36.3811 O   0  0  0  0  0  0  0  0  0  0  0  0
   -0.8853   -3.1494   34.1926 C   0  0  0  0  0  0  0  0  0  0  0  0
   -1.7636   -2.2196   33.6295 C   0  0  0  0  0  0  0  0  0  0  0  0
   -2.2679   -2.4695   32.3698 C   0  0  0  0  0  0  0  0  0  0  0  0
   -1.9771   -3.5778   31.6628 N   0  0  0  0  0  0  0  0  0  0  0  0
   -1.1201   -4.4527   32.2304 C   0  0  0  0  0  0  0  0  0  0  0  0
   -0.5112   -4.2932   33.4724 C   0  0  0  0  0  0  0  0  0  0  0  0
    0.4225   -5.3794   33.9438 C   0  0  0  0  0  0  0  0  0  0  0  0
    1.5303   -5.7942   32.9500 C   0  0  0  0  0  0  0  0  0  0  0  0
    2.1539   -6.7961   33.1827 O   0  0  0  0  0  0  0  0  0  0  0  0
    1.5652   -4.9195   31.8192 N   0  0  0  0  0  0  0  0  0  0  0  0
    2.3017   -5.0282   30.5193 C   0  0  0  0  0  0  0  0  0  0  0  0
    1.7015   -4.0998   29.4536 C   0  0  0  0  0  0  0  0  0  0  0  0
    1.5502   -2.7026   30.0287 C   0  0  0  0  0  0  0  0  0  0  0  0
    2.5932   -2.5544   31.1292 C   0  0  0  0  0  0  0  0  0  0  0  0
    2.5363   -1.3111   31.9863 C   0  0  0  0  0  0  0  0  0  0  0  0
    3.7174   -0.8743   32.6078 C   0  0  0  0  0  0  0  0  0  0  0  0
    3.6965    0.1807   33.5179 C   0  0  0  0  0  0  0  0  0  0  0  0
    2.4948    0.8255   33.8254 C   0  0  0  0  0  0  0  0  0  0  0  0
    2.4775    1.9494   34.8259 C   0  0  0  0  0  0  0  0  0  0  0  0
    2.8883    1.4713   36.0998 O   0  0  0  0  0  0  0  0  0  0  0  0
    1.3213    0.4096   33.1882 C   0  0  0  0  0  0  0  0  0  0  0  0
    1.3416   -0.6472   32.2760 C   0  0  0  0  0  0  0  0  0  0  0  0
    2.5772   -3.8099   32.0496 C   0  0  0  0  0  0  0  0  0  0  0  0
    3.5399   -2.3430   35.0655 H   0  0  0  0  0  0  0  0  0  0  0  0
    3.5245   -4.1244   35.2165 H   0  0  0  0  0  0  0  0  0  0  0  0
    4.8569   -3.1724   35.8857 H   0  0  0  0  0  0  0  0  0  0  0  0
    4.8065   -3.2072   38.2214 H   0  0  0  0  0  0  0  0  0  0  0  0
    3.5926   -3.1251   40.3768 H   0  0  0  0  0  0  0  0  0  0  0  0
   -0.1379   -2.8553   38.3426 H   0  0  0  0  0  0  0  0  0  0  0  0
    1.3589   -2.9565   34.9666 H   0  0  0  0  0  0  0  0  0  0  0  0
   -2.0951   -1.3517   34.1905 H   0  0  0  0  0  0  0  0  0  0  0  0
   -2.9683   -1.7840   31.9005 H   0  0  0  0  0  0  0  0  0  0  0  0
   -0.9401   -5.3392   31.6249 H   0  0  0  0  0  0  0  0  0  0  0  0
    0.9226   -5.1424   34.8823 H   0  0  0  0  0  0  0  0  0  0  0  0
   -0.1882   -6.2722   34.1342 H   0  0  0  0  0  0  0  0  0  0  0  0
    2.0526   -6.0401   30.1773 H   0  0  0  0  0  0  0  0  0  0  0  0
    3.4021   -5.0500   30.5131 H   0  0  0  0  0  0  0  0  0  0  0  0
    0.7209   -4.4641   29.1271 H   0  0  0  0  0  0  0  0  0  0  0  0
    2.3530   -4.0912   28.5724 H   0  0  0  0  0  0  0  0  0  0  0  0
    0.5345   -2.5977   30.4232 H   0  0  0  0  0  0  0  0  0  0  0  0
    1.6660   -1.9390   29.2515 H   0  0  0  0  0  0  0  0  0  0  0  0
    3.5693   -2.5359   30.6197 H   0  0  0  0  0  0  0  0  0  0  0  0
    4.6667   -1.3660   32.4043 H   0  0  0  0  0  0  0  0  0  0  0  0
    4.6201    0.4967   34.0003 H   0  0  0  0  0  0  0  0  0  0  0  0
    3.1554    2.7494   34.5115 H   0  0  0  0  0  0  0  0  0  0  0  0
    1.4759    2.3789   34.9300 H   0  0  0  0  0  0  0  0  0  0  0  0
    2.4408    0.6192   36.2449 H   0  0  0  0  0  0  0  0  0  0  0  0
    0.3751    0.9038   33.4019 H   0  0  0  0  0  0  0  0  0  0  0  0
    0.4036   -0.9450   31.8152 H   0  0  0  0  0  0  0  0  0  0  0  0
    2.3030   -3.4563   33.0541 H   0  0  0  0  0  0  0  0  0  0  0  0
    3.5915   -4.1998   32.2597 H   0  0  0  0  0  0  0  0  0  0  0  0
  1  2  1  0
  2  3  2  0
  3  4  1  0
  4  5  2  0
  5  6  1  0
  5  7  1  0
  7  8  2  0
  8  9  1  0
  9 10  1  0
 10 11  2  0
 10 12  1  0
 12 13  2  0
 13 14  1  0
 14 15  2  0
 15 16  1  0
 16 17  2  0
 17 18  1  0
 18 19  1  0
 19 20  2  0
 19 21  1  0
 21 22  1  0
 22 23  1  0
 23 24  1  0
 24 25  1  0
 25 26  1  0
 26 27  2  0
 27 28  1  0
 28 29  2  0
 29 30  1  0
 30 31  1  0
 29 32  1  0
 32 33  2  0
 25 34  1  0
  8  2  1  0
 17 12  1  0
 34 21  1  0
 33 26  1  0
  1 35  1  0
  1 36  1  0
  1 37  1  0
  3 38  1  0
  4 39  1  0
  7 40  1  0
  9 41  1  0
 13 42  1  0
 14 43  1  0
 16 44  1  0
 18 45  1  0
 18 46  1  0
 22 47  1  0
 22 48  1  0
 23 49  1  0
 23 50  1  0
 24 51  1  0
 24 52  1  0
 25 53  1  0
 27 54  1  0
 28 55  1  0
 30 56  1  0
 30 57  1  0
 31 58  1  0
 32 59  1  0
 33 60  1  0
 34 61  1  0
 34 62  1  0
M  END
>  <Energy>  (168) 
136.40405880166827

>  <compound_id>  (168) 
510

>  <target_id>  (168) 
1

>  <reference_id>  (168) 
129

>  <inspiration_ids>  (168) 
[56, 129]

>  <energy_score>  (168) 
22.09164745566278

>  <distance_score>  (168) 
3.1317722330891997

>  <path>  (168) 
/opt/xchem-fragalysis-2/maxwin/BulkDock/SCRATCH/505733/C510-P129/C510-P129.minimised.mol

>  <scratch_subdir>  (168) 
/opt/xchem-fragalysis-2/maxwin/BulkDock/SCRATCH/505733/C510-P129

>  <fragmenstein_runtime>  (168) 
7.592988014221191

>  <fragmenstein_outcome>  (168) 
too moved

>  <fragmenstein_mode>  (168) 
expansion

>  <fragmenstein_error>  (168) 


$$$$
C512-P56
     RDKit          3D

 65 69  0  0  0  0  0  0  0  0999 V2000
    0.9277   -2.5410   34.9084 C   0  0  0  0  0  0  0  0  0  0  0  0
    0.6956   -3.2636   36.2094 C   0  0  0  0  0  0  0  0  0  0  0  0
    1.2564   -2.5620   37.3132 C   0  0  0  0  0  0  0  0  0  0  0  0
    1.0261   -2.9578   38.6133 C   0  0  0  0  0  0  0  0  0  0  0  0
    0.1940   -4.0316   38.8117 C   0  0  0  0  0  0  0  0  0  0  0  0
   -0.1396   -4.3709   40.0614 F   0  0  0  0  0  0  0  0  0  0  0  0
   -0.3046   -4.7804   37.7443 C   0  0  0  0  0  0  0  0  0  0  0  0
    0.0247   -4.5147   36.3998 C   0  0  0  0  0  0  0  0  0  0  0  0
   -0.3172   -5.4676   35.4043 N   0  0  0  0  0  0  0  0  0  0  0  0
   -0.4424   -6.8690   35.7616 C   0  0  0  0  0  0  0  0  0  0  0  0
   -1.6023   -7.4399   35.1659 O   0  0  0  0  0  0  0  0  0  0  0  0
    0.0748   -5.2543   34.0204 C   0  0  0  0  0  0  0  0  0  0  0  0
   -0.3913   -6.2367   32.9323 C   0  0  0  0  0  0  0  0  0  0  0  0
    0.6214   -6.0503   31.7866 C   0  0  0  0  0  0  0  0  0  0  0  0
    0.0874   -5.4038   30.5183 C   0  0  0  0  0  0  0  0  0  0  0  0
   -0.6387   -4.1489   30.7436 N   0  0  0  0  0  0  0  0  0  0  0  0
   -0.3468   -3.2150   29.6470 C   0  0  0  0  0  0  0  0  0  0  0  0
    1.0305   -2.6835   29.7722 C   0  0  0  0  0  0  0  0  0  0  0  0
    2.1016   -3.0152   29.0878 N   0  0  0  0  0  0  0  0  0  0  0  0
    3.1942   -2.5893   29.8053 N   0  0  0  0  0  0  0  0  0  0  0  0
    2.7620   -2.0210   30.9153 C   0  0  0  0  0  0  0  0  0  0  0  0
    3.5331   -1.6602   32.0943 C   0  0  0  0  0  0  0  0  0  0  0  0
    3.0376   -0.7581   33.0357 C   0  0  0  0  0  0  0  0  0  0  0  0
    3.7505   -0.4974   34.2056 C   0  0  0  0  0  0  0  0  0  0  0  0
    4.9670   -1.1270   34.4467 C   0  0  0  0  0  0  0  0  0  0  0  0
    5.4944   -1.9904   33.4978 C   0  0  0  0  0  0  0  0  0  0  0  0
    4.7840   -2.2463   32.3246 C   0  0  0  0  0  0  0  0  0  0  0  0
    1.4027   -1.9050   30.8296 N   0  0  0  0  0  0  0  0  0  0  0  0
    1.7985   -5.4161   32.4856 C   0  0  0  0  0  0  0  0  0  0  0  0
    1.5473   -5.2895   33.7937 C   0  0  0  0  0  0  0  0  0  0  0  0
    2.6610   -5.3925   34.7979 C   0  0  0  0  0  0  0  0  0  0  0  0
    4.0353   -5.1295   34.1853 C   0  0  0  0  0  0  0  0  0  0  0  0
    4.2062   -5.7821   32.8839 N   0  0  0  0  0  0  0  0  0  0  0  0
    3.1709   -5.3465   31.9314 C   0  0  0  0  0  0  0  0  0  0  0  0
    1.0992   -1.4742   35.1007 H   0  0  0  0  0  0  0  0  0  0  0  0
    0.0312   -2.5249   34.2869 H   0  0  0  0  0  0  0  0  0  0  0  0
    1.7989   -2.8985   34.3694 H   0  0  0  0  0  0  0  0  0  0  0  0
    1.8558   -1.6679   37.1495 H   0  0  0  0  0  0  0  0  0  0  0  0
    1.4307   -2.4095   39.4549 H   0  0  0  0  0  0  0  0  0  0  0  0
   -0.9730   -5.5856   38.0217 H   0  0  0  0  0  0  0  0  0  0  0  0
    0.4377   -7.4317   35.4360 H   0  0  0  0  0  0  0  0  0  0  0  0
   -0.5537   -7.0621   36.8227 H   0  0  0  0  0  0  0  0  0  0  0  0
   -1.5623   -8.3913   35.3740 H   0  0  0  0  0  0  0  0  0  0  0  0
   -0.3504   -4.3030   33.7034 H   0  0  0  0  0  0  0  0  0  0  0  0
   -0.3241   -7.2860   33.2399 H   0  0  0  0  0  0  0  0  0  0  0  0
   -1.4275   -6.0601   32.6302 H   0  0  0  0  0  0  0  0  0  0  0  0
    0.9241   -7.0581   31.4860 H   0  0  0  0  0  0  0  0  0  0  0  0
    0.9305   -5.2895   29.8294 H   0  0  0  0  0  0  0  0  0  0  0  0
   -0.5994   -6.1059   30.0315 H   0  0  0  0  0  0  0  0  0  0  0  0
   -0.3282   -3.7386   31.6202 H   0  0  0  0  0  0  0  0  0  0  0  0
   -0.4989   -3.6911   28.6713 H   0  0  0  0  0  0  0  0  0  0  0  0
   -1.0608   -2.3852   29.7018 H   0  0  0  0  0  0  0  0  0  0  0  0
    2.0979   -0.2356   32.8844 H   0  0  0  0  0  0  0  0  0  0  0  0
    3.3539    0.2022   34.9375 H   0  0  0  0  0  0  0  0  0  0  0  0
    5.5142   -0.9279   35.3642 H   0  0  0  0  0  0  0  0  0  0  0  0
    6.4517   -2.4767   33.6660 H   0  0  0  0  0  0  0  0  0  0  0  0
    5.2095   -2.9327   31.5933 H   0  0  0  0  0  0  0  0  0  0  0  0
    0.7909   -1.5734   31.5569 H   0  0  0  0  0  0  0  0  0  0  0  0
    2.5656   -4.7283   35.6502 H   0  0  0  0  0  0  0  0  0  0  0  0
    2.6495   -6.4148   35.1902 H   0  0  0  0  0  0  0  0  0  0  0  0
    4.1749   -4.0578   34.0980 H   0  0  0  0  0  0  0  0  0  0  0  0
    4.8140   -5.4894   34.8669 H   0  0  0  0  0  0  0  0  0  0  0  0
    3.9730   -6.7677   33.0675 H   0  0  0  0  0  0  0  0  0  0  0  0
    3.3858   -4.3370   31.6241 H   0  0  0  0  0  0  0  0  0  0  0  0
    3.2271   -5.9169   31.0116 H   0  0  0  0  0  0  0  0  0  0  0  0
  1  2  1  0
  2  3  2  0
  3  4  1  0
  4  5  2  0
  5  6  1  0
  5  7  1  0
  7  8  2  0
  8  9  1  0
  9 10  1  0
 10 11  1  0
  9 12  1  0
 12 13  1  0
 13 14  1  0
 14 15  1  0
 15 16  1  0
 16 17  1  0
 17 18  1  0
 18 19  2  0
 19 20  1  0
 20 21  2  0
 21 22  1  0
 22 23  2  0
 23 24  1  0
 24 25  2  0
 25 26  1  0
 26 27  2  0
 21 28  1  0
 14 29  1  0
 29 30  2  0
 30 31  1  0
 31 32  1  0
 32 33  1  0
 33 34  1  0
  8  2  1  0
 30 12  1  0
 28 18  1  0
 34 29  1  0
 27 22  1  0
  1 35  1  0
  1 36  1  0
  1 37  1  0
  3 38  1  0
  4 39  1  0
  7 40  1  0
 10 41  1  0
 10 42  1  0
 11 43  1  0
 12 44  1  0
 13 45  1  0
 13 46  1  0
 14 47  1  0
 15 48  1  0
 15 49  1  0
 16 50  1  0
 17 51  1  0
 17 52  1  0
 23 53  1  0
 24 54  1  0
 25 55  1  0
 26 56  1  0
 27 57  1  0
 28 58  1  0
 31 59  1  0
 31 60  1  0
 32 61  1  0
 32 62  1  0
 33 63  1  0
 34 64  1  0
 34 65  1  0
M  END
>  <Energy>  (169) 
73.470777861110292

>  <compound_id>  (169) 
512

>  <target_id>  (169) 
1

>  <reference_id>  (169) 
56

>  <inspiration_ids>  (169) 
[56, 132]

>  <energy_score>  (169) 
-5.282366602061643

>  <distance_score>  (169) 
2.376854623000368

>  <path>  (169) 
/opt/xchem-fragalysis-2/maxwin/BulkDock/SCRATCH/505733/C512-P56/C512-P56.minimised.mol

>  <scratch_subdir>  (169) 
/opt/xchem-fragalysis-2/maxwin/BulkDock/SCRATCH/505733/C512-P56

>  <fragmenstein_runtime>  (169) 
2.5758421421051025

>  <fragmenstein_outcome>  (169) 
too moved

>  <fragmenstein_mode>  (169) 
expansion

>  <fragmenstein_error>  (169) 


$$$$
C512-P132
     RDKit          3D

 65 69  0  0  0  0  0  0  0  0999 V2000
    2.4239   -3.4631   35.5327 C   0  0  0  0  0  0  0  0  0  0  0  0
    1.6776   -3.1755   36.7999 C   0  0  0  0  0  0  0  0  0  0  0  0
    2.1875   -2.1620   37.6234 C   0  0  0  0  0  0  0  0  0  0  0  0
    1.5699   -1.8652   38.8320 C   0  0  0  0  0  0  0  0  0  0  0  0
    0.4238   -2.5538   39.1949 C   0  0  0  0  0  0  0  0  0  0  0  0
   -0.1550   -2.3213   40.3744 F   0  0  0  0  0  0  0  0  0  0  0  0
   -0.1149   -3.5356   38.3911 C   0  0  0  0  0  0  0  0  0  0  0  0
    0.5440   -3.9056   37.2197 C   0  0  0  0  0  0  0  0  0  0  0  0
    0.1393   -5.0657   36.5342 N   0  0  0  0  0  0  0  0  0  0  0  0
   -1.1040   -4.8353   35.8336 C   0  0  0  0  0  0  0  0  0  0  0  0
   -1.2892   -5.7779   34.7895 O   0  0  0  0  0  0  0  0  0  0  0  0
    0.1752   -6.2917   37.3977 C   0  0  0  0  0  0  0  0  0  0  0  0
    0.5797   -7.4082   36.4504 C   0  0  0  0  0  0  0  0  0  0  0  0
    2.0412   -6.9990   36.1917 C   0  0  0  0  0  0  0  0  0  0  0  0
    2.6863   -7.7806   35.0989 C   0  0  0  0  0  0  0  0  0  0  0  0
    2.4944   -7.1183   33.7871 N   0  0  0  0  0  0  0  0  0  0  0  0
    1.1297   -6.7716   33.3202 C   0  0  0  0  0  0  0  0  0  0  0  0
    1.1697   -5.9060   32.1209 C   0  0  0  0  0  0  0  0  0  0  0  0
    1.6142   -6.1477   30.9065 N   0  0  0  0  0  0  0  0  0  0  0  0
    2.2503   -4.9950   30.4947 N   0  0  0  0  0  0  0  0  0  0  0  0
    2.0759   -4.1076   31.4545 C   0  0  0  0  0  0  0  0  0  0  0  0
    3.0054   -3.1287   31.9704 C   0  0  0  0  0  0  0  0  0  0  0  0
    2.6873   -1.7746   32.0118 C   0  0  0  0  0  0  0  0  0  0  0  0
    3.5372   -0.8914   32.6778 C   0  0  0  0  0  0  0  0  0  0  0  0
    4.6890   -1.3604   33.3149 C   0  0  0  0  0  0  0  0  0  0  0  0
    5.0110   -2.7140   33.2745 C   0  0  0  0  0  0  0  0  0  0  0  0
    4.1750   -3.5948   32.5952 C   0  0  0  0  0  0  0  0  0  0  0  0
    1.0429   -4.5455   32.2444 N   0  0  0  0  0  0  0  0  0  0  0  0
    2.4743   -6.8810   37.6045 C   0  0  0  0  0  0  0  0  0  0  0  0
    1.4096   -6.4175   38.2878 C   0  0  0  0  0  0  0  0  0  0  0  0
    1.4727   -6.2372   39.7664 C   0  0  0  0  0  0  0  0  0  0  0  0
    2.9417   -6.1948   40.2413 C   0  0  0  0  0  0  0  0  0  0  0  0
    3.7642   -7.2600   39.6459 N   0  0  0  0  0  0  0  0  0  0  0  0
    3.8090   -7.1693   38.1812 C   0  0  0  0  0  0  0  0  0  0  0  0
    2.6436   -2.5167   35.0354 H   0  0  0  0  0  0  0  0  0  0  0  0
    1.8299   -4.0548   34.8416 H   0  0  0  0  0  0  0  0  0  0  0  0
    3.3593   -3.9869   35.7496 H   0  0  0  0  0  0  0  0  0  0  0  0
    3.0807   -1.6128   37.3332 H   0  0  0  0  0  0  0  0  0  0  0  0
    1.9721   -1.1031   39.4915 H   0  0  0  0  0  0  0  0  0  0  0  0
   -0.9924   -4.0660   38.7470 H   0  0  0  0  0  0  0  0  0  0  0  0
   -1.9573   -4.8926   36.5150 H   0  0  0  0  0  0  0  0  0  0  0  0
   -1.1041   -3.8421   35.3651 H   0  0  0  0  0  0  0  0  0  0  0  0
   -2.0089   -5.3695   34.2712 H   0  0  0  0  0  0  0  0  0  0  0  0
   -0.7603   -6.4870   37.9256 H   0  0  0  0  0  0  0  0  0  0  0  0
    0.5138   -8.3718   36.9693 H   0  0  0  0  0  0  0  0  0  0  0  0
   -0.0363   -7.5155   35.5616 H   0  0  0  0  0  0  0  0  0  0  0  0
    2.1374   -5.9744   35.8331 H   0  0  0  0  0  0  0  0  0  0  0  0
    3.7656   -7.8598   35.2686 H   0  0  0  0  0  0  0  0  0  0  0  0
    2.3044   -8.7955   35.0712 H   0  0  0  0  0  0  0  0  0  0  0  0
    3.0386   -6.2531   33.7926 H   0  0  0  0  0  0  0  0  0  0  0  0
    0.5187   -7.6583   33.1422 H   0  0  0  0  0  0  0  0  0  0  0  0
    0.6846   -6.1770   34.0988 H   0  0  0  0  0  0  0  0  0  0  0  0
    1.7847   -1.3980   31.5366 H   0  0  0  0  0  0  0  0  0  0  0  0
    3.2993    0.1698   32.7065 H   0  0  0  0  0  0  0  0  0  0  0  0
    5.3431   -0.6618   33.8318 H   0  0  0  0  0  0  0  0  0  0  0  0
    5.9147   -3.0764   33.7571 H   0  0  0  0  0  0  0  0  0  0  0  0
    4.4311   -4.6512   32.5596 H   0  0  0  0  0  0  0  0  0  0  0  0
    0.7616   -4.0837   33.0934 H   0  0  0  0  0  0  0  0  0  0  0  0
    0.9736   -5.3213   40.0867 H   0  0  0  0  0  0  0  0  0  0  0  0
    0.9516   -7.0751   40.2453 H   0  0  0  0  0  0  0  0  0  0  0  0
    3.3827   -5.2167   40.0082 H   0  0  0  0  0  0  0  0  0  0  0  0
    2.9626   -6.2992   41.3319 H   0  0  0  0  0  0  0  0  0  0  0  0
    4.7115   -7.2040   40.0139 H   0  0  0  0  0  0  0  0  0  0  0  0
    4.5144   -6.3886   37.8745 H   0  0  0  0  0  0  0  0  0  0  0  0
    4.1821   -8.1242   37.7968 H   0  0  0  0  0  0  0  0  0  0  0  0
  1  2  1  0
  2  3  2  0
  3  4  1  0
  4  5  2  0
  5  6  1  0
  5  7  1  0
  7  8  2  0
  8  9  1  0
  9 10  1  0
 10 11  1  0
  9 12  1  0
 12 13  1  0
 13 14  1  0
 14 15  1  0
 15 16  1  0
 16 17  1  0
 17 18  1  0
 18 19  2  0
 19 20  1  0
 20 21  2  0
 21 22  1  0
 22 23  2  0
 23 24  1  0
 24 25  2  0
 25 26  1  0
 26 27  2  0
 21 28  1  0
 14 29  1  0
 29 30  2  0
 30 31  1  0
 31 32  1  0
 32 33  1  0
 33 34  1  0
  8  2  1  0
 30 12  1  0
 28 18  1  0
 34 29  1  0
 27 22  1  0
  1 35  1  0
  1 36  1  0
  1 37  1  0
  3 38  1  0
  4 39  1  0
  7 40  1  0
 10 41  1  0
 10 42  1  0
 11 43  1  0
 12 44  1  0
 13 45  1  0
 13 46  1  0
 14 47  1  0
 15 48  1  0
 15 49  1  0
 16 50  1  0
 17 51  1  0
 17 52  1  0
 23 53  1  0
 24 54  1  0
 25 55  1  0
 26 56  1  0
 27 57  1  0
 28 58  1  0
 31 59  1  0
 31 60  1  0
 32 61  1  0
 32 62  1  0
 33 63  1  0
 34 64  1  0
 34 65  1  0
M  END
>  <Energy>  (170) 
80.972704964079441

>  <compound_id>  (170) 
512

>  <target_id>  (170) 
1

>  <reference_id>  (170) 
132

>  <inspiration_ids>  (170) 
[56, 132]

>  <energy_score>  (170) 
2.219560500905345

>  <distance_score>  (170) 
2.198948590137568

>  <path>  (170) 
/opt/xchem-fragalysis-2/maxwin/BulkDock/SCRATCH/505733/C512-P132/C512-P132.minimised.mol

>  <scratch_subdir>  (170) 
/opt/xchem-fragalysis-2/maxwin/BulkDock/SCRATCH/505733/C512-P132

>  <fragmenstein_runtime>  (170) 
2.386559247970581

>  <fragmenstein_outcome>  (170) 
too moved

>  <fragmenstein_mode>  (170) 
expansion

>  <fragmenstein_error>  (170) 


$$$$
C513-P56
     RDKit          3D

 53 57  0  0  0  0  0  0  0  0999 V2000
    2.8244   -4.9425   35.0563 C   0  0  0  0  0  0  0  0  0  0  0  0
    1.7609   -4.2683   35.8852 C   0  0  0  0  0  0  0  0  0  0  0  0
    2.2551   -3.5608   37.0059 C   0  0  0  0  0  0  0  0  0  0  0  0
    1.4224   -3.1568   38.0352 C   0  0  0  0  0  0  0  0  0  0  0  0
    0.0790   -3.4319   37.9254 C   0  0  0  0  0  0  0  0  0  0  0  0
   -0.7244   -3.1697   38.9637 F   0  0  0  0  0  0  0  0  0  0  0  0
   -0.4460   -3.9755   36.7530 C   0  0  0  0  0  0  0  0  0  0  0  0
    0.3707   -4.3355   35.6592 C   0  0  0  0  0  0  0  0  0  0  0  0
   -0.2933   -4.8296   34.5350 N   0  0  0  0  0  0  0  0  0  0  0  0
    0.1213   -4.8585   33.1125 C   0  0  0  0  0  0  0  0  0  0  0  0
   -0.1187   -6.3211   32.5651 C   0  0  0  0  0  0  0  0  0  0  0  0
    0.0398   -6.5423   31.1845 C   0  0  0  0  0  0  0  0  0  0  0  0
   -0.6694   -7.5376   30.5604 C   0  0  0  0  0  0  0  0  0  0  0  0
   -1.5816   -8.2933   31.1858 N   0  0  0  0  0  0  0  0  0  0  0  0
   -1.6547   -8.1880   32.5169 C   0  0  0  0  0  0  0  0  0  0  0  0
   -2.5969   -8.9628   33.1615 C   0  0  0  0  0  0  0  0  0  0  0  0
   -2.7074   -8.9817   34.5486 C   0  0  0  0  0  0  0  0  0  0  0  0
   -1.7934   -8.2783   35.2987 C   0  0  0  0  0  0  0  0  0  0  0  0
   -0.8720   -7.4684   34.6736 C   0  0  0  0  0  0  0  0  0  0  0  0
   -0.8567   -7.3096   33.2755 C   0  0  0  0  0  0  0  0  0  0  0  0
   -0.7822   -3.9853   32.2417 N   0  0  0  0  0  0  0  0  0  0  0  0
    0.0318   -2.7922   31.8424 N   0  0  0  0  0  0  0  0  0  0  0  0
    1.0874   -2.8401   32.8503 C   0  0  0  0  0  0  0  0  0  0  0  0
    2.2526   -1.8920   32.7481 C   0  0  0  0  0  0  0  0  0  0  0  0
    2.8423   -1.5427   31.5369 C   0  0  0  0  0  0  0  0  0  0  0  0
    3.9209   -0.6607   31.5253 C   0  0  0  0  0  0  0  0  0  0  0  0
    4.4282   -0.1278   32.7135 C   0  0  0  0  0  0  0  0  0  0  0  0
    3.8618   -0.4631   33.9311 C   0  0  0  0  0  0  0  0  0  0  0  0
    2.7858   -1.3388   33.9424 C   0  0  0  0  0  0  0  0  0  0  0  0
    1.4473   -4.2552   32.8573 N   0  0  0  0  0  0  0  0  0  0  0  0
    2.0637   -4.6110   31.5907 O   0  0  0  0  0  0  0  0  0  0  0  0
    3.3458   -4.2357   34.4078 H   0  0  0  0  0  0  0  0  0  0  0  0
    2.4213   -5.7909   34.4990 H   0  0  0  0  0  0  0  0  0  0  0  0
    3.5915   -5.3891   35.6914 H   0  0  0  0  0  0  0  0  0  0  0  0
    3.3276   -3.4142   37.1170 H   0  0  0  0  0  0  0  0  0  0  0  0
    1.8212   -2.6997   38.9325 H   0  0  0  0  0  0  0  0  0  0  0  0
   -1.5217   -4.1098   36.6972 H   0  0  0  0  0  0  0  0  0  0  0  0
   -1.2807   -4.5530   34.5137 H   0  0  0  0  0  0  0  0  0  0  0  0
    0.6158   -5.8890   30.5424 H   0  0  0  0  0  0  0  0  0  0  0  0
   -0.5548   -7.7121   29.4939 H   0  0  0  0  0  0  0  0  0  0  0  0
   -3.2766   -9.5524   32.5551 H   0  0  0  0  0  0  0  0  0  0  0  0
   -3.4539   -9.5895   35.0518 H   0  0  0  0  0  0  0  0  0  0  0  0
   -1.7647   -8.3717   36.3730 H   0  0  0  0  0  0  0  0  0  0  0  0
   -0.1446   -6.9630   35.3013 H   0  0  0  0  0  0  0  0  0  0  0  0
   -1.0384   -4.5065   31.4108 H   0  0  0  0  0  0  0  0  0  0  0  0
    0.5152   -2.9933   30.9652 H   0  0  0  0  0  0  0  0  0  0  0  0
    0.6007   -2.5352   33.7870 H   0  0  0  0  0  0  0  0  0  0  0  0
    2.4750   -1.9409   30.5962 H   0  0  0  0  0  0  0  0  0  0  0  0
    4.3755   -0.3816   30.5773 H   0  0  0  0  0  0  0  0  0  0  0  0
    5.2699    0.5592   32.6784 H   0  0  0  0  0  0  0  0  0  0  0  0
    4.2471   -0.0491   34.8574 H   0  0  0  0  0  0  0  0  0  0  0  0
    2.3345   -1.5892   34.9002 H   0  0  0  0  0  0  0  0  0  0  0  0
    2.8012   -5.1619   31.9231 H   0  0  0  0  0  0  0  0  0  0  0  0
  1  2  1  0
  2  3  2  0
  3  4  1  0
  4  5  2  0
  5  6  1  0
  5  7  1  0
  7  8  2  0
  8  9  1  0
  9 10  1  0
 10 11  1  0
 11 12  2  0
 12 13  1  0
 13 14  2  0
 14 15  1  0
 15 16  2  0
 16 17  1  0
 17 18  2  0
 18 19  1  0
 19 20  2  0
 10 21  1  0
 21 22  1  0
 22 23  1  0
 23 24  1  0
 24 25  2  0
 25 26  1  0
 26 27  2  0
 27 28  1  0
 28 29  2  0
 23 30  1  0
 30 31  1  0
  8  2  1  0
 30 10  1  0
 20 11  1  0
 29 24  1  0
 20 15  1  0
  1 32  1  0
  1 33  1  0
  1 34  1  0
  3 35  1  0
  4 36  1  0
  7 37  1  0
  9 38  1  0
 12 39  1  0
 13 40  1  0
 16 41  1  0
 17 42  1  0
 18 43  1  0
 19 44  1  0
 21 45  1  0
 22 46  1  0
 23 47  1  0
 25 48  1  0
 26 49  1  0
 27 50  1  0
 28 51  1  0
 29 52  1  0
 31 53  1  0
M  END
>  <Energy>  (171) 
121.47834146585741

>  <compound_id>  (171) 
513

>  <target_id>  (171) 
1

>  <reference_id>  (171) 
56

>  <inspiration_ids>  (171) 
[56, 133]

>  <energy_score>  (171) 
-11.135688796842999

>  <distance_score>  (171) 
1.690523921538812

>  <path>  (171) 
/opt/xchem-fragalysis-2/maxwin/BulkDock/SCRATCH/505733/C513-P56/C513-P56.minimised.mol

>  <scratch_subdir>  (171) 
/opt/xchem-fragalysis-2/maxwin/BulkDock/SCRATCH/505733/C513-P56

>  <fragmenstein_runtime>  (171) 
3.4235243797302246

>  <fragmenstein_outcome>  (171) 
too moved

>  <fragmenstein_mode>  (171) 
expansion

>  <fragmenstein_error>  (171) 


$$$$
C513-P133
     RDKit          3D

 53 57  0  0  0  0  0  0  0  0999 V2000
    3.2762   -4.8183   35.1175 C   0  0  0  0  0  0  0  0  0  0  0  0
    2.1914   -4.2855   36.0171 C   0  0  0  0  0  0  0  0  0  0  0  0
    2.6557   -3.8584   37.2867 C   0  0  0  0  0  0  0  0  0  0  0  0
    1.7785   -3.4890   38.2951 C   0  0  0  0  0  0  0  0  0  0  0  0
    0.4251   -3.5423   38.0411 C   0  0  0  0  0  0  0  0  0  0  0  0
   -0.4336   -3.2650   39.0304 F   0  0  0  0  0  0  0  0  0  0  0  0
   -0.0526   -3.8851   36.7777 C   0  0  0  0  0  0  0  0  0  0  0  0
    0.8113   -4.2254   35.7109 C   0  0  0  0  0  0  0  0  0  0  0  0
    0.1885   -4.5263   34.5091 N   0  0  0  0  0  0  0  0  0  0  0  0
    0.6416   -4.6573   33.1038 C   0  0  0  0  0  0  0  0  0  0  0  0
    0.5009   -6.1641   32.6742 C   0  0  0  0  0  0  0  0  0  0  0  0
    0.4241   -6.5008   31.3107 C   0  0  0  0  0  0  0  0  0  0  0  0
   -0.5183   -7.4227   30.9132 C   0  0  0  0  0  0  0  0  0  0  0  0
   -1.4034   -7.9590   31.7610 N   0  0  0  0  0  0  0  0  0  0  0  0
   -1.1842   -7.7489   33.0785 C   0  0  0  0  0  0  0  0  0  0  0  0
   -2.0528   -8.1965   34.0356 C   0  0  0  0  0  0  0  0  0  0  0  0
   -1.7889   -8.1634   35.4063 C   0  0  0  0  0  0  0  0  0  0  0  0
   -0.5818   -7.7134   35.8686 C   0  0  0  0  0  0  0  0  0  0  0  0
    0.2708   -7.1795   34.9371 C   0  0  0  0  0  0  0  0  0  0  0  0
   -0.0985   -7.0510   33.5753 C   0  0  0  0  0  0  0  0  0  0  0  0
   -0.2996   -3.8644   32.1949 N   0  0  0  0  0  0  0  0  0  0  0  0
    0.3866   -2.5692   31.9426 N   0  0  0  0  0  0  0  0  0  0  0  0
    1.4882   -2.6262   32.9142 C   0  0  0  0  0  0  0  0  0  0  0  0
    2.5747   -1.6030   32.8092 C   0  0  0  0  0  0  0  0  0  0  0  0
    2.9238   -1.0024   31.6042 C   0  0  0  0  0  0  0  0  0  0  0  0
    3.9058   -0.0182   31.5938 C   0  0  0  0  0  0  0  0  0  0  0  0
    4.5463    0.3684   32.7743 C   0  0  0  0  0  0  0  0  0  0  0  0
    4.2196   -0.2237   33.9828 C   0  0  0  0  0  0  0  0  0  0  0  0
    3.2443   -1.2071   33.9953 C   0  0  0  0  0  0  0  0  0  0  0  0
    1.9397   -4.0205   32.7940 N   0  0  0  0  0  0  0  0  0  0  0  0
    2.3275   -4.2485   31.3917 O   0  0  0  0  0  0  0  0  0  0  0  0
    3.7739   -4.0146   34.5720 H   0  0  0  0  0  0  0  0  0  0  0  0
    2.9193   -5.5947   34.4398 H   0  0  0  0  0  0  0  0  0  0  0  0
    4.0472   -5.3189   35.7177 H   0  0  0  0  0  0  0  0  0  0  0  0
    3.7227   -3.8643   37.5065 H   0  0  0  0  0  0  0  0  0  0  0  0
    2.1377   -3.2031   39.2773 H   0  0  0  0  0  0  0  0  0  0  0  0
   -1.1308   -3.8864   36.6330 H   0  0  0  0  0  0  0  0  0  0  0  0
   -0.8213   -4.4034   34.5046 H   0  0  0  0  0  0  0  0  0  0  0  0
    0.9570   -5.9520   30.5437 H   0  0  0  0  0  0  0  0  0  0  0  0
   -0.6488   -7.6831   29.8702 H   0  0  0  0  0  0  0  0  0  0  0  0
   -2.9226   -8.7340   33.7155 H   0  0  0  0  0  0  0  0  0  0  0  0
   -2.4379   -8.7430   36.0512 H   0  0  0  0  0  0  0  0  0  0  0  0
   -0.2936   -7.8148   36.9084 H   0  0  0  0  0  0  0  0  0  0  0  0
    1.2262   -6.8054   35.2839 H   0  0  0  0  0  0  0  0  0  0  0  0
   -0.3960   -4.3588   31.3135 H   0  0  0  0  0  0  0  0  0  0  0  0
   -0.2157   -1.7878   32.2234 H   0  0  0  0  0  0  0  0  0  0  0  0
    1.0430   -2.4006   33.8922 H   0  0  0  0  0  0  0  0  0  0  0  0
    2.4324   -1.2703   30.6735 H   0  0  0  0  0  0  0  0  0  0  0  0
    4.1775    0.4619   30.6562 H   0  0  0  0  0  0  0  0  0  0  0  0
    5.3091    1.1428   32.7408 H   0  0  0  0  0  0  0  0  0  0  0  0
    4.7161    0.0770   34.9002 H   0  0  0  0  0  0  0  0  0  0  0  0
    2.9774   -1.6614   34.9475 H   0  0  0  0  0  0  0  0  0  0  0  0
    1.7814   -3.5770   30.9264 H   0  0  0  0  0  0  0  0  0  0  0  0
  1  2  1  0
  2  3  2  0
  3  4  1  0
  4  5  2  0
  5  6  1  0
  5  7  1  0
  7  8  2  0
  8  9  1  0
  9 10  1  0
 10 11  1  0
 11 12  2  0
 12 13  1  0
 13 14  2  0
 14 15  1  0
 15 16  2  0
 16 17  1  0
 17 18  2  0
 18 19  1  0
 19 20  2  0
 10 21  1  0
 21 22  1  0
 22 23  1  0
 23 24  1  0
 24 25  2  0
 25 26  1  0
 26 27  2  0
 27 28  1  0
 28 29  2  0
 23 30  1  0
 30 31  1  0
  8  2  1  0
 30 10  1  0
 20 11  1  0
 29 24  1  0
 20 15  1  0
  1 32  1  0
  1 33  1  0
  1 34  1  0
  3 35  1  0
  4 36  1  0
  7 37  1  0
  9 38  1  0
 12 39  1  0
 13 40  1  0
 16 41  1  0
 17 42  1  0
 18 43  1  0
 19 44  1  0
 21 45  1  0
 22 46  1  0
 23 47  1  0
 25 48  1  0
 26 49  1  0
 27 50  1  0
 28 51  1  0
 29 52  1  0
 31 53  1  0
M  END
>  <Energy>  (172) 
131.42450788356479

>  <compound_id>  (172) 
513

>  <target_id>  (172) 
1

>  <reference_id>  (172) 
133

>  <inspiration_ids>  (172) 
[56, 133]

>  <energy_score>  (172) 
-1.1895223791328817

>  <distance_score>  (172) 
1.862297315405184

>  <path>  (172) 
/opt/xchem-fragalysis-2/maxwin/BulkDock/SCRATCH/505733/C513-P133/C513-P133.minimised.mol

>  <scratch_subdir>  (172) 
/opt/xchem-fragalysis-2/maxwin/BulkDock/SCRATCH/505733/C513-P133

>  <fragmenstein_runtime>  (172) 
3.1693918704986572

>  <fragmenstein_outcome>  (172) 
too moved

>  <fragmenstein_mode>  (172) 
expansion

>  <fragmenstein_error>  (172) 


$$$$
C516-P56
     RDKit          3D

 44 47  0  0  0  0  0  0  0  0999 V2000
    4.3892   -3.1505   33.3831 C   0  0  0  0  0  0  0  0  0  0  0  0
    3.9905   -3.0313   34.8226 C   0  0  0  0  0  0  0  0  0  0  0  0
    4.5215   -1.9980   35.6160 C   0  0  0  0  0  0  0  0  0  0  0  0
    4.0914   -1.8103   36.9337 C   0  0  0  0  0  0  0  0  0  0  0  0
    3.1243   -2.6509   37.4624 C   0  0  0  0  0  0  0  0  0  0  0  0
    2.6551   -2.4396   38.7013 F   0  0  0  0  0  0  0  0  0  0  0  0
    2.6081   -3.6872   36.7019 C   0  0  0  0  0  0  0  0  0  0  0  0
    3.0591   -3.9026   35.3919 C   0  0  0  0  0  0  0  0  0  0  0  0
    2.2317   -4.6965   34.6185 N   0  0  0  0  0  0  0  0  0  0  0  0
    1.6799   -6.0200   34.8618 C   0  0  0  0  0  0  0  0  0  0  0  0
    1.8696   -6.7943   35.7580 O   0  0  0  0  0  0  0  0  0  0  0  0
    0.5555   -6.4758   33.8343 C   0  0  0  0  0  0  0  0  0  0  0  0
   -0.4016   -7.1645   34.5758 C   0  0  0  0  0  0  0  0  0  0  0  0
   -0.5711   -8.5468   34.5026 N   0  0  0  0  0  0  0  0  0  0  0  0
   -0.9929   -6.3663   35.5338 C   0  0  0  0  0  0  0  0  0  0  0  0
   -1.0077   -5.0152   35.4257 N   0  0  0  0  0  0  0  0  0  0  0  0
   -0.6224   -4.4926   34.2326 C   0  0  0  0  0  0  0  0  0  0  0  0
   -0.8003   -3.1612   33.8626 C   0  0  0  0  0  0  0  0  0  0  0  0
   -0.4201   -2.7041   32.5963 C   0  0  0  0  0  0  0  0  0  0  0  0
    0.1729   -3.5738   31.6679 C   0  0  0  0  0  0  0  0  0  0  0  0
    0.6489   -3.0950   30.3856 C   0  0  0  0  0  0  0  0  0  0  0  0
    1.9418   -3.3545   29.9332 C   0  0  0  0  0  0  0  0  0  0  0  0
    2.3974   -2.9401   28.7357 N   0  0  0  0  0  0  0  0  0  0  0  0
    1.4961   -2.2585   27.9964 C   0  0  0  0  0  0  0  0  0  0  0  0
    0.2107   -1.9933   28.4416 C   0  0  0  0  0  0  0  0  0  0  0  0
   -0.2389   -2.3967   29.6478 N   0  0  0  0  0  0  0  0  0  0  0  0
    0.3674   -4.9070   32.0196 C   0  0  0  0  0  0  0  0  0  0  0  0
    0.0198   -5.3226   33.3022 C   0  0  0  0  0  0  0  0  0  0  0  0
    3.6339   -2.6817   32.7450 H   0  0  0  0  0  0  0  0  0  0  0  0
    5.3510   -2.6605   33.1975 H   0  0  0  0  0  0  0  0  0  0  0  0
    4.5044   -4.2003   33.0933 H   0  0  0  0  0  0  0  0  0  0  0  0
    5.2584   -1.3137   35.2016 H   0  0  0  0  0  0  0  0  0  0  0  0
    4.4877   -1.0016   37.5378 H   0  0  0  0  0  0  0  0  0  0  0  0
    1.8160   -4.2955   37.1285 H   0  0  0  0  0  0  0  0  0  0  0  0
    1.9163   -4.3683   33.7264 H   0  0  0  0  0  0  0  0  0  0  0  0
   -1.3117   -8.9496   35.0794 H   0  0  0  0  0  0  0  0  0  0  0  0
   -0.6103   -8.8786   33.5397 H   0  0  0  0  0  0  0  0  0  0  0  0
   -1.4828   -6.7755   36.4029 H   0  0  0  0  0  0  0  0  0  0  0  0
   -1.2739   -2.4845   34.5694 H   0  0  0  0  0  0  0  0  0  0  0  0
   -0.5829   -1.6582   32.3392 H   0  0  0  0  0  0  0  0  0  0  0  0
    2.6579   -3.9054   30.5328 H   0  0  0  0  0  0  0  0  0  0  0  0
    1.8399   -1.9200   27.0250 H   0  0  0  0  0  0  0  0  0  0  0  0
   -0.4951   -1.4391   27.8341 H   0  0  0  0  0  0  0  0  0  0  0  0
    0.8668   -5.6035   31.3459 H   0  0  0  0  0  0  0  0  0  0  0  0
  1  2  1  0
  2  3  2  0
  3  4  1  0
  4  5  2  0
  5  6  1  0
  5  7  1  0
  7  8  2  0
  8  9  1  0
  9 10  1  0
 10 11  2  0
 10 12  1  0
 12 13  2  0
 13 14  1  0
 13 15  1  0
 15 16  2  0
 16 17  1  0
 17 18  2  0
 18 19  1  0
 19 20  2  0
 20 21  1  0
 21 22  2  0
 22 23  1  0
 23 24  2  0
 24 25  1  0
 25 26  2  0
 20 27  1  0
 27 28  2  0
  8  2  1  0
 28 12  1  0
 28 17  1  0
 26 21  1  0
  1 29  1  0
  1 30  1  0
  1 31  1  0
  3 32  1  0
  4 33  1  0
  7 34  1  0
  9 35  1  0
 14 36  1  0
 14 37  1  0
 15 38  1  0
 18 39  1  0
 19 40  1  0
 22 41  1  0
 24 42  1  0
 25 43  1  0
 27 44  1  0
M  END
>  <Energy>  (173) 
231.21968942580756

>  <compound_id>  (173) 
516

>  <target_id>  (173) 
1

>  <reference_id>  (173) 
56

>  <inspiration_ids>  (173) 
[56, 136]

>  <energy_score>  (173) 
24.69063774422966

>  <distance_score>  (173) 
3.8290664294303283

>  <path>  (173) 
/opt/xchem-fragalysis-2/maxwin/BulkDock/SCRATCH/505733/C516-P56/C516-P56.minimised.mol

>  <scratch_subdir>  (173) 
/opt/xchem-fragalysis-2/maxwin/BulkDock/SCRATCH/505733/C516-P56

>  <fragmenstein_runtime>  (173) 
3.9650139808654785

>  <fragmenstein_outcome>  (173) 
too moved

>  <fragmenstein_mode>  (173) 
expansion

>  <fragmenstein_error>  (173) 


$$$$
C516-P136
     RDKit          3D

 44 47  0  0  0  0  0  0  0  0999 V2000
    5.1554   -5.4250   34.9436 C   0  0  0  0  0  0  0  0  0  0  0  0
    4.9563   -4.7739   36.2784 C   0  0  0  0  0  0  0  0  0  0  0  0
    6.0201   -4.0045   36.7986 C   0  0  0  0  0  0  0  0  0  0  0  0
    5.8861   -3.2674   37.9800 C   0  0  0  0  0  0  0  0  0  0  0  0
    4.6846   -3.2958   38.6598 C   0  0  0  0  0  0  0  0  0  0  0  0
    4.5076   -2.5804   39.7772 F   0  0  0  0  0  0  0  0  0  0  0  0
    3.6398   -4.0612   38.1868 C   0  0  0  0  0  0  0  0  0  0  0  0
    3.7682   -4.8216   37.0097 C   0  0  0  0  0  0  0  0  0  0  0  0
    2.5666   -5.4302   36.6775 N   0  0  0  0  0  0  0  0  0  0  0  0
    2.2679   -6.5092   35.7633 C   0  0  0  0  0  0  0  0  0  0  0  0
    2.9907   -7.2105   35.1141 O   0  0  0  0  0  0  0  0  0  0  0  0
    0.7814   -6.5837   35.6405 C   0  0  0  0  0  0  0  0  0  0  0  0
    0.0927   -6.8517   36.8280 C   0  0  0  0  0  0  0  0  0  0  0  0
    0.6222   -7.6545   37.8554 N   0  0  0  0  0  0  0  0  0  0  0  0
   -0.9041   -5.9342   37.1122 C   0  0  0  0  0  0  0  0  0  0  0  0
   -1.2865   -4.9151   36.3130 N   0  0  0  0  0  0  0  0  0  0  0  0
   -0.6877   -4.7710   35.1261 C   0  0  0  0  0  0  0  0  0  0  0  0
   -0.9945   -3.6805   34.3289 C   0  0  0  0  0  0  0  0  0  0  0  0
   -0.4330   -3.5148   33.0661 C   0  0  0  0  0  0  0  0  0  0  0  0
    0.4945   -4.4367   32.5732 C   0  0  0  0  0  0  0  0  0  0  0  0
    0.9953   -4.3199   31.2084 C   0  0  0  0  0  0  0  0  0  0  0  0
    2.2714   -4.7087   30.8110 C   0  0  0  0  0  0  0  0  0  0  0  0
    2.7043   -4.6355   29.5322 N   0  0  0  0  0  0  0  0  0  0  0  0
    1.8131   -4.1042   28.6671 C   0  0  0  0  0  0  0  0  0  0  0  0
    0.5428   -3.7068   29.0459 C   0  0  0  0  0  0  0  0  0  0  0  0
    0.1080   -3.8211   30.3146 N   0  0  0  0  0  0  0  0  0  0  0  0
    0.8838   -5.4814   33.4165 C   0  0  0  0  0  0  0  0  0  0  0  0
    0.3095   -5.6471   34.6933 C   0  0  0  0  0  0  0  0  0  0  0  0
    6.0353   -5.0185   34.4315 H   0  0  0  0  0  0  0  0  0  0  0  0
    5.3227   -6.4986   35.0646 H   0  0  0  0  0  0  0  0  0  0  0  0
    4.3070   -5.2313   34.2807 H   0  0  0  0  0  0  0  0  0  0  0  0
    6.9665   -3.9517   36.2619 H   0  0  0  0  0  0  0  0  0  0  0  0
    6.7078   -2.6669   38.3563 H   0  0  0  0  0  0  0  0  0  0  0  0
    2.7157   -4.0538   38.7593 H   0  0  0  0  0  0  0  0  0  0  0  0
    1.7059   -5.1161   37.1131 H   0  0  0  0  0  0  0  0  0  0  0  0
   -0.0770   -7.9849   38.5158 H   0  0  0  0  0  0  0  0  0  0  0  0
    1.1382   -8.4603   37.5040 H   0  0  0  0  0  0  0  0  0  0  0  0
   -1.3801   -5.9237   38.0896 H   0  0  0  0  0  0  0  0  0  0  0  0
   -1.7265   -2.9578   34.6847 H   0  0  0  0  0  0  0  0  0  0  0  0
   -0.7503   -2.6688   32.4574 H   0  0  0  0  0  0  0  0  0  0  0  0
    3.0006   -5.0817   31.5206 H   0  0  0  0  0  0  0  0  0  0  0  0
    2.1617   -3.9938   27.6488 H   0  0  0  0  0  0  0  0  0  0  0  0
   -0.1641   -3.2795   28.3431 H   0  0  0  0  0  0  0  0  0  0  0  0
    1.6218   -6.2080   33.0801 H   0  0  0  0  0  0  0  0  0  0  0  0
  1  2  1  0
  2  3  2  0
  3  4  1  0
  4  5  2  0
  5  6  1  0
  5  7  1  0
  7  8  2  0
  8  9  1  0
  9 10  1  0
 10 11  2  0
 10 12  1  0
 12 13  2  0
 13 14  1  0
 13 15  1  0
 15 16  2  0
 16 17  1  0
 17 18  2  0
 18 19  1  0
 19 20  2  0
 20 21  1  0
 21 22  2  0
 22 23  1  0
 23 24  2  0
 24 25  1  0
 25 26  2  0
 20 27  1  0
 27 28  2  0
  8  2  1  0
 28 12  1  0
 28 17  1  0
 26 21  1  0
  1 29  1  0
  1 30  1  0
  1 31  1  0
  3 32  1  0
  4 33  1  0
  7 34  1  0
  9 35  1  0
 14 36  1  0
 14 37  1  0
 15 38  1  0
 18 39  1  0
 19 40  1  0
 22 41  1  0
 24 42  1  0
 25 43  1  0
 27 44  1  0
M  END
>  <Energy>  (174) 
168.28956853856084

>  <compound_id>  (174) 
516

>  <target_id>  (174) 
1

>  <reference_id>  (174) 
136

>  <inspiration_ids>  (174) 
[56, 136]

>  <energy_score>  (174) 
-38.23948314301737

>  <distance_score>  (174) 
3.9279680760098548

>  <path>  (174) 
/opt/xchem-fragalysis-2/maxwin/BulkDock/SCRATCH/505733/C516-P136/C516-P136.minimised.mol

>  <scratch_subdir>  (174) 
/opt/xchem-fragalysis-2/maxwin/BulkDock/SCRATCH/505733/C516-P136

>  <fragmenstein_runtime>  (174) 
3.8748598098754883

>  <fragmenstein_outcome>  (174) 
too moved

>  <fragmenstein_mode>  (174) 
expansion

>  <fragmenstein_error>  (174) 


$$$$
C516-P56
     RDKit          2D

  0  0  0  0  0  0  0  0  0  0999 V2000
M  END
>  <compound_id>  (175) 
516

>  <target_id>  (175) 
1

>  <reference_id>  (175) 
56

>  <inspiration_ids>  (175) 
[56, 140]

>  <energy_score>  (175) 
nan

>  <distance_score>  (175) 
nan

>  <path>  (175) 
/opt/xchem-fragalysis-2/maxwin/BulkDock/SCRATCH/505733/C516-P56/C516-P56.minimised.mol

>  <scratch_subdir>  (175) 
/opt/xchem-fragalysis-2/maxwin/BulkDock/SCRATCH/505733/C516-P56

>  <fragmenstein_runtime>  (175) 
2.4819324016571045

>  <fragmenstein_outcome>  (175) 
too distant

>  <fragmenstein_mode>  (175) 
expansion

>  <fragmenstein_error>  (175) 
DistanceError: hit1

$$$$
C518-P56
     RDKit          3D

 59 61  0  0  0  0  0  0  0  0999 V2000
   -3.5334   -0.2114   32.7672 C   0  0  0  0  0  0  0  0  0  0  0  0
   -3.3373   -1.6123   33.3287 C   0  0  0  0  0  0  0  0  0  0  0  0
   -1.9172   -1.8170   33.8723 C   0  0  0  0  0  0  0  0  0  0  0  0
   -0.8581   -2.2530   32.8293 C   0  0  0  0  0  0  0  0  0  0  0  0
   -1.0719   -3.5994   32.2806 N   0  0  0  0  0  0  0  0  0  0  0  0
    0.1628   -4.0973   31.6356 C   0  0  0  0  0  0  0  0  0  0  0  0
    1.0340   -3.0226   30.9546 C   0  0  0  0  0  0  0  0  0  0  0  0
    2.2669   -3.5957   30.2304 C   0  0  0  0  0  0  0  0  0  0  0  0
    3.0624   -2.5466   29.4344 C   0  0  0  0  0  0  0  0  0  0  0  0
    4.3193   -2.2483   30.1228 N   0  0  0  0  0  0  0  0  0  0  0  0
    5.1115   -1.2986   29.3513 C   0  0  0  0  0  0  0  0  0  0  0  0
    1.2231   -1.7751   31.8561 C   0  0  0  0  0  0  0  0  0  0  0  0
    2.5555   -1.4374   32.1360 O   0  0  0  0  0  0  0  0  0  0  0  0
    0.7853   -0.5454   31.1776 N   0  0  0  0  0  0  0  0  0  0  0  0
    0.0404   -0.2849   30.0596 C   0  0  0  0  0  0  0  0  0  0  0  0
    0.1403    0.9055   29.2940 C   0  0  0  0  0  0  0  0  0  0  0  0
   -0.7036    0.9428   28.2583 N   0  0  0  0  0  0  0  0  0  0  0  0
   -1.3443   -0.2341   28.3414 N   0  0  0  0  0  0  0  0  0  0  0  0
   -0.9726   -0.9738   29.4326 C   0  0  0  0  0  0  0  0  0  0  0  0
    0.5464   -1.8852   33.1875 N   0  0  0  0  0  0  0  0  0  0  0  0
    1.0102   -2.5272   34.3936 C   0  0  0  0  0  0  0  0  0  0  0  0
    0.4245   -2.1081   35.6363 C   0  0  0  0  0  0  0  0  0  0  0  0
    0.5357   -2.8073   36.8497 C   0  0  0  0  0  0  0  0  0  0  0  0
   -0.1173   -2.4144   37.9554 F   0  0  0  0  0  0  0  0  0  0  0  0
    1.3078   -3.9282   36.9165 C   0  0  0  0  0  0  0  0  0  0  0  0
    2.0391   -4.2690   35.7922 C   0  0  0  0  0  0  0  0  0  0  0  0
    1.9653   -3.5563   34.5582 C   0  0  0  0  0  0  0  0  0  0  0  0
    2.9884   -4.0706   33.5873 C   0  0  0  0  0  0  0  0  0  0  0  0
   -2.9785   -0.0737   31.8350 H   0  0  0  0  0  0  0  0  0  0  0  0
   -3.2071    0.5546   33.4781 H   0  0  0  0  0  0  0  0  0  0  0  0
   -4.5939   -0.0360   32.5708 H   0  0  0  0  0  0  0  0  0  0  0  0
   -4.0437   -1.7398   34.1582 H   0  0  0  0  0  0  0  0  0  0  0  0
   -3.5940   -2.3574   32.5705 H   0  0  0  0  0  0  0  0  0  0  0  0
   -1.6176   -0.8603   34.3138 H   0  0  0  0  0  0  0  0  0  0  0  0
   -1.9614   -2.5464   34.6859 H   0  0  0  0  0  0  0  0  0  0  0  0
   -1.1506   -1.6072   32.0034 H   0  0  0  0  0  0  0  0  0  0  0  0
   -1.2885   -4.2066   33.0784 H   0  0  0  0  0  0  0  0  0  0  0  0
   -0.1467   -4.8339   30.8832 H   0  0  0  0  0  0  0  0  0  0  0  0
    0.7286   -4.6719   32.3656 H   0  0  0  0  0  0  0  0  0  0  0  0
    0.4142   -2.7535   30.1039 H   0  0  0  0  0  0  0  0  0  0  0  0
    2.9137   -4.1587   30.9073 H   0  0  0  0  0  0  0  0  0  0  0  0
    1.9040   -4.3448   29.5140 H   0  0  0  0  0  0  0  0  0  0  0  0
    2.4790   -1.6350   29.2755 H   0  0  0  0  0  0  0  0  0  0  0  0
    3.2789   -2.9358   28.4376 H   0  0  0  0  0  0  0  0  0  0  0  0
    4.0753   -1.8217   31.0249 H   0  0  0  0  0  0  0  0  0  0  0  0
    6.0383   -1.0775   29.8895 H   0  0  0  0  0  0  0  0  0  0  0  0
    4.5758   -0.3552   29.2025 H   0  0  0  0  0  0  0  0  0  0  0  0
    5.3875   -1.7120   28.3764 H   0  0  0  0  0  0  0  0  0  0  0  0
    2.4744   -1.1515   33.0620 H   0  0  0  0  0  0  0  0  0  0  0  0
    1.5014    0.1397   31.3984 H   0  0  0  0  0  0  0  0  0  0  0  0
    0.7998    1.7483   29.4527 H   0  0  0  0  0  0  0  0  0  0  0  0
   -2.0350   -0.4655   27.6346 H   0  0  0  0  0  0  0  0  0  0  0  0
   -1.4691   -1.9117   29.6307 H   0  0  0  0  0  0  0  0  0  0  0  0
   -0.1723   -1.2030   35.6732 H   0  0  0  0  0  0  0  0  0  0  0  0
    1.4086   -4.4688   37.8482 H   0  0  0  0  0  0  0  0  0  0  0  0
    2.7463   -5.0947   35.8790 H   0  0  0  0  0  0  0  0  0  0  0  0
    3.9028   -4.3693   34.1179 H   0  0  0  0  0  0  0  0  0  0  0  0
    3.3389   -3.3216   32.8916 H   0  0  0  0  0  0  0  0  0  0  0  0
    2.6330   -4.9568   33.0589 H   0  0  0  0  0  0  0  0  0  0  0  0
  1  2  1  0
  2  3  1  0
  3  4  1  0
  4  5  1  0
  5  6  1  0
  6  7  1  0
  7  8  1  0
  8  9  1  0
  9 10  1  0
 10 11  1  0
  7 12  1  0
 12 13  1  0
 12 14  1  0
 14 15  1  0
 15 16  1  0
 16 17  2  0
 17 18  1  0
 18 19  1  0
 12 20  1  0
 20 21  1  0
 21 22  2  0
 22 23  1  0
 23 24  1  0
 23 25  2  0
 25 26  1  0
 26 27  2  0
 27 28  1  0
 20  4  1  0
 27 21  1  0
 19 15  2  0
  1 29  1  0
  1 30  1  0
  1 31  1  0
  2 32  1  0
  2 33  1  0
  3 34  1  0
  3 35  1  0
  4 36  1  0
  5 37  1  0
  6 38  1  0
  6 39  1  0
  7 40  1  0
  8 41  1  0
  8 42  1  0
  9 43  1  0
  9 44  1  0
 10 45  1  0
 11 46  1  0
 11 47  1  0
 11 48  1  0
 13 49  1  0
 14 50  1  0
 16 51  1  0
 18 52  1  0
 19 53  1  0
 22 54  1  0
 25 55  1  0
 26 56  1  0
 28 57  1  0
 28 58  1  0
 28 59  1  0
M  END
>  <Energy>  (176) 
-98.960932634501376

>  <compound_id>  (176) 
518

>  <target_id>  (176) 
1

>  <reference_id>  (176) 
56

>  <inspiration_ids>  (176) 
[56, 142]

>  <energy_score>  (176) 
-15.17424292159798

>  <distance_score>  (176) 
1.8257157458022675

>  <path>  (176) 
/opt/xchem-fragalysis-2/maxwin/BulkDock/SCRATCH/505733/C518-P56/C518-P56.minimised.mol

>  <scratch_subdir>  (176) 
/opt/xchem-fragalysis-2/maxwin/BulkDock/SCRATCH/505733/C518-P56

>  <fragmenstein_runtime>  (176) 
4.932928085327148

>  <fragmenstein_outcome>  (176) 
too moved

>  <fragmenstein_mode>  (176) 
expansion

>  <fragmenstein_error>  (176) 


$$$$
C518-P142
     RDKit          3D

 59 61  0  0  0  0  0  0  0  0999 V2000
   -3.4138   -0.5279   32.7753 C   0  0  0  0  0  0  0  0  0  0  0  0
   -3.2103   -1.8905   33.4009 C   0  0  0  0  0  0  0  0  0  0  0  0
   -1.7785   -2.0793   33.9098 C   0  0  0  0  0  0  0  0  0  0  0  0
   -0.7603   -2.5548   32.8474 C   0  0  0  0  0  0  0  0  0  0  0  0
   -1.0344   -3.9218   32.3828 N   0  0  0  0  0  0  0  0  0  0  0  0
    0.1535   -4.4884   31.7265 C   0  0  0  0  0  0  0  0  0  0  0  0
    1.0257   -3.4823   30.9548 C   0  0  0  0  0  0  0  0  0  0  0  0
    2.2452   -4.1506   30.2908 C   0  0  0  0  0  0  0  0  0  0  0  0
    2.7733   -3.3581   29.0896 C   0  0  0  0  0  0  0  0  0  0  0  0
    3.8995   -4.0981   28.5086 N   0  0  0  0  0  0  0  0  0  0  0  0
    4.3858   -3.4400   27.3021 C   0  0  0  0  0  0  0  0  0  0  0  0
    1.3040   -2.2043   31.7862 C   0  0  0  0  0  0  0  0  0  0  0  0
    2.6700   -1.9625   31.9834 O   0  0  0  0  0  0  0  0  0  0  0  0
    0.8945   -0.9741   31.0983 N   0  0  0  0  0  0  0  0  0  0  0  0
    0.2090   -0.6810   29.9507 C   0  0  0  0  0  0  0  0  0  0  0  0
    0.3029    0.5669   29.2782 C   0  0  0  0  0  0  0  0  0  0  0  0
   -0.4459    0.6379   28.1754 N   0  0  0  0  0  0  0  0  0  0  0  0
   -1.0307   -0.5731   28.1179 N   0  0  0  0  0  0  0  0  0  0  0  0
   -0.7288   -1.3595   29.2064 C   0  0  0  0  0  0  0  0  0  0  0  0
    0.6756   -2.2325   33.1569 N   0  0  0  0  0  0  0  0  0  0  0  0
    1.1381   -2.8359   34.3844 C   0  0  0  0  0  0  0  0  0  0  0  0
    0.5801   -2.3638   35.6188 C   0  0  0  0  0  0  0  0  0  0  0  0
    0.6563   -3.0490   36.8464 C   0  0  0  0  0  0  0  0  0  0  0  0
    0.0221   -2.6007   37.9417 F   0  0  0  0  0  0  0  0  0  0  0  0
    1.3624   -4.2158   36.9373 C   0  0  0  0  0  0  0  0  0  0  0  0
    2.0867   -4.6065   35.8256 C   0  0  0  0  0  0  0  0  0  0  0  0
    2.0583   -3.8932   34.5835 C   0  0  0  0  0  0  0  0  0  0  0  0
    3.0995   -4.4000   33.6312 C   0  0  0  0  0  0  0  0  0  0  0  0
   -2.8632   -0.4309   31.8353 H   0  0  0  0  0  0  0  0  0  0  0  0
   -3.0928    0.2713   33.4509 H   0  0  0  0  0  0  0  0  0  0  0  0
   -4.4783   -0.3840   32.5758 H   0  0  0  0  0  0  0  0  0  0  0  0
   -3.8943   -1.9663   34.2549 H   0  0  0  0  0  0  0  0  0  0  0  0
   -3.4951   -2.6649   32.6841 H   0  0  0  0  0  0  0  0  0  0  0  0
   -1.4612   -1.1131   34.3159 H   0  0  0  0  0  0  0  0  0  0  0  0
   -1.8103   -2.7941   34.7387 H   0  0  0  0  0  0  0  0  0  0  0  0
   -1.0541   -1.9359   31.9969 H   0  0  0  0  0  0  0  0  0  0  0  0
   -1.2547   -4.4754   33.2133 H   0  0  0  0  0  0  0  0  0  0  0  0
   -0.2054   -5.2555   31.0283 H   0  0  0  0  0  0  0  0  0  0  0  0
    0.7287   -5.0424   32.4661 H   0  0  0  0  0  0  0  0  0  0  0  0
    0.3911   -3.2459   30.1084 H   0  0  0  0  0  0  0  0  0  0  0  0
    3.0565   -4.2935   31.0049 H   0  0  0  0  0  0  0  0  0  0  0  0
    1.9572   -5.1529   29.9455 H   0  0  0  0  0  0  0  0  0  0  0  0
    3.0962   -2.3573   29.3948 H   0  0  0  0  0  0  0  0  0  0  0  0
    1.9747   -3.2506   28.3464 H   0  0  0  0  0  0  0  0  0  0  0  0
    4.6579   -4.1268   29.1909 H   0  0  0  0  0  0  0  0  0  0  0  0
    5.2482   -3.9886   26.9108 H   0  0  0  0  0  0  0  0  0  0  0  0
    4.7027   -2.4113   27.5020 H   0  0  0  0  0  0  0  0  0  0  0  0
    3.6200   -3.4369   26.5216 H   0  0  0  0  0  0  0  0  0  0  0  0
    2.6569   -1.5568   32.8662 H   0  0  0  0  0  0  0  0  0  0  0  0
    1.5265   -0.2515   31.4257 H   0  0  0  0  0  0  0  0  0  0  0  0
    0.8992    1.4282   29.5485 H   0  0  0  0  0  0  0  0  0  0  0  0
   -1.6119   -0.8062   27.3134 H   0  0  0  0  0  0  0  0  0  0  0  0
   -1.2166   -2.3180   29.2959 H   0  0  0  0  0  0  0  0  0  0  0  0
    0.0255   -1.4308   35.6381 H   0  0  0  0  0  0  0  0  0  0  0  0
    1.4156   -4.7589   37.8735 H   0  0  0  0  0  0  0  0  0  0  0  0
    2.7388   -5.4744   35.9359 H   0  0  0  0  0  0  0  0  0  0  0  0
    3.6267   -3.5967   33.1254 H   0  0  0  0  0  0  0  0  0  0  0  0
    2.6908   -5.1272   32.9338 H   0  0  0  0  0  0  0  0  0  0  0  0
    3.9014   -4.9250   34.1678 H   0  0  0  0  0  0  0  0  0  0  0  0
  1  2  1  0
  2  3  1  0
  3  4  1  0
  4  5  1  0
  5  6  1  0
  6  7  1  0
  7  8  1  0
  8  9  1  0
  9 10  1  0
 10 11  1  0
  7 12  1  0
 12 13  1  0
 12 14  1  0
 14 15  1  0
 15 16  1  0
 16 17  2  0
 17 18  1  0
 18 19  1  0
 12 20  1  0
 20 21  1  0
 21 22  2  0
 22 23  1  0
 23 24  1  0
 23 25  2  0
 25 26  1  0
 26 27  2  0
 27 28  1  0
 20  4  1  0
 27 21  1  0
 19 15  2  0
  1 29  1  0
  1 30  1  0
  1 31  1  0
  2 32  1  0
  2 33  1  0
  3 34  1  0
  3 35  1  0
  4 36  1  0
  5 37  1  0
  6 38  1  0
  6 39  1  0
  7 40  1  0
  8 41  1  0
  8 42  1  0
  9 43  1  0
  9 44  1  0
 10 45  1  0
 11 46  1  0
 11 47  1  0
 11 48  1  0
 13 49  1  0
 14 50  1  0
 16 51  1  0
 18 52  1  0
 19 53  1  0
 22 54  1  0
 25 55  1  0
 26 56  1  0
 28 57  1  0
 28 58  1  0
 28 59  1  0
M  END
>  <Energy>  (177) 
-100.75137317730746

>  <compound_id>  (177) 
518

>  <target_id>  (177) 
1

>  <reference_id>  (177) 
142

>  <inspiration_ids>  (177) 
[56, 142]

>  <energy_score>  (177) 
-16.964683464403493

>  <distance_score>  (177) 
1.8399519783824598

>  <path>  (177) 
/opt/xchem-fragalysis-2/maxwin/BulkDock/SCRATCH/505733/C518-P142/C518-P142.minimised.mol

>  <scratch_subdir>  (177) 
/opt/xchem-fragalysis-2/maxwin/BulkDock/SCRATCH/505733/C518-P142

>  <fragmenstein_runtime>  (177) 
4.753568887710571

>  <fragmenstein_outcome>  (177) 
too moved

>  <fragmenstein_mode>  (177) 
expansion

>  <fragmenstein_error>  (177) 


$$$$
C519-P56
     RDKit          3D

 53 57  0  0  0  0  0  0  0  0999 V2000
    3.6731   -3.3321   36.2957 C   0  0  0  0  0  0  0  0  0  0  0  0
    2.8792   -2.9246   37.2928 C   0  0  0  0  0  0  0  0  0  0  0  0
    1.9280   -3.6373   38.2085 C   0  0  0  0  0  0  0  0  0  0  0  0
    0.8694   -4.5988   37.8823 N   0  0  0  0  0  0  0  0  0  0  0  0
    0.5122   -5.3396   36.7781 C   0  0  0  0  0  0  0  0  0  0  0  0
    1.4460   -5.7756   35.4180 S   0  0  0  0  0  0  0  0  0  0  0  0
    0.2404   -5.4168   34.1916 C   0  0  0  0  0  0  0  0  0  0  0  0
   -0.0396   -4.0984   33.7346 C   0  0  0  0  0  0  0  0  0  0  0  0
    0.1519   -2.9727   34.6740 C   0  0  0  0  0  0  0  0  0  0  0  0
   -0.7209   -2.8421   35.7768 C   0  0  0  0  0  0  0  0  0  0  0  0
   -0.4652   -1.9174   36.7783 C   0  0  0  0  0  0  0  0  0  0  0  0
   -1.0804   -2.0311   37.9672 F   0  0  0  0  0  0  0  0  0  0  0  0
    0.5287   -0.9687   36.6094 C   0  0  0  0  0  0  0  0  0  0  0  0
    1.3604   -1.0359   35.4861 C   0  0  0  0  0  0  0  0  0  0  0  0
    1.2374   -2.0874   34.5608 C   0  0  0  0  0  0  0  0  0  0  0  0
    2.2971   -2.2883   33.5072 C   0  0  0  0  0  0  0  0  0  0  0  0
   -0.4994   -3.8715   32.3829 C   0  0  0  0  0  0  0  0  0  0  0  0
   -0.7458   -2.5955   31.9171 O   0  0  0  0  0  0  0  0  0  0  0  0
   -0.7350   -4.8814   31.4269 C   0  0  0  0  0  0  0  0  0  0  0  0
   -0.7175   -6.1221   32.0237 C   0  0  0  0  0  0  0  0  0  0  0  0
   -1.0677   -7.2982   31.4248 C   0  0  0  0  0  0  0  0  0  0  0  0
   -1.0791   -8.2398   32.4210 N   0  0  0  0  0  0  0  0  0  0  0  0
   -0.6041   -7.6915   33.5949 C   0  0  0  0  0  0  0  0  0  0  0  0
   -0.2812   -6.3867   33.3372 C   0  0  0  0  0  0  0  0  0  0  0  0
   -0.6649   -5.8892   36.9476 N   0  0  0  0  0  0  0  0  0  0  0  0
   -1.0429   -5.6362   38.2125 N   0  0  0  0  0  0  0  0  0  0  0  0
   -0.0470   -5.0456   38.8506 C   0  0  0  0  0  0  0  0  0  0  0  0
    0.1647   -5.2668   40.2967 C   0  0  0  0  0  0  0  0  0  0  0  0
    1.1852   -4.7468   41.0824 C   0  0  0  0  0  0  0  0  0  0  0  0
    1.5555   -5.3847   42.2747 C   0  0  0  0  0  0  0  0  0  0  0  0
    0.8605   -6.5051   42.6876 C   0  0  0  0  0  0  0  0  0  0  0  0
   -0.1947   -6.9856   42.0210 N   0  0  0  0  0  0  0  0  0  0  0  0
   -0.5314   -6.3334   40.8789 C   0  0  0  0  0  0  0  0  0  0  0  0
    4.3445   -2.6354   35.8040 H   0  0  0  0  0  0  0  0  0  0  0  0
    3.7231   -4.3567   35.9523 H   0  0  0  0  0  0  0  0  0  0  0  0
    3.0130   -1.8793   37.5739 H   0  0  0  0  0  0  0  0  0  0  0  0
    2.5381   -4.0595   38.9961 H   0  0  0  0  0  0  0  0  0  0  0  0
    1.3717   -2.8320   38.7106 H   0  0  0  0  0  0  0  0  0  0  0  0
   -1.5382   -3.5471   35.9167 H   0  0  0  0  0  0  0  0  0  0  0  0
    0.6983   -0.2220   37.3781 H   0  0  0  0  0  0  0  0  0  0  0  0
    2.1730   -0.3181   35.3894 H   0  0  0  0  0  0  0  0  0  0  0  0
    2.6498   -3.3235   33.4814 H   0  0  0  0  0  0  0  0  0  0  0  0
    1.9083   -2.0125   32.5225 H   0  0  0  0  0  0  0  0  0  0  0  0
    3.1697   -1.6548   33.7006 H   0  0  0  0  0  0  0  0  0  0  0  0
   -0.7301   -1.9892   32.6775 H   0  0  0  0  0  0  0  0  0  0  0  0
   -0.9562   -4.6466   30.4003 H   0  0  0  0  0  0  0  0  0  0  0  0
   -1.3243   -7.5208   30.4042 H   0  0  0  0  0  0  0  0  0  0  0  0
   -1.3721   -9.2026   32.3154 H   0  0  0  0  0  0  0  0  0  0  0  0
   -0.6044   -8.2584   34.5132 H   0  0  0  0  0  0  0  0  0  0  0  0
    1.7419   -3.8622   40.8051 H   0  0  0  0  0  0  0  0  0  0  0  0
    2.3697   -4.9946   42.8771 H   0  0  0  0  0  0  0  0  0  0  0  0
    1.1164   -7.0264   43.6051 H   0  0  0  0  0  0  0  0  0  0  0  0
   -1.3369   -6.8162   40.3544 H   0  0  0  0  0  0  0  0  0  0  0  0
  1  2  2  0
  2  3  1  0
  3  4  1  0
  4  5  1  0
  5  6  1  0
  6  7  1  0
  7  8  2  0
  8  9  1  0
  9 10  2  0
 10 11  1  0
 11 12  1  0
 11 13  2  0
 13 14  1  0
 14 15  2  0
 15 16  1  0
  8 17  1  0
 17 18  1  0
 17 19  2  0
 19 20  1  0
 20 21  2  0
 21 22  1  0
 22 23  1  0
 23 24  2  0
  5 25  2  0
 25 26  1  0
 26 27  2  0
 27 28  1  0
 28 29  2  0
 29 30  1  0
 30 31  2  0
 31 32  1  0
 32 33  2  0
 27  4  1  0
 33 28  1  0
 24  7  1  0
 15  9  1  0
 24 20  1  0
  1 34  1  0
  1 35  1  0
  2 36  1  0
  3 37  1  0
  3 38  1  0
 10 39  1  0
 13 40  1  0
 14 41  1  0
 16 42  1  0
 16 43  1  0
 16 44  1  0
 18 45  1  0
 19 46  1  0
 21 47  1  0
 22 48  1  0
 23 49  1  0
 29 50  1  0
 30 51  1  0
 31 52  1  0
 33 53  1  0
M  END
>  <Energy>  (178) 
156.18777144980223

>  <compound_id>  (178) 
519

>  <target_id>  (178) 
1

>  <reference_id>  (178) 
56

>  <inspiration_ids>  (178) 
[56, 144]

>  <energy_score>  (178) 
13.219160651633814

>  <distance_score>  (178) 
2.7638929243104235

>  <path>  (178) 
/opt/xchem-fragalysis-2/maxwin/BulkDock/SCRATCH/505733/C519-P56/C519-P56.minimised.mol

>  <scratch_subdir>  (178) 
/opt/xchem-fragalysis-2/maxwin/BulkDock/SCRATCH/505733/C519-P56

>  <fragmenstein_runtime>  (178) 
8.226783037185669

>  <fragmenstein_outcome>  (178) 
too moved

>  <fragmenstein_mode>  (178) 
expansion

>  <fragmenstein_error>  (178) 


$$$$
C519-P144
     RDKit          3D

 53 57  0  0  0  0  0  0  0  0999 V2000
    6.0787   -6.5582   36.5955 C   0  0  0  0  0  0  0  0  0  0  0  0
    5.3954   -5.4770   36.9986 C   0  0  0  0  0  0  0  0  0  0  0  0
    3.9101   -5.2300   36.9207 C   0  0  0  0  0  0  0  0  0  0  0  0
    3.1442   -6.3111   36.3356 N   0  0  0  0  0  0  0  0  0  0  0  0
    2.8180   -6.4747   35.0152 C   0  0  0  0  0  0  0  0  0  0  0  0
    2.6742   -5.1877   33.8421 S   0  0  0  0  0  0  0  0  0  0  0  0
    0.8847   -5.3257   33.8301 C   0  0  0  0  0  0  0  0  0  0  0  0
    0.1406   -5.1503   35.0266 C   0  0  0  0  0  0  0  0  0  0  0  0
    0.5812   -4.1566   36.0860 C   0  0  0  0  0  0  0  0  0  0  0  0
    0.4296   -4.4711   37.4562 C   0  0  0  0  0  0  0  0  0  0  0  0
    0.8380   -3.6148   38.4730 C   0  0  0  0  0  0  0  0  0  0  0  0
    0.6066   -3.9465   39.7475 F   0  0  0  0  0  0  0  0  0  0  0  0
    1.4853   -2.4339   38.1858 C   0  0  0  0  0  0  0  0  0  0  0  0
    1.6641   -2.0822   36.8560 C   0  0  0  0  0  0  0  0  0  0  0  0
    1.1800   -2.8977   35.8052 C   0  0  0  0  0  0  0  0  0  0  0  0
    1.3517   -2.3180   34.4239 C   0  0  0  0  0  0  0  0  0  0  0  0
   -0.9767   -6.0534   35.2437 C   0  0  0  0  0  0  0  0  0  0  0  0
   -1.7330   -5.8505   36.3651 O   0  0  0  0  0  0  0  0  0  0  0  0
   -1.4712   -7.0944   34.4074 C   0  0  0  0  0  0  0  0  0  0  0  0
   -0.8711   -6.9761   33.1810 C   0  0  0  0  0  0  0  0  0  0  0  0
   -1.2362   -7.6560   32.0508 C   0  0  0  0  0  0  0  0  0  0  0  0
   -0.4443   -7.1706   31.0380 N   0  0  0  0  0  0  0  0  0  0  0  0
    0.4470   -6.2359   31.5349 C   0  0  0  0  0  0  0  0  0  0  0  0
    0.2268   -6.1303   32.8832 C   0  0  0  0  0  0  0  0  0  0  0  0
    2.2534   -7.6455   34.8388 N   0  0  0  0  0  0  0  0  0  0  0  0
    1.9444   -8.1167   36.0691 N   0  0  0  0  0  0  0  0  0  0  0  0
    2.4514   -7.3157   36.9867 C   0  0  0  0  0  0  0  0  0  0  0  0
    2.2269   -7.4968   38.4121 C   0  0  0  0  0  0  0  0  0  0  0  0
    3.2462   -7.4366   39.3576 C   0  0  0  0  0  0  0  0  0  0  0  0
    2.9538   -7.6680   40.6999 C   0  0  0  0  0  0  0  0  0  0  0  0
    1.6441   -7.9437   41.0585 C   0  0  0  0  0  0  0  0  0  0  0  0
    0.6311   -8.0196   40.1772 N   0  0  0  0  0  0  0  0  0  0  0  0
    0.9512   -7.8256   38.8741 C   0  0  0  0  0  0  0  0  0  0  0  0
    7.1591   -6.6015   36.7083 H   0  0  0  0  0  0  0  0  0  0  0  0
    5.6045   -7.4250   36.1432 H   0  0  0  0  0  0  0  0  0  0  0  0
    5.9639   -4.6573   37.4373 H   0  0  0  0  0  0  0  0  0  0  0  0
    3.5214   -5.0316   37.9233 H   0  0  0  0  0  0  0  0  0  0  0  0
    3.7431   -4.3238   36.3335 H   0  0  0  0  0  0  0  0  0  0  0  0
   -0.0105   -5.4101   37.7800 H   0  0  0  0  0  0  0  0  0  0  0  0
    1.8143   -1.7840   38.9895 H   0  0  0  0  0  0  0  0  0  0  0  0
    2.1442   -1.1307   36.6285 H   0  0  0  0  0  0  0  0  0  0  0  0
    2.3876   -2.3941   34.0847 H   0  0  0  0  0  0  0  0  0  0  0  0
    0.6696   -2.7511   33.6892 H   0  0  0  0  0  0  0  0  0  0  0  0
    1.0965   -1.2505   34.4449 H   0  0  0  0  0  0  0  0  0  0  0  0
   -1.8768   -4.8852   36.3799 H   0  0  0  0  0  0  0  0  0  0  0  0
   -2.2807   -7.7563   34.6647 H   0  0  0  0  0  0  0  0  0  0  0  0
   -1.9905   -8.4128   31.8916 H   0  0  0  0  0  0  0  0  0  0  0  0
   -0.4821   -7.4674   30.0718 H   0  0  0  0  0  0  0  0  0  0  0  0
    1.1357   -5.7331   30.8704 H   0  0  0  0  0  0  0  0  0  0  0  0
    4.2749   -7.2478   39.0689 H   0  0  0  0  0  0  0  0  0  0  0  0
    3.7320   -7.6332   41.4543 H   0  0  0  0  0  0  0  0  0  0  0  0
    1.3697   -8.1184   42.0947 H   0  0  0  0  0  0  0  0  0  0  0  0
    0.1253   -7.9557   38.1769 H   0  0  0  0  0  0  0  0  0  0  0  0
  1  2  2  0
  2  3  1  0
  3  4  1  0
  4  5  1  0
  5  6  1  0
  6  7  1  0
  7  8  2  0
  8  9  1  0
  9 10  2  0
 10 11  1  0
 11 12  1  0
 11 13  2  0
 13 14  1  0
 14 15  2  0
 15 16  1  0
  8 17  1  0
 17 18  1  0
 17 19  2  0
 19 20  1  0
 20 21  2  0
 21 22  1  0
 22 23  1  0
 23 24  2  0
  5 25  2  0
 25 26  1  0
 26 27  2  0
 27 28  1  0
 28 29  2  0
 29 30  1  0
 30 31  2  0
 31 32  1  0
 32 33  2  0
 27  4  1  0
 33 28  1  0
 24  7  1  0
 15  9  1  0
 24 20  1  0
  1 34  1  0
  1 35  1  0
  2 36  1  0
  3 37  1  0
  3 38  1  0
 10 39  1  0
 13 40  1  0
 14 41  1  0
 16 42  1  0
 16 43  1  0
 16 44  1  0
 18 45  1  0
 19 46  1  0
 21 47  1  0
 22 48  1  0
 23 49  1  0
 29 50  1  0
 30 51  1  0
 31 52  1  0
 33 53  1  0
M  END
>  <Energy>  (179) 
130.91248825337155

>  <compound_id>  (179) 
519

>  <target_id>  (179) 
1

>  <reference_id>  (179) 
144

>  <inspiration_ids>  (179) 
[56, 144]

>  <energy_score>  (179) 
-12.056122544796779

>  <distance_score>  (179) 
1.3616321794492208

>  <path>  (179) 
/opt/xchem-fragalysis-2/maxwin/BulkDock/SCRATCH/505733/C519-P144/C519-P144.minimised.mol

>  <scratch_subdir>  (179) 
/opt/xchem-fragalysis-2/maxwin/BulkDock/SCRATCH/505733/C519-P144

>  <fragmenstein_runtime>  (179) 
7.8395490646362305

>  <fragmenstein_outcome>  (179) 
too moved

>  <fragmenstein_mode>  (179) 
expansion

>  <fragmenstein_error>  (179) 


$$$$
C519-P56
     RDKit          3D

 53 57  0  0  0  0  0  0  0  0999 V2000
    1.4533   -2.4408   28.3478 C   0  0  0  0  0  0  0  0  0  0  0  0
    1.7703   -1.5592   29.3063 C   0  0  0  0  0  0  0  0  0  0  0  0
    1.0712   -1.3059   30.6137 C   0  0  0  0  0  0  0  0  0  0  0  0
   -0.1268   -2.0950   30.8452 N   0  0  0  0  0  0  0  0  0  0  0  0
   -0.2404   -3.2659   31.5529 C   0  0  0  0  0  0  0  0  0  0  0  0
    1.0757   -3.9768   32.4081 S   0  0  0  0  0  0  0  0  0  0  0  0
    0.2913   -5.2589   33.3185 C   0  0  0  0  0  0  0  0  0  0  0  0
    0.2415   -5.4066   34.7397 C   0  0  0  0  0  0  0  0  0  0  0  0
    0.7994   -4.3787   35.6734 C   0  0  0  0  0  0  0  0  0  0  0  0
   -0.0610   -3.8507   36.6651 C   0  0  0  0  0  0  0  0  0  0  0  0
    0.4308   -3.0945   37.7239 C   0  0  0  0  0  0  0  0  0  0  0  0
   -0.3748   -2.7842   38.7483 F   0  0  0  0  0  0  0  0  0  0  0  0
    1.7570   -2.7129   37.7642 C   0  0  0  0  0  0  0  0  0  0  0  0
    2.6129   -3.1492   36.7590 C   0  0  0  0  0  0  0  0  0  0  0  0
    2.1684   -4.0301   35.7491 C   0  0  0  0  0  0  0  0  0  0  0  0
    3.2293   -4.5826   34.8326 C   0  0  0  0  0  0  0  0  0  0  0  0
   -0.3813   -6.5936   35.3373 C   0  0  0  0  0  0  0  0  0  0  0  0
   -0.3403   -6.7692   36.7047 O   0  0  0  0  0  0  0  0  0  0  0  0
   -1.0397   -7.6506   34.6655 C   0  0  0  0  0  0  0  0  0  0  0  0
   -0.9186   -7.4658   33.3040 C   0  0  0  0  0  0  0  0  0  0  0  0
   -1.3161   -8.3529   32.3355 C   0  0  0  0  0  0  0  0  0  0  0  0
   -0.7962   -7.8832   31.1481 N   0  0  0  0  0  0  0  0  0  0  0  0
   -0.2367   -6.6457   31.3276 C   0  0  0  0  0  0  0  0  0  0  0  0
   -0.2764   -6.3652   32.6702 C   0  0  0  0  0  0  0  0  0  0  0  0
   -1.4724   -3.7094   31.4666 N   0  0  0  0  0  0  0  0  0  0  0  0
   -2.2019   -2.7860   30.7567 N   0  0  0  0  0  0  0  0  0  0  0  0
   -1.3964   -1.8109   30.3791 C   0  0  0  0  0  0  0  0  0  0  0  0
   -1.7815   -0.6576   29.5760 C   0  0  0  0  0  0  0  0  0  0  0  0
   -1.7865    0.6377   30.0957 C   0  0  0  0  0  0  0  0  0  0  0  0
   -2.1618    1.7069   29.2829 C   0  0  0  0  0  0  0  0  0  0  0  0
   -2.5316    1.4453   27.9721 C   0  0  0  0  0  0  0  0  0  0  0  0
   -2.5591    0.2085   27.4318 N   0  0  0  0  0  0  0  0  0  0  0  0
   -2.1897   -0.8120   28.2540 C   0  0  0  0  0  0  0  0  0  0  0  0
    2.0436   -2.4910   27.4330 H   0  0  0  0  0  0  0  0  0  0  0  0
    0.6059   -3.1155   28.4104 H   0  0  0  0  0  0  0  0  0  0  0  0
    2.6389   -0.9258   29.1254 H   0  0  0  0  0  0  0  0  0  0  0  0
    1.7697   -1.4718   31.4392 H   0  0  0  0  0  0  0  0  0  0  0  0
    0.7907   -0.2497   30.6731 H   0  0  0  0  0  0  0  0  0  0  0  0
   -1.1210   -4.1012   36.6624 H   0  0  0  0  0  0  0  0  0  0  0  0
    2.1264   -2.1120   38.5873 H   0  0  0  0  0  0  0  0  0  0  0  0
    3.6665   -2.8799   36.8133 H   0  0  0  0  0  0  0  0  0  0  0  0
    4.1519   -4.7812   35.3886 H   0  0  0  0  0  0  0  0  0  0  0  0
    3.4708   -3.8613   34.0474 H   0  0  0  0  0  0  0  0  0  0  0  0
    2.9409   -5.5384   34.3889 H   0  0  0  0  0  0  0  0  0  0  0  0
    0.2700   -6.1191   37.0938 H   0  0  0  0  0  0  0  0  0  0  0  0
   -1.4802   -8.5009   35.1639 H   0  0  0  0  0  0  0  0  0  0  0  0
   -1.8031   -9.3177   32.3871 H   0  0  0  0  0  0  0  0  0  0  0  0
   -0.7095   -8.4092   30.2881 H   0  0  0  0  0  0  0  0  0  0  0  0
    0.2073   -6.1297   30.4876 H   0  0  0  0  0  0  0  0  0  0  0  0
   -1.5121    0.8218   31.1313 H   0  0  0  0  0  0  0  0  0  0  0  0
   -2.1708    2.7217   29.6657 H   0  0  0  0  0  0  0  0  0  0  0  0
   -2.8290    2.2505   27.3062 H   0  0  0  0  0  0  0  0  0  0  0  0
   -2.2248   -1.7983   27.8010 H   0  0  0  0  0  0  0  0  0  0  0  0
  1  2  2  0
  2  3  1  0
  3  4  1  0
  4  5  1  0
  5  6  1  0
  6  7  1  0
  7  8  2  0
  8  9  1  0
  9 10  2  0
 10 11  1  0
 11 12  1  0
 11 13  2  0
 13 14  1  0
 14 15  2  0
 15 16  1  0
  8 17  1  0
 17 18  1  0
 17 19  2  0
 19 20  1  0
 20 21  2  0
 21 22  1  0
 22 23  1  0
 23 24  2  0
  5 25  2  0
 25 26  1  0
 26 27  2  0
 27 28  1  0
 28 29  2  0
 29 30  1  0
 30 31  2  0
 31 32  1  0
 32 33  2  0
 27  4  1  0
 33 28  1  0
 24  7  1  0
 15  9  1  0
 24 20  1  0
  1 34  1  0
  1 35  1  0
  2 36  1  0
  3 37  1  0
  3 38  1  0
 10 39  1  0
 13 40  1  0
 14 41  1  0
 16 42  1  0
 16 43  1  0
 16 44  1  0
 18 45  1  0
 19 46  1  0
 21 47  1  0
 22 48  1  0
 23 49  1  0
 29 50  1  0
 30 51  1  0
 31 52  1  0
 33 53  1  0
M  END
>  <Energy>  (180) 
106.20043661629347

>  <compound_id>  (180) 
519

>  <target_id>  (180) 
1

>  <reference_id>  (180) 
56

>  <inspiration_ids>  (180) 
[56, 145]

>  <energy_score>  (180) 
-36.77611345389411

>  <distance_score>  (180) 
1.5289107573114518

>  <path>  (180) 
/opt/xchem-fragalysis-2/maxwin/BulkDock/SCRATCH/505733/C519-P56/C519-P56.minimised.mol

>  <scratch_subdir>  (180) 
/opt/xchem-fragalysis-2/maxwin/BulkDock/SCRATCH/505733/C519-P56

>  <fragmenstein_runtime>  (180) 
17.119168043136597

>  <fragmenstein_outcome>  (180) 
too moved

>  <fragmenstein_mode>  (180) 
expansion

>  <fragmenstein_error>  (180) 


$$$$
C519-P145
     RDKit          3D

 53 57  0  0  0  0  0  0  0  0999 V2000
    2.8882   -0.3180   33.5952 C   0  0  0  0  0  0  0  0  0  0  0  0
    2.8935   -0.6050   32.2864 C   0  0  0  0  0  0  0  0  0  0  0  0
    1.6640   -0.9071   31.4774 C   0  0  0  0  0  0  0  0  0  0  0  0
    1.6743   -2.2686   30.9686 N   0  0  0  0  0  0  0  0  0  0  0  0
    1.2205   -3.3949   31.6163 C   0  0  0  0  0  0  0  0  0  0  0  0
    0.3175   -3.3150   33.0869 S   0  0  0  0  0  0  0  0  0  0  0  0
    0.2218   -4.9536   33.7086 C   0  0  0  0  0  0  0  0  0  0  0  0
    0.5186   -5.3491   35.0576 C   0  0  0  0  0  0  0  0  0  0  0  0
    1.0634   -4.3814   36.0352 C   0  0  0  0  0  0  0  0  0  0  0  0
    0.2652   -4.0499   37.1490 C   0  0  0  0  0  0  0  0  0  0  0  0
    0.7690   -3.2668   38.1761 C   0  0  0  0  0  0  0  0  0  0  0  0
    0.0161   -3.0399   39.2594 F   0  0  0  0  0  0  0  0  0  0  0  0
    2.0513   -2.7489   38.1068 C   0  0  0  0  0  0  0  0  0  0  0  0
    2.8507   -3.0420   37.0022 C   0  0  0  0  0  0  0  0  0  0  0  0
    2.3838   -3.8821   35.9741 C   0  0  0  0  0  0  0  0  0  0  0  0
    3.3239   -4.2035   34.8415 C   0  0  0  0  0  0  0  0  0  0  0  0
    0.2428   -6.6934   35.5470 C   0  0  0  0  0  0  0  0  0  0  0  0
    0.6536   -7.0873   36.8070 O   0  0  0  0  0  0  0  0  0  0  0  0
   -0.4340   -7.6969   34.8350 C   0  0  0  0  0  0  0  0  0  0  0  0
   -0.6629   -7.2924   33.5331 C   0  0  0  0  0  0  0  0  0  0  0  0
   -1.1854   -8.0562   32.5204 C   0  0  0  0  0  0  0  0  0  0  0  0
   -0.9938   -7.3426   31.3681 N   0  0  0  0  0  0  0  0  0  0  0  0
   -0.6766   -6.0499   31.6690 C   0  0  0  0  0  0  0  0  0  0  0  0
   -0.3402   -6.0152   32.9962 C   0  0  0  0  0  0  0  0  0  0  0  0
    1.5382   -4.4523   30.9116 N   0  0  0  0  0  0  0  0  0  0  0  0
    2.1703   -4.0319   29.7700 N   0  0  0  0  0  0  0  0  0  0  0  0
    2.2189   -2.7115   29.7761 C   0  0  0  0  0  0  0  0  0  0  0  0
    2.8110   -1.8972   28.7203 C   0  0  0  0  0  0  0  0  0  0  0  0
    4.0790   -2.2021   28.2174 C   0  0  0  0  0  0  0  0  0  0  0  0
    4.6324   -1.4240   27.2004 C   0  0  0  0  0  0  0  0  0  0  0  0
    3.8998   -0.3519   26.7194 C   0  0  0  0  0  0  0  0  0  0  0  0
    2.6732   -0.0256   27.1784 N   0  0  0  0  0  0  0  0  0  0  0  0
    2.1447   -0.8260   28.1345 C   0  0  0  0  0  0  0  0  0  0  0  0
    3.8137   -0.0980   34.1199 H   0  0  0  0  0  0  0  0  0  0  0  0
    1.9715   -0.2991   34.1786 H   0  0  0  0  0  0  0  0  0  0  0  0
    3.8434   -0.6039   31.7540 H   0  0  0  0  0  0  0  0  0  0  0  0
    0.7443   -0.7538   32.0509 H   0  0  0  0  0  0  0  0  0  0  0  0
    1.6057   -0.2107   30.6391 H   0  0  0  0  0  0  0  0  0  0  0  0
   -0.7474   -4.4357   37.2444 H   0  0  0  0  0  0  0  0  0  0  0  0
    2.4257   -2.1299   38.9160 H   0  0  0  0  0  0  0  0  0  0  0  0
    3.8593   -2.6341   36.9605 H   0  0  0  0  0  0  0  0  0  0  0  0
    4.3583   -4.2347   35.2023 H   0  0  0  0  0  0  0  0  0  0  0  0
    3.2597   -3.4407   34.0621 H   0  0  0  0  0  0  0  0  0  0  0  0
    3.1239   -5.1869   34.4070 H   0  0  0  0  0  0  0  0  0  0  0  0
    1.2518   -6.4234   37.1899 H   0  0  0  0  0  0  0  0  0  0  0  0
   -0.6583   -8.6554   35.2687 H   0  0  0  0  0  0  0  0  0  0  0  0
   -1.5683   -9.0607   32.4817 H   0  0  0  0  0  0  0  0  0  0  0  0
   -1.0356   -7.6936   30.4269 H   0  0  0  0  0  0  0  0  0  0  0  0
   -0.6208   -5.3208   30.8746 H   0  0  0  0  0  0  0  0  0  0  0  0
    4.6344   -3.0523   28.6074 H   0  0  0  0  0  0  0  0  0  0  0  0
    5.6084   -1.6525   26.7875 H   0  0  0  0  0  0  0  0  0  0  0  0
    4.2803    0.2789   25.9194 H   0  0  0  0  0  0  0  0  0  0  0  0
    1.1242   -0.5697   28.4069 H   0  0  0  0  0  0  0  0  0  0  0  0
  1  2  2  0
  2  3  1  0
  3  4  1  0
  4  5  1  0
  5  6  1  0
  6  7  1  0
  7  8  2  0
  8  9  1  0
  9 10  2  0
 10 11  1  0
 11 12  1  0
 11 13  2  0
 13 14  1  0
 14 15  2  0
 15 16  1  0
  8 17  1  0
 17 18  1  0
 17 19  2  0
 19 20  1  0
 20 21  2  0
 21 22  1  0
 22 23  1  0
 23 24  2  0
  5 25  2  0
 25 26  1  0
 26 27  2  0
 27 28  1  0
 28 29  2  0
 29 30  1  0
 30 31  2  0
 31 32  1  0
 32 33  2  0
 27  4  1  0
 33 28  1  0
 24  7  1  0
 15  9  1  0
 24 20  1  0
  1 34  1  0
  1 35  1  0
  2 36  1  0
  3 37  1  0
  3 38  1  0
 10 39  1  0
 13 40  1  0
 14 41  1  0
 16 42  1  0
 16 43  1  0
 16 44  1  0
 18 45  1  0
 19 46  1  0
 21 47  1  0
 22 48  1  0
 23 49  1  0
 29 50  1  0
 30 51  1  0
 31 52  1  0
 33 53  1  0
M  END
>  <Energy>  (181) 
103.89864103261392

>  <compound_id>  (181) 
519

>  <target_id>  (181) 
1

>  <reference_id>  (181) 
145

>  <inspiration_ids>  (181) 
[56, 145]

>  <energy_score>  (181) 
-39.077909037577115

>  <distance_score>  (181) 
1.2972214627173269

>  <path>  (181) 
/opt/xchem-fragalysis-2/maxwin/BulkDock/SCRATCH/505733/C519-P145/C519-P145.minimised.mol

>  <scratch_subdir>  (181) 
/opt/xchem-fragalysis-2/maxwin/BulkDock/SCRATCH/505733/C519-P145

>  <fragmenstein_runtime>  (181) 
18.10499668121338

>  <fragmenstein_outcome>  (181) 
too moved

>  <fragmenstein_mode>  (181) 
expansion

>  <fragmenstein_error>  (181) 


$$$$
C520-P56
     RDKit          3D

 57 59  0  0  0  0  0  0  0  0999 V2000
    1.0998   -3.2354   27.8292 C   0  0  0  0  0  0  0  0  0  0  0  0
    1.3485   -1.9237   28.4745 C   0  0  0  0  0  0  0  0  0  0  0  0
    1.4215   -2.0071   29.9788 C   0  0  0  0  0  0  0  0  0  0  0  0
    2.5698   -2.8921   30.4391 C   0  0  0  0  0  0  0  0  0  0  0  0
    2.4695   -2.7723   31.9338 C   0  0  0  0  0  0  0  0  0  0  0  0
    0.9636   -2.7770   32.2569 C   0  0  0  0  0  0  0  0  0  0  0  0
    0.6684   -4.0427   33.0874 C   0  0  0  0  0  0  0  0  0  0  0  0
    1.3576   -4.3347   34.4258 C   0  0  0  0  0  0  0  0  0  0  0  0
    1.1617   -5.7332   34.8644 N   0  0  0  0  0  0  0  0  0  0  0  0
   -0.1993   -6.0760   35.2350 C   0  0  0  0  0  0  0  0  0  0  0  0
    0.1970   -2.5012   30.8129 C   0  0  0  0  0  0  0  0  0  0  0  0
   -0.7886   -1.3142   30.8884 N   0  0  0  0  0  0  0  0  0  0  0  0
   -0.8868   -0.2459   29.9437 C   0  0  0  0  0  0  0  0  0  0  0  0
   -0.2269    0.9752   30.1744 C   0  0  0  0  0  0  0  0  0  0  0  0
   -0.2893    2.0415   29.2602 C   0  0  0  0  0  0  0  0  0  0  0  0
    0.3616    3.1767   29.5488 F   0  0  0  0  0  0  0  0  0  0  0  0
   -1.0262    1.9578   28.0912 C   0  0  0  0  0  0  0  0  0  0  0  0
   -1.6777    0.7628   27.8217 C   0  0  0  0  0  0  0  0  0  0  0  0
   -1.6024   -0.3322   28.7298 C   0  0  0  0  0  0  0  0  0  0  0  0
   -2.2107   -1.6272   28.3071 C   0  0  0  0  0  0  0  0  0  0  0  0
   -0.4805   -3.6422   30.2045 O   0  0  0  0  0  0  0  0  0  0  0  0
   -0.5385   -4.9671   30.5609 C   0  0  0  0  0  0  0  0  0  0  0  0
   -0.2190   -5.9101   29.5996 C   0  0  0  0  0  0  0  0  0  0  0  0
   -0.5106   -7.2626   29.7942 C   0  0  0  0  0  0  0  0  0  0  0  0
   -1.1178   -7.7751   30.8824 N   0  0  0  0  0  0  0  0  0  0  0  0
   -1.4168   -6.8757   31.8234 C   0  0  0  0  0  0  0  0  0  0  0  0
   -1.2078   -5.4978   31.6666 C   0  0  0  0  0  0  0  0  0  0  0  0
    1.6072   -3.2015   26.8756 H   0  0  0  0  0  0  0  0  0  0  0  0
    0.0499   -3.4840   27.7284 H   0  0  0  0  0  0  0  0  0  0  0  0
    1.5870   -4.0561   28.3462 H   0  0  0  0  0  0  0  0  0  0  0  0
    0.6618   -1.1769   28.0907 H   0  0  0  0  0  0  0  0  0  0  0  0
    2.3297   -1.5650   28.1289 H   0  0  0  0  0  0  0  0  0  0  0  0
    1.6873   -0.9942   30.3180 H   0  0  0  0  0  0  0  0  0  0  0  0
    3.5413   -2.5432   30.0743 H   0  0  0  0  0  0  0  0  0  0  0  0
    2.4572   -3.9431   30.1586 H   0  0  0  0  0  0  0  0  0  0  0  0
    2.9075   -1.8216   32.2644 H   0  0  0  0  0  0  0  0  0  0  0  0
    3.0493   -3.5675   32.4090 H   0  0  0  0  0  0  0  0  0  0  0  0
    0.7740   -1.9145   32.9098 H   0  0  0  0  0  0  0  0  0  0  0  0
    0.9273   -4.9025   32.4706 H   0  0  0  0  0  0  0  0  0  0  0  0
   -0.3788   -3.9561   33.3624 H   0  0  0  0  0  0  0  0  0  0  0  0
    1.0000   -3.6432   35.1979 H   0  0  0  0  0  0  0  0  0  0  0  0
    2.4365   -4.1734   34.3521 H   0  0  0  0  0  0  0  0  0  0  0  0
    1.5102   -6.3685   34.1352 H   0  0  0  0  0  0  0  0  0  0  0  0
   -0.2326   -7.1175   35.5704 H   0  0  0  0  0  0  0  0  0  0  0  0
   -0.5416   -5.4556   36.0695 H   0  0  0  0  0  0  0  0  0  0  0  0
   -0.9027   -5.9710   34.4138 H   0  0  0  0  0  0  0  0  0  0  0  0
   -0.6797   -0.8933   31.8078 H   0  0  0  0  0  0  0  0  0  0  0  0
    0.3652    1.1176   31.0736 H   0  0  0  0  0  0  0  0  0  0  0  0
   -1.0779    2.8005   27.4114 H   0  0  0  0  0  0  0  0  0  0  0  0
   -2.2366    0.6569   26.8944 H   0  0  0  0  0  0  0  0  0  0  0  0
   -1.4820   -2.1783   27.7276 H   0  0  0  0  0  0  0  0  0  0  0  0
   -2.5079   -2.2422   29.1586 H   0  0  0  0  0  0  0  0  0  0  0  0
   -3.0847   -1.4651   27.6740 H   0  0  0  0  0  0  0  0  0  0  0  0
    0.1435   -5.6052   28.6308 H   0  0  0  0  0  0  0  0  0  0  0  0
   -0.2715   -7.9860   29.0176 H   0  0  0  0  0  0  0  0  0  0  0  0
   -1.9104   -7.2700   32.7054 H   0  0  0  0  0  0  0  0  0  0  0  0
   -1.6516   -4.8409   32.3961 H   0  0  0  0  0  0  0  0  0  0  0  0
  1  2  1  0
  2  3  1  0
  3  4  1  0
  4  5  1  0
  5  6  1  0
  6  7  1  0
  7  8  1  0
  8  9  1  0
  9 10  1  0
  6 11  1  0
 11 12  1  0
 12 13  1  0
 13 14  2  0
 14 15  1  0
 15 16  1  0
 15 17  2  0
 17 18  1  0
 18 19  2  0
 19 20  1  0
 11 21  1  0
 21 22  1  0
 22 23  2  0
 23 24  1  0
 24 25  2  0
 25 26  1  0
 26 27  2  0
 11  3  1  0
 19 13  1  0
 27 22  1  0
  1 28  1  0
  1 29  1  0
  1 30  1  0
  2 31  1  0
  2 32  1  0
  3 33  1  0
  4 34  1  0
  4 35  1  0
  5 36  1  0
  5 37  1  0
  6 38  1  0
  7 39  1  0
  7 40  1  0
  8 41  1  0
  8 42  1  0
  9 43  1  0
 10 44  1  0
 10 45  1  0
 10 46  1  0
 12 47  1  0
 14 48  1  0
 17 49  1  0
 18 50  1  0
 20 51  1  0
 20 52  1  0
 20 53  1  0
 23 54  1  0
 24 55  1  0
 26 56  1  0
 27 57  1  0
M  END
>  <Energy>  (182) 
110.37255885997467

>  <compound_id>  (182) 
520

>  <target_id>  (182) 
1

>  <reference_id>  (182) 
56

>  <inspiration_ids>  (182) 
[56, 147]

>  <energy_score>  (182) 
5.468954260632415

>  <distance_score>  (182) 
2.4275659545934856

>  <path>  (182) 
/opt/xchem-fragalysis-2/maxwin/BulkDock/SCRATCH/505733/C520-P56/C520-P56.minimised.mol

>  <scratch_subdir>  (182) 
/opt/xchem-fragalysis-2/maxwin/BulkDock/SCRATCH/505733/C520-P56

>  <fragmenstein_runtime>  (182) 
15.275836944580078

>  <fragmenstein_outcome>  (182) 
too moved

>  <fragmenstein_mode>  (182) 
expansion

>  <fragmenstein_error>  (182) 


$$$$
C520-P147
     RDKit          3D

 57 59  0  0  0  0  0  0  0  0999 V2000
   -1.5457   -1.9480   28.0541 C   0  0  0  0  0  0  0  0  0  0  0  0
   -0.7808   -3.1882   28.5052 C   0  0  0  0  0  0  0  0  0  0  0  0
    0.5648   -2.8807   29.1559 C   0  0  0  0  0  0  0  0  0  0  0  0
    1.7587   -3.8065   28.9189 C   0  0  0  0  0  0  0  0  0  0  0  0
    2.7389   -3.4174   30.0118 C   0  0  0  0  0  0  0  0  0  0  0  0
    1.9055   -3.1456   31.2727 C   0  0  0  0  0  0  0  0  0  0  0  0
    2.0550   -4.3238   32.3007 C   0  0  0  0  0  0  0  0  0  0  0  0
    1.4782   -4.0269   33.7025 C   0  0  0  0  0  0  0  0  0  0  0  0
    1.1908   -5.1101   34.6511 N   0  0  0  0  0  0  0  0  0  0  0  0
    1.6170   -6.4500   34.3303 C   0  0  0  0  0  0  0  0  0  0  0  0
    0.4905   -2.7095   30.6881 C   0  0  0  0  0  0  0  0  0  0  0  0
    0.3193   -1.2273   30.9997 N   0  0  0  0  0  0  0  0  0  0  0  0
    0.0987   -0.1618   30.0982 C   0  0  0  0  0  0  0  0  0  0  0  0
    1.1093    0.3576   29.2742 C   0  0  0  0  0  0  0  0  0  0  0  0
    0.8487    1.3447   28.3074 C   0  0  0  0  0  0  0  0  0  0  0  0
    1.8594    1.7933   27.5490 F   0  0  0  0  0  0  0  0  0  0  0  0
   -0.4269    1.8361   28.1006 C   0  0  0  0  0  0  0  0  0  0  0  0
   -1.4439    1.3538   28.9134 C   0  0  0  0  0  0  0  0  0  0  0  0
   -1.1805    0.4047   29.9434 C   0  0  0  0  0  0  0  0  0  0  0  0
   -2.2525   -0.0208   30.9102 C   0  0  0  0  0  0  0  0  0  0  0  0
   -0.5912   -3.4594   31.3555 O   0  0  0  0  0  0  0  0  0  0  0  0
   -0.6810   -4.8380   31.4605 C   0  0  0  0  0  0  0  0  0  0  0  0
   -0.3778   -5.7875   30.4967 C   0  0  0  0  0  0  0  0  0  0  0  0
   -0.5406   -7.1519   30.7461 C   0  0  0  0  0  0  0  0  0  0  0  0
   -1.0059   -7.6548   31.8973 N   0  0  0  0  0  0  0  0  0  0  0  0
   -1.3063   -6.7434   32.8371 C   0  0  0  0  0  0  0  0  0  0  0  0
   -1.1768   -5.3611   32.6546 C   0  0  0  0  0  0  0  0  0  0  0  0
   -2.3005   -2.1372   27.2938 H   0  0  0  0  0  0  0  0  0  0  0  0
   -2.1224   -1.5679   28.8855 H   0  0  0  0  0  0  0  0  0  0  0  0
   -0.8871   -1.1844   27.6416 H   0  0  0  0  0  0  0  0  0  0  0  0
   -0.6166   -3.8800   27.6873 H   0  0  0  0  0  0  0  0  0  0  0  0
   -1.4528   -3.7148   29.1762 H   0  0  0  0  0  0  0  0  0  0  0  0
    0.9309   -1.9794   28.6645 H   0  0  0  0  0  0  0  0  0  0  0  0
    2.2034   -3.6416   27.9318 H   0  0  0  0  0  0  0  0  0  0  0  0
    1.5613   -4.8699   28.9849 H   0  0  0  0  0  0  0  0  0  0  0  0
    3.2574   -2.4958   29.7170 H   0  0  0  0  0  0  0  0  0  0  0  0
    3.5082   -4.1828   30.1535 H   0  0  0  0  0  0  0  0  0  0  0  0
    2.3650   -2.2783   31.7688 H   0  0  0  0  0  0  0  0  0  0  0  0
    1.7088   -5.2613   31.8727 H   0  0  0  0  0  0  0  0  0  0  0  0
    3.1320   -4.4936   32.4468 H   0  0  0  0  0  0  0  0  0  0  0  0
    0.5822   -3.4036   33.6209 H   0  0  0  0  0  0  0  0  0  0  0  0
    2.2007   -3.3705   34.2056 H   0  0  0  0  0  0  0  0  0  0  0  0
    0.2190   -5.0854   34.9490 H   0  0  0  0  0  0  0  0  0  0  0  0
    2.7103   -6.5030   34.3120 H   0  0  0  0  0  0  0  0  0  0  0  0
    1.2786   -7.1421   35.1082 H   0  0  0  0  0  0  0  0  0  0  0  0
    1.2481   -6.8179   33.3754 H   0  0  0  0  0  0  0  0  0  0  0  0
   -0.3197   -1.1795   31.7868 H   0  0  0  0  0  0  0  0  0  0  0  0
    2.1262   -0.0116   29.3687 H   0  0  0  0  0  0  0  0  0  0  0  0
   -0.6200    2.5762   27.3330 H   0  0  0  0  0  0  0  0  0  0  0  0
   -2.4443    1.7447   28.7567 H   0  0  0  0  0  0  0  0  0  0  0  0
   -3.2264    0.3040   30.5770 H   0  0  0  0  0  0  0  0  0  0  0  0
   -2.3160   -1.1087   31.0107 H   0  0  0  0  0  0  0  0  0  0  0  0
   -2.0590    0.4081   31.8983 H   0  0  0  0  0  0  0  0  0  0  0  0
   -0.1196   -5.5157   29.4927 H   0  0  0  0  0  0  0  0  0  0  0  0
   -0.3107   -7.8893   29.9823 H   0  0  0  0  0  0  0  0  0  0  0  0
   -1.6497   -7.1482   33.7848 H   0  0  0  0  0  0  0  0  0  0  0  0
   -1.4362   -4.6849   33.4618 H   0  0  0  0  0  0  0  0  0  0  0  0
  1  2  1  0
  2  3  1  0
  3  4  1  0
  4  5  1  0
  5  6  1  0
  6  7  1  0
  7  8  1  0
  8  9  1  0
  9 10  1  0
  6 11  1  0
 11 12  1  0
 12 13  1  0
 13 14  2  0
 14 15  1  0
 15 16  1  0
 15 17  2  0
 17 18  1  0
 18 19  2  0
 19 20  1  0
 11 21  1  0
 21 22  1  0
 22 23  2  0
 23 24  1  0
 24 25  2  0
 25 26  1  0
 26 27  2  0
 11  3  1  0
 19 13  1  0
 27 22  1  0
  1 28  1  0
  1 29  1  0
  1 30  1  0
  2 31  1  0
  2 32  1  0
  3 33  1  0
  4 34  1  0
  4 35  1  0
  5 36  1  0
  5 37  1  0
  6 38  1  0
  7 39  1  0
  7 40  1  0
  8 41  1  0
  8 42  1  0
  9 43  1  0
 10 44  1  0
 10 45  1  0
 10 46  1  0
 12 47  1  0
 14 48  1  0
 17 49  1  0
 18 50  1  0
 20 51  1  0
 20 52  1  0
 20 53  1  0
 23 54  1  0
 24 55  1  0
 26 56  1  0
 27 57  1  0
M  END
>  <Energy>  (183) 
101.60879165338598

>  <compound_id>  (183) 
520

>  <target_id>  (183) 
1

>  <reference_id>  (183) 
147

>  <inspiration_ids>  (183) 
[56, 147]

>  <energy_score>  (183) 
-3.294812945953197

>  <distance_score>  (183) 
2.2307458714892285

>  <path>  (183) 
/opt/xchem-fragalysis-2/maxwin/BulkDock/SCRATCH/505733/C520-P147/C520-P147.minimised.mol

>  <scratch_subdir>  (183) 
/opt/xchem-fragalysis-2/maxwin/BulkDock/SCRATCH/505733/C520-P147

>  <fragmenstein_runtime>  (183) 
16.783121347427368

>  <fragmenstein_outcome>  (183) 
too moved

>  <fragmenstein_mode>  (183) 
expansion

>  <fragmenstein_error>  (183) 


$$$$
C521-P56
     RDKit          3D

 60 62  0  0  0  0  0  0  0  0999 V2000
    0.3337   -7.6063   33.3893 C   0  0  0  0  0  0  0  0  0  0  0  0
   -0.5800   -6.5730   33.9366 C   0  0  0  0  0  0  0  0  0  0  0  0
   -1.4788   -7.3804   34.8245 C   0  0  0  0  0  0  0  0  0  0  0  0
   -2.2524   -8.4116   33.9179 C   0  0  0  0  0  0  0  0  0  0  0  0
   -2.1516   -8.3924   32.3188 C   0  0  0  0  0  0  0  0  0  0  0  0
   -2.0118   -7.1628   31.5128 N   0  0  0  0  0  0  0  0  0  0  0  0
   -0.7408   -6.6026   30.9884 C   0  0  0  0  0  0  0  0  0  0  0  0
   -0.3602   -5.1378   31.4851 C   0  0  0  0  0  0  0  0  0  0  0  0
    0.6158   -4.8176   32.6906 C   0  0  0  0  0  0  0  0  0  0  0  0
    0.3746   -5.4023   34.1617 C   0  0  0  0  0  0  0  0  0  0  0  0
    1.6349   -5.8345   34.6899 O   0  0  0  0  0  0  0  0  0  0  0  0
   -0.2087   -4.4728   35.0893 N   0  0  0  0  0  0  0  0  0  0  0  0
    0.6000   -4.0304   36.2272 C   0  0  0  0  0  0  0  0  0  0  0  0
   -0.3745   -3.8238   37.3962 C   0  0  0  0  0  0  0  0  0  0  0  0
    0.4047   -3.6003   38.6800 C   0  0  0  0  0  0  0  0  0  0  0  0
   -0.4714   -3.4040   39.7009 F   0  0  0  0  0  0  0  0  0  0  0  0
    1.3016   -2.3852   38.5772 C   0  0  0  0  0  0  0  0  0  0  0  0
    2.2443   -2.4743   37.3856 C   0  0  0  0  0  0  0  0  0  0  0  0
    1.5517   -2.7908   36.0188 C   0  0  0  0  0  0  0  0  0  0  0  0
    2.6970   -3.0874   35.0119 C   0  0  0  0  0  0  0  0  0  0  0  0
    3.5912   -1.8712   34.7356 C   0  0  0  0  0  0  0  0  0  0  0  0
    2.8711   -0.5992   34.6457 N   0  0  0  0  0  0  0  0  0  0  0  0
    1.4515   -0.7820   34.3818 C   0  0  0  0  0  0  0  0  0  0  0  0
    0.7649   -1.5345   35.5277 C   0  0  0  0  0  0  0  0  0  0  0  0
    0.9853   -7.8127   34.2309 H   0  0  0  0  0  0  0  0  0  0  0  0
    0.9159   -7.2324   32.5623 H   0  0  0  0  0  0  0  0  0  0  0  0
   -0.0477   -8.5696   33.1045 H   0  0  0  0  0  0  0  0  0  0  0  0
   -1.3357   -6.1247   33.3089 H   0  0  0  0  0  0  0  0  0  0  0  0
   -2.1854   -6.7228   35.3274 H   0  0  0  0  0  0  0  0  0  0  0  0
   -0.9345   -7.9058   35.6183 H   0  0  0  0  0  0  0  0  0  0  0  0
   -3.3036   -8.3983   34.2239 H   0  0  0  0  0  0  0  0  0  0  0  0
   -1.9155   -9.4129   34.2230 H   0  0  0  0  0  0  0  0  0  0  0  0
   -1.4756   -9.1688   31.9452 H   0  0  0  0  0  0  0  0  0  0  0  0
   -3.1321   -8.8013   32.0371 H   0  0  0  0  0  0  0  0  0  0  0  0
   -2.6385   -7.2512   30.7259 H   0  0  0  0  0  0  0  0  0  0  0  0
   -0.9285   -6.4711   29.9128 H   0  0  0  0  0  0  0  0  0  0  0  0
    0.0726   -7.3227   30.9417 H   0  0  0  0  0  0  0  0  0  0  0  0
    0.0915   -4.6409   30.6141 H   0  0  0  0  0  0  0  0  0  0  0  0
   -1.2908   -4.5836   31.6622 H   0  0  0  0  0  0  0  0  0  0  0  0
    1.6279   -5.0832   32.3560 H   0  0  0  0  0  0  0  0  0  0  0  0
    0.6312   -3.7220   32.7630 H   0  0  0  0  0  0  0  0  0  0  0  0
    2.1718   -6.2391   33.9815 H   0  0  0  0  0  0  0  0  0  0  0  0
   -0.8324   -3.7895   34.6749 H   0  0  0  0  0  0  0  0  0  0  0  0
    1.2297   -4.8575   36.5743 H   0  0  0  0  0  0  0  0  0  0  0  0
   -1.0142   -4.7063   37.5314 H   0  0  0  0  0  0  0  0  0  0  0  0
   -1.0559   -2.9834   37.2140 H   0  0  0  0  0  0  0  0  0  0  0  0
    0.9925   -4.4876   38.9332 H   0  0  0  0  0  0  0  0  0  0  0  0
    1.8810   -2.2816   39.5024 H   0  0  0  0  0  0  0  0  0  0  0  0
    0.6861   -1.4801   38.5169 H   0  0  0  0  0  0  0  0  0  0  0  0
    2.9826   -3.2537   37.6022 H   0  0  0  0  0  0  0  0  0  0  0  0
    2.8060   -1.5343   37.3311 H   0  0  0  0  0  0  0  0  0  0  0  0
    3.3227   -3.9157   35.3658 H   0  0  0  0  0  0  0  0  0  0  0  0
    2.2873   -3.3978   34.0529 H   0  0  0  0  0  0  0  0  0  0  0  0
    4.1323   -2.0475   33.7979 H   0  0  0  0  0  0  0  0  0  0  0  0
    4.3547   -1.7797   35.5160 H   0  0  0  0  0  0  0  0  0  0  0  0
    3.2948   -0.0161   33.9262 H   0  0  0  0  0  0  0  0  0  0  0  0
    0.9782    0.2006   34.2738 H   0  0  0  0  0  0  0  0  0  0  0  0
    1.3002   -1.3028   33.4284 H   0  0  0  0  0  0  0  0  0  0  0  0
    0.6112   -0.8331   36.3564 H   0  0  0  0  0  0  0  0  0  0  0  0
   -0.2411   -1.7987   35.1855 H   0  0  0  0  0  0  0  0  0  0  0  0
  1  2  1  0
  2  3  1  0
  3  4  1  0
  4  5  1  0
  5  6  1  0
  6  7  1  0
  7  8  1  0
  8  9  1  0
  9 10  1  0
 10 11  1  0
 10 12  1  0
 12 13  1  0
 13 14  1  0
 14 15  1  0
 15 16  1  0
 15 17  1  0
 17 18  1  0
 18 19  1  0
 19 20  1  0
 20 21  1  0
 21 22  1  0
 22 23  1  0
 23 24  1  0
 10  2  1  0
 19 13  1  0
 24 19  1  0
  1 25  1  0
  1 26  1  0
  1 27  1  0
  2 28  1  0
  3 29  1  0
  3 30  1  0
  4 31  1  0
  4 32  1  0
  5 33  1  0
  5 34  1  0
  6 35  1  0
  7 36  1  0
  7 37  1  0
  8 38  1  0
  8 39  1  0
  9 40  1  0
  9 41  1  0
 11 42  1  0
 12 43  1  0
 13 44  1  0
 14 45  1  0
 14 46  1  0
 15 47  1  0
 17 48  1  0
 17 49  1  0
 18 50  1  0
 18 51  1  0
 20 52  1  0
 20 53  1  0
 21 54  1  0
 21 55  1  0
 22 56  1  0
 23 57  1  0
 23 58  1  0
 24 59  1  0
 24 60  1  0
M  END
>  <Energy>  (184) 
108.44447330292485

>  <compound_id>  (184) 
521

>  <target_id>  (184) 
1

>  <reference_id>  (184) 
56

>  <inspiration_ids>  (184) 
[56, 148]

>  <energy_score>  (184) 
-17.82730875304216

>  <distance_score>  (184) 
1.2427818827454618

>  <path>  (184) 
/opt/xchem-fragalysis-2/maxwin/BulkDock/SCRATCH/505733/C521-P56/C521-P56.minimised.mol

>  <scratch_subdir>  (184) 
/opt/xchem-fragalysis-2/maxwin/BulkDock/SCRATCH/505733/C521-P56

>  <fragmenstein_runtime>  (184) 
3.5907766819000244

>  <fragmenstein_outcome>  (184) 
too moved

>  <fragmenstein_mode>  (184) 
expansion

>  <fragmenstein_error>  (184) 


$$$$
C521-P148
     RDKit          3D

 60 62  0  0  0  0  0  0  0  0999 V2000
   -1.1727   -5.3389   34.7851 C   0  0  0  0  0  0  0  0  0  0  0  0
    0.0444   -6.2114   34.7042 C   0  0  0  0  0  0  0  0  0  0  0  0
   -0.2444   -7.5506   34.0085 C   0  0  0  0  0  0  0  0  0  0  0  0
   -1.5497   -7.6766   33.2410 C   0  0  0  0  0  0  0  0  0  0  0  0
   -1.4638   -8.1610   31.8107 C   0  0  0  0  0  0  0  0  0  0  0  0
   -0.5474   -7.5378   30.8648 N   0  0  0  0  0  0  0  0  0  0  0  0
   -0.2827   -6.1136   31.0404 C   0  0  0  0  0  0  0  0  0  0  0  0
    1.1066   -5.8245   31.5899 C   0  0  0  0  0  0  0  0  0  0  0  0
    1.1230   -4.8286   32.7362 C   0  0  0  0  0  0  0  0  0  0  0  0
    1.2456   -5.4194   34.1715 C   0  0  0  0  0  0  0  0  0  0  0  0
    2.3797   -6.2649   34.2265 O   0  0  0  0  0  0  0  0  0  0  0  0
    1.5080   -4.2230   34.9527 N   0  0  0  0  0  0  0  0  0  0  0  0
    1.9152   -4.3045   36.3470 C   0  0  0  0  0  0  0  0  0  0  0  0
    0.7210   -4.1186   37.3092 C   0  0  0  0  0  0  0  0  0  0  0  0
    1.1371   -4.1000   38.7679 C   0  0  0  0  0  0  0  0  0  0  0  0
    0.0528   -3.7733   39.5219 F   0  0  0  0  0  0  0  0  0  0  0  0
    2.2325   -3.0927   39.0378 C   0  0  0  0  0  0  0  0  0  0  0  0
    3.4160   -3.3189   38.1089 C   0  0  0  0  0  0  0  0  0  0  0  0
    3.0434   -3.2317   36.6013 C   0  0  0  0  0  0  0  0  0  0  0  0
    4.3410   -3.5627   35.8034 C   0  0  0  0  0  0  0  0  0  0  0  0
    4.4196   -3.0071   34.3841 C   0  0  0  0  0  0  0  0  0  0  0  0
    4.1279   -1.5802   34.3482 N   0  0  0  0  0  0  0  0  0  0  0  0
    2.7781   -1.3211   34.8363 C   0  0  0  0  0  0  0  0  0  0  0  0
    2.6204   -1.7608   36.2917 C   0  0  0  0  0  0  0  0  0  0  0  0
   -1.4464   -4.9487   33.8042 H   0  0  0  0  0  0  0  0  0  0  0  0
   -1.0585   -4.4589   35.4186 H   0  0  0  0  0  0  0  0  0  0  0  0
   -1.9781   -5.9150   35.2461 H   0  0  0  0  0  0  0  0  0  0  0  0
    0.3051   -6.5088   35.7301 H   0  0  0  0  0  0  0  0  0  0  0  0
   -0.2869   -8.2903   34.8169 H   0  0  0  0  0  0  0  0  0  0  0  0
    0.5996   -7.8356   33.3927 H   0  0  0  0  0  0  0  0  0  0  0  0
   -2.0808   -6.7370   33.1923 H   0  0  0  0  0  0  0  0  0  0  0  0
   -2.2265   -8.3369   33.7943 H   0  0  0  0  0  0  0  0  0  0  0  0
   -1.2960   -9.2360   31.7775 H   0  0  0  0  0  0  0  0  0  0  0  0
   -2.4754   -8.0206   31.4311 H   0  0  0  0  0  0  0  0  0  0  0  0
    0.3202   -8.0713   30.8201 H   0  0  0  0  0  0  0  0  0  0  0  0
   -1.0693   -5.6067   31.6036 H   0  0  0  0  0  0  0  0  0  0  0  0
   -0.3156   -5.6653   30.0400 H   0  0  0  0  0  0  0  0  0  0  0  0
    1.6150   -6.7281   31.9025 H   0  0  0  0  0  0  0  0  0  0  0  0
    1.7122   -5.4218   30.7664 H   0  0  0  0  0  0  0  0  0  0  0  0
    2.0188   -4.2181   32.5511 H   0  0  0  0  0  0  0  0  0  0  0  0
    0.2827   -4.1279   32.6535 H   0  0  0  0  0  0  0  0  0  0  0  0
    3.1166   -5.6392   34.3193 H   0  0  0  0  0  0  0  0  0  0  0  0
    0.7450   -3.5542   34.8495 H   0  0  0  0  0  0  0  0  0  0  0  0
    2.3528   -5.2901   36.5555 H   0  0  0  0  0  0  0  0  0  0  0  0
    0.0013   -4.9349   37.2096 H   0  0  0  0  0  0  0  0  0  0  0  0
    0.1642   -3.2017   37.0811 H   0  0  0  0  0  0  0  0  0  0  0  0
    1.4603   -5.1003   39.0780 H   0  0  0  0  0  0  0  0  0  0  0  0
    2.5562   -3.1816   40.0816 H   0  0  0  0  0  0  0  0  0  0  0  0
    1.8407   -2.0739   38.9380 H   0  0  0  0  0  0  0  0  0  0  0  0
    3.8506   -4.3052   38.3224 H   0  0  0  0  0  0  0  0  0  0  0  0
    4.1960   -2.5862   38.3538 H   0  0  0  0  0  0  0  0  0  0  0  0
    5.2012   -3.1456   36.3475 H   0  0  0  0  0  0  0  0  0  0  0  0
    4.5128   -4.6459   35.7847 H   0  0  0  0  0  0  0  0  0  0  0  0
    3.7647   -3.5504   33.7016 H   0  0  0  0  0  0  0  0  0  0  0  0
    5.4375   -3.1613   34.0075 H   0  0  0  0  0  0  0  0  0  0  0  0
    4.2084   -1.2411   33.3900 H   0  0  0  0  0  0  0  0  0  0  0  0
    2.5922   -0.2421   34.7790 H   0  0  0  0  0  0  0  0  0  0  0  0
    2.0340   -1.7891   34.1849 H   0  0  0  0  0  0  0  0  0  0  0  0
    3.2395   -1.0819   36.8958 H   0  0  0  0  0  0  0  0  0  0  0  0
    1.5886   -1.5699   36.6042 H   0  0  0  0  0  0  0  0  0  0  0  0
  1  2  1  0
  2  3  1  0
  3  4  1  0
  4  5  1  0
  5  6  1  0
  6  7  1  0
  7  8  1  0
  8  9  1  0
  9 10  1  0
 10 11  1  0
 10 12  1  0
 12 13  1  0
 13 14  1  0
 14 15  1  0
 15 16  1  0
 15 17  1  0
 17 18  1  0
 18 19  1  0
 19 20  1  0
 20 21  1  0
 21 22  1  0
 22 23  1  0
 23 24  1  0
 10  2  1  0
 19 13  1  0
 24 19  1  0
  1 25  1  0
  1 26  1  0
  1 27  1  0
  2 28  1  0
  3 29  1  0
  3 30  1  0
  4 31  1  0
  4 32  1  0
  5 33  1  0
  5 34  1  0
  6 35  1  0
  7 36  1  0
  7 37  1  0
  8 38  1  0
  8 39  1  0
  9 40  1  0
  9 41  1  0
 11 42  1  0
 12 43  1  0
 13 44  1  0
 14 45  1  0
 14 46  1  0
 15 47  1  0
 17 48  1  0
 17 49  1  0
 18 50  1  0
 18 51  1  0
 20 52  1  0
 20 53  1  0
 21 54  1  0
 21 55  1  0
 22 56  1  0
 23 57  1  0
 23 58  1  0
 24 59  1  0
 24 60  1  0
M  END
>  <Energy>  (185) 
23.460484802475204

>  <compound_id>  (185) 
521

>  <target_id>  (185) 
1

>  <reference_id>  (185) 
148

>  <inspiration_ids>  (185) 
[56, 148]

>  <energy_score>  (185) 
-102.81129725349248

>  <distance_score>  (185) 
1.4763648049707156

>  <path>  (185) 
/opt/xchem-fragalysis-2/maxwin/BulkDock/SCRATCH/505733/C521-P148/C521-P148.minimised.mol

>  <scratch_subdir>  (185) 
/opt/xchem-fragalysis-2/maxwin/BulkDock/SCRATCH/505733/C521-P148

>  <fragmenstein_runtime>  (185) 
4.262508869171143

>  <fragmenstein_outcome>  (185) 
too moved

>  <fragmenstein_mode>  (185) 
expansion

>  <fragmenstein_error>  (185) 


$$$$
C525-P56
     RDKit          3D

 67 71  0  0  0  0  0  0  0  0999 V2000
    2.9594   -3.3803   35.5859 C   0  0  0  0  0  0  0  0  0  0  0  0
    2.2094   -3.4558   36.8877 C   0  0  0  0  0  0  0  0  0  0  0  0
    2.5234   -2.5589   37.9123 C   0  0  0  0  0  0  0  0  0  0  0  0
    1.8058   -2.5894   39.1043 C   0  0  0  0  0  0  0  0  0  0  0  0
    0.7753   -3.5086   39.2656 C   0  0  0  0  0  0  0  0  0  0  0  0
    0.0591   -3.5028   40.3944 F   0  0  0  0  0  0  0  0  0  0  0  0
    0.4470   -4.4115   38.2725 C   0  0  0  0  0  0  0  0  0  0  0  0
    1.1732   -4.3884   37.0913 C   0  0  0  0  0  0  0  0  0  0  0  0
    0.7688   -5.1397   36.0073 N   0  0  0  0  0  0  0  0  0  0  0  0
   -0.2733   -6.2802   35.9069 C   0  0  0  0  0  0  0  0  0  0  0  0
   -0.8936   -6.8124   36.7384 O   0  0  0  0  0  0  0  0  0  0  0  0
   -0.4920   -6.5865   34.4788 C   0  0  0  0  0  0  0  0  0  0  0  0
   -0.9445   -7.7680   33.9377 C   0  0  0  0  0  0  0  0  0  0  0  0
   -1.4550   -7.7054   32.6525 C   0  0  0  0  0  0  0  0  0  0  0  0
   -1.6448   -6.5514   31.9582 N   0  0  0  0  0  0  0  0  0  0  0  0
   -1.2522   -5.3930   32.5339 C   0  0  0  0  0  0  0  0  0  0  0  0
   -1.7710   -4.1086   32.1150 N   0  0  0  0  0  0  0  0  0  0  0  0
   -0.9072   -2.9128   32.2968 C   0  0  0  0  0  0  0  0  0  0  0  0
   -1.3526   -1.7718   31.3679 C   0  0  0  0  0  0  0  0  0  0  0  0
   -0.9608   -0.1423   32.1215 S   0  0  0  0  0  0  0  0  0  0  0  0
   -0.3592    0.7663   30.6578 C   0  0  0  0  0  0  0  0  0  0  0  0
   -0.3533    2.5190   30.9934 Cl  0  0  0  0  0  0  0  0  0  0  0  0
    1.0767    0.3129   30.3112 C   0  0  0  0  0  0  0  0  0  0  0  0
    1.2967   -0.3185   29.3481 O   0  0  0  0  0  0  0  0  0  0  0  0
    2.0259    0.7492   31.4738 N   0  0  0  0  0  0  0  0  0  0  0  0
    3.4311    0.4109   31.7350 C   0  0  0  0  0  0  0  0  0  0  0  0
    3.5524   -1.1386   31.7904 C   0  0  0  0  0  0  0  0  0  0  0  0
    3.6900   -1.8665   32.8727 N   0  0  0  0  0  0  0  0  0  0  0  0
    3.2336   -3.1319   32.5652 N   0  0  0  0  0  0  0  0  0  0  0  0
    2.8438   -3.1266   31.3096 C   0  0  0  0  0  0  0  0  0  0  0  0
    1.9910   -4.0702   30.6752 C   0  0  0  0  0  0  0  0  0  0  0  0
    1.1962   -3.8694   29.5618 C   0  0  0  0  0  0  0  0  0  0  0  0
    0.3158   -4.9571   29.3180 C   0  0  0  0  0  0  0  0  0  0  0  0
    0.5575   -5.9919   30.1849 C   0  0  0  0  0  0  0  0  0  0  0  0
    1.7509   -5.6044   31.3464 S   0  0  0  0  0  0  0  0  0  0  0  0
    3.2265   -1.9506   30.7391 N   0  0  0  0  0  0  0  0  0  0  0  0
    4.0746    1.1816   32.9118 C   0  0  0  0  0  0  0  0  0  0  0  0
    4.5683    2.2198   31.8832 C   0  0  0  0  0  0  0  0  0  0  0  0
    4.4448    1.1212   30.8074 C   0  0  0  0  0  0  0  0  0  0  0  0
   -0.6371   -5.4138   33.7543 C   0  0  0  0  0  0  0  0  0  0  0  0
    2.2835   -2.9704   34.8319 H   0  0  0  0  0  0  0  0  0  0  0  0
    3.3215   -4.3664   35.2791 H   0  0  0  0  0  0  0  0  0  0  0  0
    3.8313   -2.7225   35.6633 H   0  0  0  0  0  0  0  0  0  0  0  0
    3.3229   -1.8342   37.7853 H   0  0  0  0  0  0  0  0  0  0  0  0
    2.0340   -1.8956   39.9061 H   0  0  0  0  0  0  0  0  0  0  0  0
   -0.3848   -5.0869   38.4308 H   0  0  0  0  0  0  0  0  0  0  0  0
    1.1777   -4.9730   35.0948 H   0  0  0  0  0  0  0  0  0  0  0  0
   -1.0012   -8.6804   34.5191 H   0  0  0  0  0  0  0  0  0  0  0  0
   -1.8218   -8.6032   32.1649 H   0  0  0  0  0  0  0  0  0  0  0  0
   -2.3884   -3.9711   32.9442 H   0  0  0  0  0  0  0  0  0  0  0  0
    0.1433   -3.1339   32.1416 H   0  0  0  0  0  0  0  0  0  0  0  0
   -1.0037   -2.5812   33.3398 H   0  0  0  0  0  0  0  0  0  0  0  0
   -0.8790   -1.8784   30.3884 H   0  0  0  0  0  0  0  0  0  0  0  0
   -2.4366   -1.7995   31.2142 H   0  0  0  0  0  0  0  0  0  0  0  0
   -1.0207    0.6033   29.8023 H   0  0  0  0  0  0  0  0  0  0  0  0
    1.4847    1.2232   32.1960 H   0  0  0  0  0  0  0  0  0  0  0  0
    1.1814   -2.9593   28.9730 H   0  0  0  0  0  0  0  0  0  0  0  0
   -0.4221   -4.9952   28.5263 H   0  0  0  0  0  0  0  0  0  0  0  0
    0.0808   -6.9612   30.1987 H   0  0  0  0  0  0  0  0  0  0  0  0
    2.9544   -1.6239   29.8213 H   0  0  0  0  0  0  0  0  0  0  0  0
    3.3927    1.5702   33.6740 H   0  0  0  0  0  0  0  0  0  0  0  0
    4.8924    0.6526   33.4163 H   0  0  0  0  0  0  0  0  0  0  0  0
    3.8787    3.0593   31.7378 H   0  0  0  0  0  0  0  0  0  0  0  0
    5.5751    2.6111   32.0490 H   0  0  0  0  0  0  0  0  0  0  0  0
    4.0676    1.4608   29.8382 H   0  0  0  0  0  0  0  0  0  0  0  0
    5.3782    0.5690   30.6422 H   0  0  0  0  0  0  0  0  0  0  0  0
   -0.4965   -4.4539   34.2406 H   0  0  0  0  0  0  0  0  0  0  0  0
  1  2  1  0
  2  3  2  0
  3  4  1  0
  4  5  2  0
  5  6  1  0
  5  7  1  0
  7  8  2  0
  8  9  1  0
  9 10  1  0
 10 11  2  0
 10 12  1  0
 12 13  2  0
 13 14  1  0
 14 15  2  0
 15 16  1  0
 16 17  1  0
 17 18  1  0
 18 19  1  0
 19 20  1  0
 20 21  1  0
 21 22  1  0
 21 23  1  0
 23 24  2  0
 23 25  1  0
 25 26  1  0
 26 27  1  0
 27 28  2  0
 28 29  1  0
 29 30  2  0
 30 31  1  0
 31 32  2  0
 32 33  1  0
 33 34  2  0
 34 35  1  0
 30 36  1  0
 26 37  1  0
 37 38  1  0
 38 39  1  0
 16 40  2  0
  8  2  1  0
 40 12  1  0
 39 26  1  0
 36 27  1  0
 35 31  1  0
  1 41  1  0
  1 42  1  0
  1 43  1  0
  3 44  1  0
  4 45  1  0
  7 46  1  0
  9 47  1  0
 13 48  1  0
 14 49  1  0
 17 50  1  0
 18 51  1  0
 18 52  1  0
 19 53  1  0
 19 54  1  0
 21 55  1  0
 25 56  1  0
 32 57  1  0
 33 58  1  0
 34 59  1  0
 36 60  1  0
 37 61  1  0
 37 62  1  0
 38 63  1  0
 38 64  1  0
 39 65  1  0
 39 66  1  0
 40 67  1  0
M  END
>  <Energy>  (186) 
90.384614115995745

>  <compound_id>  (186) 
525

>  <target_id>  (186) 
1

>  <reference_id>  (186) 
56

>  <inspiration_ids>  (186) 
[56, 156]

>  <energy_score>  (186) 
-47.93761266051237

>  <distance_score>  (186) 
1.9730442648255173

>  <path>  (186) 
/opt/xchem-fragalysis-2/maxwin/BulkDock/SCRATCH/505733/C525-P56/C525-P56.minimised.mol

>  <scratch_subdir>  (186) 
/opt/xchem-fragalysis-2/maxwin/BulkDock/SCRATCH/505733/C525-P56

>  <fragmenstein_runtime>  (186) 
4.493762969970703

>  <fragmenstein_outcome>  (186) 
too moved

>  <fragmenstein_mode>  (186) 
expansion

>  <fragmenstein_error>  (186) 


$$$$
C525-P156
     RDKit          3D

 67 71  0  0  0  0  0  0  0  0999 V2000
    3.9070   -3.4759   35.1619 C   0  0  0  0  0  0  0  0  0  0  0  0
    3.3010   -3.5080   36.5306 C   0  0  0  0  0  0  0  0  0  0  0  0
    3.3222   -2.3885   37.3678 C   0  0  0  0  0  0  0  0  0  0  0  0
    2.6795   -2.4242   38.6093 C   0  0  0  0  0  0  0  0  0  0  0  0
    2.0649   -3.5948   39.0358 C   0  0  0  0  0  0  0  0  0  0  0  0
    1.3040   -3.5886   40.1388 F   0  0  0  0  0  0  0  0  0  0  0  0
    2.1285   -4.7441   38.2701 C   0  0  0  0  0  0  0  0  0  0  0  0
    2.7014   -4.6751   36.9963 C   0  0  0  0  0  0  0  0  0  0  0  0
    2.1642   -5.5614   36.0939 N   0  0  0  0  0  0  0  0  0  0  0  0
    2.0018   -7.0797   36.1686 C   0  0  0  0  0  0  0  0  0  0  0  0
    2.3647   -7.8372   36.9698 O   0  0  0  0  0  0  0  0  0  0  0  0
    1.1551   -7.5048   35.0344 C   0  0  0  0  0  0  0  0  0  0  0  0
    1.2600   -7.0858   33.7188 C   0  0  0  0  0  0  0  0  0  0  0  0
    0.1013   -7.1411   32.9711 C   0  0  0  0  0  0  0  0  0  0  0  0
   -1.1191   -7.1342   33.5279 N   0  0  0  0  0  0  0  0  0  0  0  0
   -1.1579   -7.2669   34.8620 C   0  0  0  0  0  0  0  0  0  0  0  0
   -1.8669   -6.2998   35.6396 N   0  0  0  0  0  0  0  0  0  0  0  0
   -1.1710   -4.9795   35.6249 C   0  0  0  0  0  0  0  0  0  0  0  0
   -1.4060   -4.1806   36.9106 C   0  0  0  0  0  0  0  0  0  0  0  0
   -0.6156   -2.5388   36.9234 S   0  0  0  0  0  0  0  0  0  0  0  0
   -1.7288   -1.6203   35.8122 C   0  0  0  0  0  0  0  0  0  0  0  0
   -2.3193   -0.1507   36.6304 Cl  0  0  0  0  0  0  0  0  0  0  0  0
   -0.9678   -1.1837   34.5392 C   0  0  0  0  0  0  0  0  0  0  0  0
   -1.3698   -1.4450   33.4686 O   0  0  0  0  0  0  0  0  0  0  0  0
    0.3245   -0.4169   34.9769 N   0  0  0  0  0  0  0  0  0  0  0  0
    1.4403    0.1035   34.1774 C   0  0  0  0  0  0  0  0  0  0  0  0
    1.9934   -0.9990   33.2125 C   0  0  0  0  0  0  0  0  0  0  0  0
    3.2475   -1.3286   33.0054 N   0  0  0  0  0  0  0  0  0  0  0  0
    3.2463   -2.4543   32.2025 N   0  0  0  0  0  0  0  0  0  0  0  0
    1.9966   -2.7598   31.9379 C   0  0  0  0  0  0  0  0  0  0  0  0
    1.5259   -3.8782   31.2077 C   0  0  0  0  0  0  0  0  0  0  0  0
    2.2977   -4.7388   30.4648 C   0  0  0  0  0  0  0  0  0  0  0  0
    1.5131   -5.6983   29.7855 C   0  0  0  0  0  0  0  0  0  0  0  0
    0.1736   -5.5597   30.0568 C   0  0  0  0  0  0  0  0  0  0  0  0
   -0.1336   -4.2797   31.1401 S   0  0  0  0  0  0  0  0  0  0  0  0
    1.1932   -1.8067   32.4639 N   0  0  0  0  0  0  0  0  0  0  0  0
    2.5122    0.8577   35.0060 C   0  0  0  0  0  0  0  0  0  0  0  0
    2.5356    1.9338   33.9028 C   0  0  0  0  0  0  0  0  0  0  0  0
    1.1314    1.4558   33.4847 C   0  0  0  0  0  0  0  0  0  0  0  0
   -0.0994   -7.8124   35.5483 C   0  0  0  0  0  0  0  0  0  0  0  0
    4.3999   -2.5187   34.9712 H   0  0  0  0  0  0  0  0  0  0  0  0
    3.1357   -3.6450   34.4115 H   0  0  0  0  0  0  0  0  0  0  0  0
    4.6695   -4.2568   35.0692 H   0  0  0  0  0  0  0  0  0  0  0  0
    3.7984   -1.4667   37.0412 H   0  0  0  0  0  0  0  0  0  0  0  0
    2.6293   -1.5367   39.2323 H   0  0  0  0  0  0  0  0  0  0  0  0
    1.5883   -5.6244   38.6054 H   0  0  0  0  0  0  0  0  0  0  0  0
    1.7962   -5.2259   35.2147 H   0  0  0  0  0  0  0  0  0  0  0  0
    2.1939   -6.7456   33.2906 H   0  0  0  0  0  0  0  0  0  0  0  0
    0.1170   -7.1085   31.8970 H   0  0  0  0  0  0  0  0  0  0  0  0
   -1.9365   -6.6419   36.5966 H   0  0  0  0  0  0  0  0  0  0  0  0
   -0.1025   -5.1123   35.5432 H   0  0  0  0  0  0  0  0  0  0  0  0
   -1.4304   -4.4063   34.7321 H   0  0  0  0  0  0  0  0  0  0  0  0
   -2.4558   -4.0288   37.1229 H   0  0  0  0  0  0  0  0  0  0  0  0
   -1.0012   -4.7437   37.7589 H   0  0  0  0  0  0  0  0  0  0  0  0
   -2.6009   -2.2150   35.5287 H   0  0  0  0  0  0  0  0  0  0  0  0
    0.3228   -0.2959   35.9894 H   0  0  0  0  0  0  0  0  0  0  0  0
    3.3745   -4.6408   30.3766 H   0  0  0  0  0  0  0  0  0  0  0  0
    1.9201   -6.4368   29.1109 H   0  0  0  0  0  0  0  0  0  0  0  0
   -0.6325   -6.1627   29.6693 H   0  0  0  0  0  0  0  0  0  0  0  0
    0.1818   -1.7697   32.4073 H   0  0  0  0  0  0  0  0  0  0  0  0
    2.1554    1.2376   35.9716 H   0  0  0  0  0  0  0  0  0  0  0  0
    3.4633    0.3445   35.1740 H   0  0  0  0  0  0  0  0  0  0  0  0
    2.6001    2.9678   34.2508 H   0  0  0  0  0  0  0  0  0  0  0  0
    3.3043    1.7677   33.1394 H   0  0  0  0  0  0  0  0  0  0  0  0
    0.3211    2.0291   33.9522 H   0  0  0  0  0  0  0  0  0  0  0  0
    0.9528    1.4274   32.4056 H   0  0  0  0  0  0  0  0  0  0  0  0
   -0.1961   -7.9963   36.6198 H   0  0  0  0  0  0  0  0  0  0  0  0
  1  2  1  0
  2  3  2  0
  3  4  1  0
  4  5  2  0
  5  6  1  0
  5  7  1  0
  7  8  2  0
  8  9  1  0
  9 10  1  0
 10 11  2  0
 10 12  1  0
 12 13  2  0
 13 14  1  0
 14 15  2  0
 15 16  1  0
 16 17  1  0
 17 18  1  0
 18 19  1  0
 19 20  1  0
 20 21  1  0
 21 22  1  0
 21 23  1  0
 23 24  2  0
 23 25  1  0
 25 26  1  0
 26 27  1  0
 27 28  2  0
 28 29  1  0
 29 30  2  0
 30 31  1  0
 31 32  2  0
 32 33  1  0
 33 34  2  0
 34 35  1  0
 30 36  1  0
 26 37  1  0
 37 38  1  0
 38 39  1  0
 16 40  2  0
  8  2  1  0
 40 12  1  0
 39 26  1  0
 36 27  1  0
 35 31  1  0
  1 41  1  0
  1 42  1  0
  1 43  1  0
  3 44  1  0
  4 45  1  0
  7 46  1  0
  9 47  1  0
 13 48  1  0
 14 49  1  0
 17 50  1  0
 18 51  1  0
 18 52  1  0
 19 53  1  0
 19 54  1  0
 21 55  1  0
 25 56  1  0
 32 57  1  0
 33 58  1  0
 34 59  1  0
 36 60  1  0
 37 61  1  0
 37 62  1  0
 38 63  1  0
 38 64  1  0
 39 65  1  0
 39 66  1  0
 40 67  1  0
M  END
>  <Energy>  (187) 
116.05295375962

>  <compound_id>  (187) 
525

>  <target_id>  (187) 
1

>  <reference_id>  (187) 
156

>  <inspiration_ids>  (187) 
[56, 156]

>  <energy_score>  (187) 
-22.269273016887524

>  <distance_score>  (187) 
2.1334024036137227

>  <path>  (187) 
/opt/xchem-fragalysis-2/maxwin/BulkDock/SCRATCH/505733/C525-P156/C525-P156.minimised.mol

>  <scratch_subdir>  (187) 
/opt/xchem-fragalysis-2/maxwin/BulkDock/SCRATCH/505733/C525-P156

>  <fragmenstein_runtime>  (187) 
7.1760573387146

>  <fragmenstein_outcome>  (187) 
too moved

>  <fragmenstein_mode>  (187) 
expansion

>  <fragmenstein_error>  (187) 


$$$$
C526-P56
     RDKit          3D

 56 59  0  0  0  0  0  0  0  0999 V2000
    2.3805   -4.4256   35.4070 C   0  0  0  0  0  0  0  0  0  0  0  0
    1.4167   -3.9372   36.4536 C   0  0  0  0  0  0  0  0  0  0  0  0
    1.9123   -3.1030   37.4712 C   0  0  0  0  0  0  0  0  0  0  0  0
    1.0517   -2.5337   38.4038 C   0  0  0  0  0  0  0  0  0  0  0  0
   -0.3091   -2.7779   38.3027 C   0  0  0  0  0  0  0  0  0  0  0  0
   -1.1398   -2.2372   39.2030 F   0  0  0  0  0  0  0  0  0  0  0  0
   -0.8256   -3.5930   37.3022 C   0  0  0  0  0  0  0  0  0  0  0  0
    0.0401   -4.2216   36.4123 C   0  0  0  0  0  0  0  0  0  0  0  0
   -0.4936   -5.1221   35.4961 N   0  0  0  0  0  0  0  0  0  0  0  0
   -0.0787   -6.4430   35.1262 C   0  0  0  0  0  0  0  0  0  0  0  0
    0.7868   -7.1447   35.5661 O   0  0  0  0  0  0  0  0  0  0  0  0
   -0.7815   -6.9713   33.9436 C   0  0  0  0  0  0  0  0  0  0  0  0
   -1.4280   -8.1953   33.9780 C   0  0  0  0  0  0  0  0  0  0  0  0
   -1.8556   -8.7011   32.7684 C   0  0  0  0  0  0  0  0  0  0  0  0
   -1.6448   -8.0974   31.5763 N   0  0  0  0  0  0  0  0  0  0  0  0
   -0.9789   -6.9241   31.5665 C   0  0  0  0  0  0  0  0  0  0  0  0
   -0.7650   -6.3844   30.3276 N   0  0  0  0  0  0  0  0  0  0  0  0
    0.1132   -5.2745   30.0714 C   0  0  0  0  0  0  0  0  0  0  0  0
   -0.4767   -3.9932   30.3566 N   0  0  0  0  0  0  0  0  0  0  0  0
    0.0802   -2.9332   30.5405 C   0  0  0  0  0  0  0  0  0  0  0  0
   -0.7966   -1.6489   30.6421 C   0  0  0  0  0  0  0  0  0  0  0  0
   -2.2230   -1.9096   31.7250 S   0  0  0  0  0  0  0  0  0  0  0  0
   -1.3150   -1.1989   29.0029 Cl  0  0  0  0  0  0  0  0  0  0  0  0
    1.5700   -2.5521   30.7770 N   0  0  0  0  0  0  0  0  0  0  0  0
    2.7460   -3.2275   30.7366 C   0  0  0  0  0  0  0  0  0  0  0  0
    3.5191   -1.6545   31.4899 C   0  0  0  0  0  0  0  0  0  0  0  0
    4.4525   -2.3411   32.3802 C   0  0  0  0  0  0  0  0  0  0  0  0
    5.5874   -1.9184   33.5068 S   0  0  0  0  0  0  0  0  0  0  0  0
    5.8578   -3.6022   33.8531 C   0  0  0  0  0  0  0  0  0  0  0  0
    5.0651   -4.4460   33.0836 C   0  0  0  0  0  0  0  0  0  0  0  0
    4.2715   -3.6698   32.2296 C   0  0  0  0  0  0  0  0  0  0  0  0
    3.0474   -3.8903   31.0554 C   0  0  0  0  0  0  0  0  0  0  0  0
   -0.5809   -6.3096   32.7374 C   0  0  0  0  0  0  0  0  0  0  0  0
    2.6856   -5.4570   35.5822 H   0  0  0  0  0  0  0  0  0  0  0  0
    3.2824   -3.8065   35.4044 H   0  0  0  0  0  0  0  0  0  0  0  0
    1.9396   -4.3412   34.4086 H   0  0  0  0  0  0  0  0  0  0  0  0
    2.9794   -2.9002   37.5357 H   0  0  0  0  0  0  0  0  0  0  0  0
    1.4323   -1.9001   39.1971 H   0  0  0  0  0  0  0  0  0  0  0  0
   -1.8894   -3.7776   37.2801 H   0  0  0  0  0  0  0  0  0  0  0  0
   -1.3250   -4.8701   34.9565 H   0  0  0  0  0  0  0  0  0  0  0  0
   -1.5569   -8.7550   34.8977 H   0  0  0  0  0  0  0  0  0  0  0  0
   -2.3698   -9.6542   32.7095 H   0  0  0  0  0  0  0  0  0  0  0  0
   -0.8641   -7.0725   29.5907 H   0  0  0  0  0  0  0  0  0  0  0  0
    0.3309   -5.2852   28.9992 H   0  0  0  0  0  0  0  0  0  0  0  0
    1.0594   -5.4514   30.5743 H   0  0  0  0  0  0  0  0  0  0  0  0
   -0.2001   -0.8228   31.0391 H   0  0  0  0  0  0  0  0  0  0  0  0
   -2.7342   -2.8564   30.9345 H   0  0  0  0  0  0  0  0  0  0  0  0
    2.3462   -3.3303   29.5302 H   0  0  0  0  0  0  0  0  0  0  0  0
    3.5909   -2.7796   29.8234 H   0  0  0  0  0  0  0  0  0  0  0  0
    3.9994   -1.0674   30.6989 H   0  0  0  0  0  0  0  0  0  0  0  0
    2.7645   -1.0717   32.0318 H   0  0  0  0  0  0  0  0  0  0  0  0
    6.5685   -3.8776   34.6206 H   0  0  0  0  0  0  0  0  0  0  0  0
    5.0606   -5.5253   33.1789 H   0  0  0  0  0  0  0  0  0  0  0  0
    2.4385   -4.6411   31.8149 H   0  0  0  0  0  0  0  0  0  0  0  0
    3.3214   -4.8234   30.2668 H   0  0  0  0  0  0  0  0  0  0  0  0
   -0.0435   -5.3689   32.7207 H   0  0  0  0  0  0  0  0  0  0  0  0
  1  2  1  0
  2  3  2  0
  3  4  1  0
  4  5  2  0
  5  6  1  0
  5  7  1  0
  7  8  2  0
  8  9  1  0
  9 10  1  0
 10 11  2  0
 10 12  1  0
 12 13  2  0
 13 14  1  0
 14 15  2  0
 15 16  1  0
 16 17  1  0
 17 18  1  0
 18 19  1  0
 19 20  2  3
 20 21  1  0
 21 22  1  0
 21 23  1  0
 20 24  1  0
 24 25  1  0
 25 26  1  0
 26 27  1  0
 27 28  1  0
 28 29  1  0
 29 30  2  0
 30 31  1  0
 31 32  1  0
 16 33  2  0
  8  2  1  0
 33 12  1  0
 32 24  1  0
 31 27  2  0
  1 34  1  0
  1 35  1  0
  1 36  1  0
  3 37  1  0
  4 38  1  0
  7 39  1  0
  9 40  1  0
 13 41  1  0
 14 42  1  0
 17 43  1  0
 18 44  1  0
 18 45  1  0
 21 46  1  0
 22 47  1  0
 25 48  1  0
 25 49  1  0
 26 50  1  0
 26 51  1  0
 29 52  1  0
 30 53  1  0
 32 54  1  0
 32 55  1  0
 33 56  1  0
M  END
>  <Energy>  (188) 
735.88001556505674

>  <compound_id>  (188) 
526

>  <target_id>  (188) 
1

>  <reference_id>  (188) 
56

>  <inspiration_ids>  (188) 
[56, 157]

>  <energy_score>  (188) 
652.1431251650363

>  <distance_score>  (188) 
2.2594384646717125

>  <path>  (188) 
/opt/xchem-fragalysis-2/maxwin/BulkDock/SCRATCH/505733/C526-P56/C526-P56.minimised.mol

>  <scratch_subdir>  (188) 
/opt/xchem-fragalysis-2/maxwin/BulkDock/SCRATCH/505733/C526-P56

>  <fragmenstein_runtime>  (188) 
10.783243417739868

>  <fragmenstein_outcome>  (188) 
too moved

>  <fragmenstein_mode>  (188) 
expansion

>  <fragmenstein_error>  (188) 


$$$$
C526-P157
     RDKit          3D

 56 59  0  0  0  0  0  0  0  0999 V2000
    3.0581   -2.4188   36.3945 C   0  0  0  0  0  0  0  0  0  0  0  0
    2.3861   -2.2898   37.7351 C   0  0  0  0  0  0  0  0  0  0  0  0
    2.2063   -1.0127   38.2850 C   0  0  0  0  0  0  0  0  0  0  0  0
    1.5712   -0.8607   39.5162 C   0  0  0  0  0  0  0  0  0  0  0  0
    1.1222   -1.9823   40.2007 C   0  0  0  0  0  0  0  0  0  0  0  0
    0.4842   -1.8321   41.3671 F   0  0  0  0  0  0  0  0  0  0  0  0
    1.3004   -3.2564   39.6879 C   0  0  0  0  0  0  0  0  0  0  0  0
    1.9203   -3.4121   38.4516 C   0  0  0  0  0  0  0  0  0  0  0  0
    2.0035   -4.6636   37.8568 N   0  0  0  0  0  0  0  0  0  0  0  0
    1.7188   -5.9729   38.3729 C   0  0  0  0  0  0  0  0  0  0  0  0
    1.4131   -6.3307   39.4695 O   0  0  0  0  0  0  0  0  0  0  0  0
    1.7528   -6.9265   37.2548 C   0  0  0  0  0  0  0  0  0  0  0  0
    2.9607   -7.3994   36.7696 C   0  0  0  0  0  0  0  0  0  0  0  0
    2.9529   -7.9014   35.4882 C   0  0  0  0  0  0  0  0  0  0  0  0
    1.8626   -7.9065   34.6842 N   0  0  0  0  0  0  0  0  0  0  0  0
    0.6970   -7.4525   35.2061 C   0  0  0  0  0  0  0  0  0  0  0  0
   -0.4039   -7.3060   34.3588 N   0  0  0  0  0  0  0  0  0  0  0  0
   -0.5257   -5.9352   33.9078 C   0  0  0  0  0  0  0  0  0  0  0  0
   -0.3188   -5.9170   32.5084 N   0  0  0  0  0  0  0  0  0  0  0  0
   -0.1381   -5.1330   31.6211 C   0  0  0  0  0  0  0  0  0  0  0  0
    0.0999   -5.7307   30.2093 C   0  0  0  0  0  0  0  0  0  0  0  0
   -0.3797   -7.4963   30.1459 S   0  0  0  0  0  0  0  0  0  0  0  0
    1.8479   -5.5451   29.8645 Cl  0  0  0  0  0  0  0  0  0  0  0  0
    0.0138   -3.5325   31.5893 N   0  0  0  0  0  0  0  0  0  0  0  0
    0.0900   -2.7615   32.7305 C   0  0  0  0  0  0  0  0  0  0  0  0
    1.9744   -2.8109   32.4740 C   0  0  0  0  0  0  0  0  0  0  0  0
    2.2294   -1.4279   32.8661 C   0  0  0  0  0  0  0  0  0  0  0  0
    3.5417   -0.4304   33.0080 S   0  0  0  0  0  0  0  0  0  0  0  0
    2.4928    0.8558   33.5340 C   0  0  0  0  0  0  0  0  0  0  0  0
    1.1541    0.4804   33.5718 C   0  0  0  0  0  0  0  0  0  0  0  0
    1.0425   -0.8547   33.1621 C   0  0  0  0  0  0  0  0  0  0  0  0
   -0.1832   -2.0454   32.9239 C   0  0  0  0  0  0  0  0  0  0  0  0
    0.5927   -6.9891   36.4987 C   0  0  0  0  0  0  0  0  0  0  0  0
    2.3407   -2.7738   35.6496 H   0  0  0  0  0  0  0  0  0  0  0  0
    3.9022   -3.1137   36.4530 H   0  0  0  0  0  0  0  0  0  0  0  0
    3.4558   -1.4571   36.0567 H   0  0  0  0  0  0  0  0  0  0  0  0
    2.5535   -0.1269   37.7573 H   0  0  0  0  0  0  0  0  0  0  0  0
    1.4184    0.1245   39.9457 H   0  0  0  0  0  0  0  0  0  0  0  0
    0.9147   -4.0983   40.2532 H   0  0  0  0  0  0  0  0  0  0  0  0
    2.3096   -4.7464   36.8962 H   0  0  0  0  0  0  0  0  0  0  0  0
    3.8742   -7.3300   37.3483 H   0  0  0  0  0  0  0  0  0  0  0  0
    3.8647   -8.2960   35.0480 H   0  0  0  0  0  0  0  0  0  0  0  0
   -0.1983   -7.8538   33.5296 H   0  0  0  0  0  0  0  0  0  0  0  0
   -1.5341   -5.6015   34.1457 H   0  0  0  0  0  0  0  0  0  0  0  0
    0.1696   -5.2690   34.4267 H   0  0  0  0  0  0  0  0  0  0  0  0
   -0.4459   -5.1441   29.4677 H   0  0  0  0  0  0  0  0  0  0  0  0
    0.2313   -7.8215   31.2934 H   0  0  0  0  0  0  0  0  0  0  0  0
    0.5743   -3.3898   33.7580 H   0  0  0  0  0  0  0  0  0  0  0  0
   -0.7124   -3.6569   33.1775 H   0  0  0  0  0  0  0  0  0  0  0  0
    2.4207   -3.5614   33.1364 H   0  0  0  0  0  0  0  0  0  0  0  0
    2.2238   -2.9930   31.4229 H   0  0  0  0  0  0  0  0  0  0  0  0
    2.9206    1.8191   33.7774 H   0  0  0  0  0  0  0  0  0  0  0  0
    0.3484    1.1425   33.8632 H   0  0  0  0  0  0  0  0  0  0  0  0
   -1.0742   -1.9733   33.8050 H   0  0  0  0  0  0  0  0  0  0  0  0
   -0.8295   -1.2996   32.1890 H   0  0  0  0  0  0  0  0  0  0  0  0
   -0.3450   -6.5899   36.8715 H   0  0  0  0  0  0  0  0  0  0  0  0
  1  2  1  0
  2  3  2  0
  3  4  1  0
  4  5  2  0
  5  6  1  0
  5  7  1  0
  7  8  2  0
  8  9  1  0
  9 10  1  0
 10 11  2  0
 10 12  1  0
 12 13  2  0
 13 14  1  0
 14 15  2  0
 15 16  1  0
 16 17  1  0
 17 18  1  0
 18 19  1  0
 19 20  2  3
 20 21  1  0
 21 22  1  0
 21 23  1  0
 20 24  1  0
 24 25  1  0
 25 26  1  0
 26 27  1  0
 27 28  1  0
 28 29  1  0
 29 30  2  0
 30 31  1  0
 31 32  1  0
 16 33  2  0
  8  2  1  0
 33 12  1  0
 32 24  1  0
 31 27  2  0
  1 34  1  0
  1 35  1  0
  1 36  1  0
  3 37  1  0
  4 38  1  0
  7 39  1  0
  9 40  1  0
 13 41  1  0
 14 42  1  0
 17 43  1  0
 18 44  1  0
 18 45  1  0
 21 46  1  0
 22 47  1  0
 25 48  1  0
 25 49  1  0
 26 50  1  0
 26 51  1  0
 29 52  1  0
 30 53  1  0
 32 54  1  0
 32 55  1  0
 33 56  1  0
M  END
>  <Energy>  (189) 
741.95383631373124

>  <compound_id>  (189) 
526

>  <target_id>  (189) 
1

>  <reference_id>  (189) 
157

>  <inspiration_ids>  (189) 
[56, 157]

>  <energy_score>  (189) 
658.2169459137176

>  <distance_score>  (189) 
3.4546631792478553

>  <path>  (189) 
/opt/xchem-fragalysis-2/maxwin/BulkDock/SCRATCH/505733/C526-P157/C526-P157.minimised.mol

>  <scratch_subdir>  (189) 
/opt/xchem-fragalysis-2/maxwin/BulkDock/SCRATCH/505733/C526-P157

>  <fragmenstein_runtime>  (189) 
12.623048067092896

>  <fragmenstein_outcome>  (189) 
too moved

>  <fragmenstein_mode>  (189) 
expansion

>  <fragmenstein_error>  (189) 


$$$$
C527-P56
     RDKit          3D

 51 55  0  0  0  0  0  0  0  0999 V2000
   -1.0258   -6.6503   40.4670 C   0  0  0  0  0  0  0  0  0  0  0  0
   -0.3537   -5.4627   39.8471 C   0  0  0  0  0  0  0  0  0  0  0  0
    0.2171   -4.6691   40.8564 C   0  0  0  0  0  0  0  0  0  0  0  0
    1.1900   -3.7739   40.5222 C   0  0  0  0  0  0  0  0  0  0  0  0
    1.5188   -3.6555   39.1917 C   0  0  0  0  0  0  0  0  0  0  0  0
    2.6804   -3.1015   38.8828 F   0  0  0  0  0  0  0  0  0  0  0  0
    0.8124   -4.2412   38.1651 C   0  0  0  0  0  0  0  0  0  0  0  0
   -0.1463   -5.1808   38.4470 C   0  0  0  0  0  0  0  0  0  0  0  0
   -0.5693   -6.0220   37.4132 N   0  0  0  0  0  0  0  0  0  0  0  0
   -0.9852   -5.6816   36.0424 C   0  0  0  0  0  0  0  0  0  0  0  0
   -2.2655   -5.2545   36.3402 O   0  0  0  0  0  0  0  0  0  0  0  0
   -0.4304   -4.5527   35.1189 C   0  0  0  0  0  0  0  0  0  0  0  0
   -0.4911   -4.9026   33.6166 C   0  0  0  0  0  0  0  0  0  0  0  0
   -0.6709   -3.9773   32.5987 C   0  0  0  0  0  0  0  0  0  0  0  0
   -0.6663   -4.4299   31.2886 C   0  0  0  0  0  0  0  0  0  0  0  0
   -0.5326   -5.7211   30.9246 N   0  0  0  0  0  0  0  0  0  0  0  0
   -0.2876   -6.5938   31.9110 C   0  0  0  0  0  0  0  0  0  0  0  0
   -0.2544   -6.2280   33.2441 C   0  0  0  0  0  0  0  0  0  0  0  0
    0.0196   -7.2058   34.3147 C   0  0  0  0  0  0  0  0  0  0  0  0
    1.6130   -7.0851   35.2130 S   0  0  0  0  0  0  0  0  0  0  0  0
    2.5067   -5.6938   34.7097 C   0  0  0  0  0  0  0  0  0  0  0  0
    2.1775   -4.7478   33.8639 N   0  0  0  0  0  0  0  0  0  0  0  0
    2.6037   -3.5963   34.4780 C   0  0  0  0  0  0  0  0  0  0  0  0
    2.1578   -2.2793   34.3288 C   0  0  0  0  0  0  0  0  0  0  0  0
    2.5825   -1.3433   35.2705 C   0  0  0  0  0  0  0  0  0  0  0  0
    2.1051   -0.0924   35.1993 F   0  0  0  0  0  0  0  0  0  0  0  0
    3.5092   -1.6542   36.2575 C   0  0  0  0  0  0  0  0  0  0  0  0
    4.0421   -2.9350   36.3463 C   0  0  0  0  0  0  0  0  0  0  0  0
    3.4921   -3.8940   35.4949 C   0  0  0  0  0  0  0  0  0  0  0  0
    3.5433   -5.2716   35.4953 N   0  0  0  0  0  0  0  0  0  0  0  0
   -1.1071   -7.0420   35.3231 C   0  0  0  0  0  0  0  0  0  0  0  0
   -0.4275   -7.0432   41.3016 H   0  0  0  0  0  0  0  0  0  0  0  0
   -1.9809   -6.3498   40.9046 H   0  0  0  0  0  0  0  0  0  0  0  0
   -1.0810   -7.4875   39.7759 H   0  0  0  0  0  0  0  0  0  0  0  0
    0.0013   -4.8444   41.9078 H   0  0  0  0  0  0  0  0  0  0  0  0
    1.7679   -3.2525   41.2754 H   0  0  0  0  0  0  0  0  0  0  0  0
    1.2093   -4.0838   37.1809 H   0  0  0  0  0  0  0  0  0  0  0  0
   -1.4199   -6.4402   37.7843 H   0  0  0  0  0  0  0  0  0  0  0  0
   -2.5169   -4.6706   35.5986 H   0  0  0  0  0  0  0  0  0  0  0  0
    0.5665   -4.3209   35.4166 H   0  0  0  0  0  0  0  0  0  0  0  0
   -0.9637   -3.6031   35.2687 H   0  0  0  0  0  0  0  0  0  0  0  0
   -0.8041   -2.9239   32.8146 H   0  0  0  0  0  0  0  0  0  0  0  0
   -0.7831   -3.7302   30.4644 H   0  0  0  0  0  0  0  0  0  0  0  0
   -0.0889   -7.6092   31.5840 H   0  0  0  0  0  0  0  0  0  0  0  0
   -0.0991   -8.1955   33.8741 H   0  0  0  0  0  0  0  0  0  0  0  0
    1.4424   -2.0101   33.5646 H   0  0  0  0  0  0  0  0  0  0  0  0
    3.8238   -0.8828   36.9541 H   0  0  0  0  0  0  0  0  0  0  0  0
    4.7440   -3.1862   37.1299 H   0  0  0  0  0  0  0  0  0  0  0  0
    3.9553   -5.7837   36.2662 H   0  0  0  0  0  0  0  0  0  0  0  0
   -2.0798   -7.1256   34.8176 H   0  0  0  0  0  0  0  0  0  0  0  0
   -1.0991   -7.8831   36.0309 H   0  0  0  0  0  0  0  0  0  0  0  0
  1  2  1  0
  2  3  2  0
  3  4  1  0
  4  5  2  0
  5  6  1  0
  5  7  1  0
  7  8  2  0
  8  9  1  0
  9 10  1  0
 10 11  1  0
 10 12  1  0
 12 13  1  0
 13 14  2  0
 14 15  1  0
 15 16  2  0
 16 17  1  0
 17 18  2  0
 18 19  1  0
 19 20  1  0
 20 21  1  0
 21 22  2  0
 22 23  1  0
 23 24  2  0
 24 25  1  0
 25 26  1  0
 25 27  2  0
 27 28  1  0
 28 29  2  0
 29 30  1  0
 19 31  1  0
  8  2  1  0
 31 10  1  0
 18 13  1  0
 30 21  1  0
 29 23  1  0
  1 32  1  0
  1 33  1  0
  1 34  1  0
  3 35  1  0
  4 36  1  0
  7 37  1  0
  9 38  1  0
 11 39  1  0
 12 40  1  0
 12 41  1  0
 14 42  1  0
 15 43  1  0
 17 44  1  0
 19 45  1  0
 24 46  1  0
 27 47  1  0
 28 48  1  0
 30 49  1  0
 31 50  1  0
 31 51  1  0
M  END
>  <Energy>  (190) 
83.333463447865043

>  <compound_id>  (190) 
527

>  <target_id>  (190) 
1

>  <reference_id>  (190) 
56

>  <inspiration_ids>  (190) 
[56, 158]

>  <energy_score>  (190) 
29.634161446263064

>  <distance_score>  (190) 
3.016720147666138

>  <path>  (190) 
/opt/xchem-fragalysis-2/maxwin/BulkDock/SCRATCH/505733/C527-P56/C527-P56.minimised.mol

>  <scratch_subdir>  (190) 
/opt/xchem-fragalysis-2/maxwin/BulkDock/SCRATCH/505733/C527-P56

>  <fragmenstein_runtime>  (190) 
6.944775104522705

>  <fragmenstein_outcome>  (190) 
too moved

>  <fragmenstein_mode>  (190) 
expansion

>  <fragmenstein_error>  (190) 


$$$$
C527-P158
     RDKit          3D

 51 55  0  0  0  0  0  0  0  0999 V2000
    3.9194   -4.9847   38.4883 C   0  0  0  0  0  0  0  0  0  0  0  0
    2.7088   -5.8323   38.7944 C   0  0  0  0  0  0  0  0  0  0  0  0
    2.4567   -6.1399   40.1531 C   0  0  0  0  0  0  0  0  0  0  0  0
    1.3725   -6.9134   40.5206 C   0  0  0  0  0  0  0  0  0  0  0  0
    0.5587   -7.3883   39.5241 C   0  0  0  0  0  0  0  0  0  0  0  0
   -0.4513   -8.1961   39.8395 F   0  0  0  0  0  0  0  0  0  0  0  0
    0.7687   -7.0612   38.1932 C   0  0  0  0  0  0  0  0  0  0  0  0
    1.8294   -6.2567   37.7734 C   0  0  0  0  0  0  0  0  0  0  0  0
    1.9887   -5.8198   36.4537 N   0  0  0  0  0  0  0  0  0  0  0  0
    2.0082   -6.5704   35.2178 C   0  0  0  0  0  0  0  0  0  0  0  0
    3.3239   -7.1344   35.2046 O   0  0  0  0  0  0  0  0  0  0  0  0
    1.9208   -5.6725   33.9347 C   0  0  0  0  0  0  0  0  0  0  0  0
    0.8873   -6.0552   32.8873 C   0  0  0  0  0  0  0  0  0  0  0  0
    0.9388   -5.5095   31.6100 C   0  0  0  0  0  0  0  0  0  0  0  0
    0.0167   -5.9437   30.6780 C   0  0  0  0  0  0  0  0  0  0  0  0
   -0.9376   -6.8661   30.9229 N   0  0  0  0  0  0  0  0  0  0  0  0
   -1.0319   -7.3320   32.1731 C   0  0  0  0  0  0  0  0  0  0  0  0
   -0.1510   -6.9551   33.1740 C   0  0  0  0  0  0  0  0  0  0  0  0
   -0.3014   -7.5380   34.5310 C   0  0  0  0  0  0  0  0  0  0  0  0
   -1.6163   -6.8067   35.4790 S   0  0  0  0  0  0  0  0  0  0  0  0
   -1.0486   -5.2848   35.9994 C   0  0  0  0  0  0  0  0  0  0  0  0
   -1.0143   -4.8886   37.2426 N   0  0  0  0  0  0  0  0  0  0  0  0
   -0.2239   -3.7753   37.2251 C   0  0  0  0  0  0  0  0  0  0  0  0
    0.3323   -3.0740   38.2957 C   0  0  0  0  0  0  0  0  0  0  0  0
    1.2317   -2.0576   38.0052 C   0  0  0  0  0  0  0  0  0  0  0  0
    1.8315   -1.4052   39.0106 F   0  0  0  0  0  0  0  0  0  0  0  0
    1.5337   -1.7003   36.6956 C   0  0  0  0  0  0  0  0  0  0  0  0
    0.9248   -2.3369   35.6077 C   0  0  0  0  0  0  0  0  0  0  0  0
    0.0777   -3.4004   35.9216 C   0  0  0  0  0  0  0  0  0  0  0  0
   -0.6117   -4.3113   35.1598 N   0  0  0  0  0  0  0  0  0  0  0  0
    1.0627   -7.7371   35.1779 C   0  0  0  0  0  0  0  0  0  0  0  0
    4.4947   -5.4211   37.6652 H   0  0  0  0  0  0  0  0  0  0  0  0
    4.5943   -4.9226   39.3487 H   0  0  0  0  0  0  0  0  0  0  0  0
    3.6155   -3.9683   38.2232 H   0  0  0  0  0  0  0  0  0  0  0  0
    3.1227   -5.7684   40.9295 H   0  0  0  0  0  0  0  0  0  0  0  0
    1.1764   -7.1650   41.5558 H   0  0  0  0  0  0  0  0  0  0  0  0
   -0.0094   -7.4213   37.5432 H   0  0  0  0  0  0  0  0  0  0  0  0
    2.6087   -5.0172   36.3999 H   0  0  0  0  0  0  0  0  0  0  0  0
    3.4862   -7.3253   36.1469 H   0  0  0  0  0  0  0  0  0  0  0  0
    2.8986   -5.6871   33.4353 H   0  0  0  0  0  0  0  0  0  0  0  0
    1.7699   -4.6256   34.1997 H   0  0  0  0  0  0  0  0  0  0  0  0
    1.6845   -4.7707   31.3339 H   0  0  0  0  0  0  0  0  0  0  0  0
    0.0144   -5.5275   29.6747 H   0  0  0  0  0  0  0  0  0  0  0  0
   -1.8416   -8.0375   32.3529 H   0  0  0  0  0  0  0  0  0  0  0  0
   -0.7170   -8.5299   34.3924 H   0  0  0  0  0  0  0  0  0  0  0  0
    0.1194   -3.3619   39.3175 H   0  0  0  0  0  0  0  0  0  0  0  0
    2.2330   -0.8858   36.5241 H   0  0  0  0  0  0  0  0  0  0  0  0
    1.1399   -2.0478   34.5856 H   0  0  0  0  0  0  0  0  0  0  0  0
   -0.7077   -4.3212   34.1569 H   0  0  0  0  0  0  0  0  0  0  0  0
    1.6170   -8.4755   34.6053 H   0  0  0  0  0  0  0  0  0  0  0  0
    0.9817   -8.2403   36.1303 H   0  0  0  0  0  0  0  0  0  0  0  0
  1  2  1  0
  2  3  2  0
  3  4  1  0
  4  5  2  0
  5  6  1  0
  5  7  1  0
  7  8  2  0
  8  9  1  0
  9 10  1  0
 10 11  1  0
 10 12  1  0
 12 13  1  0
 13 14  2  0
 14 15  1  0
 15 16  2  0
 16 17  1  0
 17 18  2  0
 18 19  1  0
 19 20  1  0
 20 21  1  0
 21 22  2  0
 22 23  1  0
 23 24  2  0
 24 25  1  0
 25 26  1  0
 25 27  2  0
 27 28  1  0
 28 29  2  0
 29 30  1  0
 19 31  1  0
  8  2  1  0
 31 10  1  0
 18 13  1  0
 30 21  1  0
 29 23  1  0
  1 32  1  0
  1 33  1  0
  1 34  1  0
  3 35  1  0
  4 36  1  0
  7 37  1  0
  9 38  1  0
 11 39  1  0
 12 40  1  0
 12 41  1  0
 14 42  1  0
 15 43  1  0
 17 44  1  0
 19 45  1  0
 24 46  1  0
 27 47  1  0
 28 48  1  0
 30 49  1  0
 31 50  1  0
 31 51  1  0
M  END
>  <Energy>  (191) 
42.657363469185562

>  <compound_id>  (191) 
527

>  <target_id>  (191) 
1

>  <reference_id>  (191) 
158

>  <inspiration_ids>  (191) 
[56, 158]

>  <energy_score>  (191) 
-11.041938532418925

>  <distance_score>  (191) 
2.2614141381291497

>  <path>  (191) 
/opt/xchem-fragalysis-2/maxwin/BulkDock/SCRATCH/505733/C527-P158/C527-P158.minimised.mol

>  <scratch_subdir>  (191) 
/opt/xchem-fragalysis-2/maxwin/BulkDock/SCRATCH/505733/C527-P158

>  <fragmenstein_runtime>  (191) 
7.008481025695801

>  <fragmenstein_outcome>  (191) 
too moved

>  <fragmenstein_mode>  (191) 
expansion

>  <fragmenstein_error>  (191) 


$$$$
C528-P56
     RDKit          3D

 35 37  0  0  0  0  0  0  0  0999 V2000
    3.2910   -3.9555   34.5055 C   0  0  0  0  0  0  0  0  0  0  0  0
    2.2627   -3.7103   35.5769 C   0  0  0  0  0  0  0  0  0  0  0  0
    2.6801   -3.0632   36.7564 C   0  0  0  0  0  0  0  0  0  0  0  0
    1.8111   -2.8987   37.8313 C   0  0  0  0  0  0  0  0  0  0  0  0
    0.5055   -3.3391   37.7161 C   0  0  0  0  0  0  0  0  0  0  0  0
   -0.3151   -3.2365   38.7719 F   0  0  0  0  0  0  0  0  0  0  0  0
    0.0462   -3.9010   36.5276 C   0  0  0  0  0  0  0  0  0  0  0  0
    0.9189   -4.1283   35.4415 C   0  0  0  0  0  0  0  0  0  0  0  0
    0.4245   -4.8468   34.2391 C   0  0  0  0  0  0  0  0  0  0  0  0
    0.4800   -4.2427   32.9748 C   0  0  0  0  0  0  0  0  0  0  0  0
    0.1159   -4.9444   31.8234 C   0  0  0  0  0  0  0  0  0  0  0  0
   -0.4671   -6.2165   31.9283 C   0  0  0  0  0  0  0  0  0  0  0  0
   -0.8714   -6.9595   30.8237 C   0  0  0  0  0  0  0  0  0  0  0  0
   -1.5573   -8.1254   30.8934 N   0  0  0  0  0  0  0  0  0  0  0  0
   -1.8464   -8.5959   32.1172 C   0  0  0  0  0  0  0  0  0  0  0  0
   -1.4412   -7.9726   33.2660 C   0  0  0  0  0  0  0  0  0  0  0  0
   -0.6704   -6.7938   33.1859 C   0  0  0  0  0  0  0  0  0  0  0  0
   -0.0596   -6.1772   34.3047 C   0  0  0  0  0  0  0  0  0  0  0  0
    0.2866   -7.0528   35.4715 C   0  0  0  0  0  0  0  0  0  0  0  0
   -0.4396   -6.7258   36.6138 O   0  0  0  0  0  0  0  0  0  0  0  0
    1.6755   -7.0988   35.6858 O   0  0  0  0  0  0  0  0  0  0  0  0
   -0.0269   -8.3557   35.2863 F   0  0  0  0  0  0  0  0  0  0  0  0
    3.1834   -3.2229   33.7003 H   0  0  0  0  0  0  0  0  0  0  0  0
    3.2084   -4.9678   34.0981 H   0  0  0  0  0  0  0  0  0  0  0  0
    4.3074   -3.8660   34.9052 H   0  0  0  0  0  0  0  0  0  0  0  0
    3.7155   -2.7495   36.8688 H   0  0  0  0  0  0  0  0  0  0  0  0
    2.1550   -2.4617   38.7615 H   0  0  0  0  0  0  0  0  0  0  0  0
   -0.9950   -4.2089   36.4720 H   0  0  0  0  0  0  0  0  0  0  0  0
    0.8565   -3.2263   32.8747 H   0  0  0  0  0  0  0  0  0  0  0  0
    0.2427   -4.4725   30.8517 H   0  0  0  0  0  0  0  0  0  0  0  0
   -0.6636   -6.6201   29.8114 H   0  0  0  0  0  0  0  0  0  0  0  0
   -2.4201   -9.5167   32.1553 H   0  0  0  0  0  0  0  0  0  0  0  0
   -1.7532   -8.4177   34.2047 H   0  0  0  0  0  0  0  0  0  0  0  0
   -0.8053   -7.5910   36.8546 H   0  0  0  0  0  0  0  0  0  0  0  0
    2.0799   -7.0280   34.7965 H   0  0  0  0  0  0  0  0  0  0  0  0
  1  2  1  0
  2  3  2  0
  3  4  1  0
  4  5  2  0
  5  6  1  0
  5  7  1  0
  7  8  2  0
  8  9  1  0
  9 10  2  0
 10 11  1  0
 11 12  2  0
 12 13  1  0
 13 14  2  0
 14 15  1  0
 15 16  2  0
 16 17  1  0
 17 18  2  0
 18 19  1  0
 19 20  1  0
 19 21  1  0
 19 22  1  0
  8  2  1  0
 18  9  1  0
 17 12  1  0
  1 23  1  0
  1 24  1  0
  1 25  1  0
  3 26  1  0
  4 27  1  0
  7 28  1  0
 10 29  1  0
 11 30  1  0
 13 31  1  0
 15 32  1  0
 16 33  1  0
 20 34  1  0
 21 35  1  0
M  END
>  <Energy>  (192) 
10.960648757981431

>  <compound_id>  (192) 
528

>  <target_id>  (192) 
1

>  <reference_id>  (192) 
56

>  <inspiration_ids>  (192) 
[56, 159]

>  <energy_score>  (192) 
-28.319353146219377

>  <distance_score>  (192) 
0.9818092264515303

>  <path>  (192) 
/opt/xchem-fragalysis-2/maxwin/BulkDock/SCRATCH/505733/C528-P56/C528-P56.minimised.mol

>  <scratch_subdir>  (192) 
/opt/xchem-fragalysis-2/maxwin/BulkDock/SCRATCH/505733/C528-P56

>  <fragmenstein_runtime>  (192) 
1.6917312145233154

>  <fragmenstein_outcome>  (192) 
acceptable

>  <fragmenstein_mode>  (192) 
expansion

>  <fragmenstein_error>  (192) 


$$$$
C528-P159
     RDKit          3D

 35 37  0  0  0  0  0  0  0  0999 V2000
    3.5482   -3.9155   34.9826 C   0  0  0  0  0  0  0  0  0  0  0  0
    2.5009   -3.6715   36.0388 C   0  0  0  0  0  0  0  0  0  0  0  0
    2.8885   -3.0542   37.2400 C   0  0  0  0  0  0  0  0  0  0  0  0
    1.9671   -2.8520   38.2659 C   0  0  0  0  0  0  0  0  0  0  0  0
    0.6466   -3.2313   38.0842 C   0  0  0  0  0  0  0  0  0  0  0  0
   -0.2232   -3.0877   39.0920 F   0  0  0  0  0  0  0  0  0  0  0  0
    0.2235   -3.7879   36.8838 C   0  0  0  0  0  0  0  0  0  0  0  0
    1.1488   -4.0470   35.8530 C   0  0  0  0  0  0  0  0  0  0  0  0
    0.7089   -4.7789   34.6535 C   0  0  0  0  0  0  0  0  0  0  0  0
    0.7816   -4.1167   33.4110 C   0  0  0  0  0  0  0  0  0  0  0  0
    0.4233   -4.7422   32.2242 C   0  0  0  0  0  0  0  0  0  0  0  0
   -0.1562   -6.0057   32.2686 C   0  0  0  0  0  0  0  0  0  0  0  0
   -0.6041   -6.6236   31.1022 C   0  0  0  0  0  0  0  0  0  0  0  0
   -1.3194   -7.7640   31.0658 N   0  0  0  0  0  0  0  0  0  0  0  0
   -1.5686   -8.3209   32.2614 C   0  0  0  0  0  0  0  0  0  0  0  0
   -1.0940   -7.8433   33.4674 C   0  0  0  0  0  0  0  0  0  0  0  0
   -0.3347   -6.6657   33.5022 C   0  0  0  0  0  0  0  0  0  0  0  0
    0.2321   -6.1107   34.6958 C   0  0  0  0  0  0  0  0  0  0  0  0
    0.3617   -7.0120   35.9166 C   0  0  0  0  0  0  0  0  0  0  0  0
    0.9315   -6.5506   37.1033 O   0  0  0  0  0  0  0  0  0  0  0  0
    1.2197   -8.0788   35.5830 O   0  0  0  0  0  0  0  0  0  0  0  0
   -0.8087   -7.5838   36.2896 F   0  0  0  0  0  0  0  0  0  0  0  0
    4.5565   -3.8255   35.4021 H   0  0  0  0  0  0  0  0  0  0  0  0
    3.4575   -3.1810   34.1771 H   0  0  0  0  0  0  0  0  0  0  0  0
    3.4723   -4.9286   34.5749 H   0  0  0  0  0  0  0  0  0  0  0  0
    3.9218   -2.7494   37.3967 H   0  0  0  0  0  0  0  0  0  0  0  0
    2.2725   -2.4088   39.2087 H   0  0  0  0  0  0  0  0  0  0  0  0
   -0.8215   -4.0714   36.7829 H   0  0  0  0  0  0  0  0  0  0  0  0
    1.1416   -3.0884   33.3656 H   0  0  0  0  0  0  0  0  0  0  0  0
    0.5311   -4.2011   31.2863 H   0  0  0  0  0  0  0  0  0  0  0  0
   -0.4268   -6.1691   30.1311 H   0  0  0  0  0  0  0  0  0  0  0  0
   -2.1759   -9.2095   32.2324 H   0  0  0  0  0  0  0  0  0  0  0  0
   -1.3501   -8.3989   34.3616 H   0  0  0  0  0  0  0  0  0  0  0  0
    1.7591   -6.1208   36.8448 H   0  0  0  0  0  0  0  0  0  0  0  0
    1.1391   -8.5733   36.4186 H   0  0  0  0  0  0  0  0  0  0  0  0
  1  2  1  0
  2  3  2  0
  3  4  1  0
  4  5  2  0
  5  6  1  0
  5  7  1  0
  7  8  2  0
  8  9  1  0
  9 10  2  0
 10 11  1  0
 11 12  2  0
 12 13  1  0
 13 14  2  0
 14 15  1  0
 15 16  2  0
 16 17  1  0
 17 18  2  0
 18 19  1  0
 19 20  1  0
 19 21  1  0
 19 22  1  0
  8  2  1  0
 18  9  1  0
 17 12  1  0
  1 23  1  0
  1 24  1  0
  1 25  1  0
  3 26  1  0
  4 27  1  0
  7 28  1  0
 10 29  1  0
 11 30  1  0
 13 31  1  0
 15 32  1  0
 16 33  1  0
 20 34  1  0
 21 35  1  0
M  END
>  <Energy>  (193) 
6.4550409089598091

>  <compound_id>  (193) 
528

>  <target_id>  (193) 
1

>  <reference_id>  (193) 
159

>  <inspiration_ids>  (193) 
[56, 159]

>  <energy_score>  (193) 
-32.82496099524239

>  <distance_score>  (193) 
0.9308751602753423

>  <path>  (193) 
/opt/xchem-fragalysis-2/maxwin/BulkDock/SCRATCH/505733/C528-P159/C528-P159.minimised.mol

>  <scratch_subdir>  (193) 
/opt/xchem-fragalysis-2/maxwin/BulkDock/SCRATCH/505733/C528-P159

>  <fragmenstein_runtime>  (193) 
2.0653059482574463

>  <fragmenstein_outcome>  (193) 
acceptable

>  <fragmenstein_mode>  (193) 
expansion

>  <fragmenstein_error>  (193) 


$$$$
C530-P56
     RDKit          3D

 50 52  0  0  0  0  0  0  0  0999 V2000
    3.4169   -3.4493   34.1682 C   0  0  0  0  0  0  0  0  0  0  0  0
    2.3577   -2.9122   35.0797 C   0  0  0  0  0  0  0  0  0  0  0  0
    2.8328   -2.3364   36.2845 C   0  0  0  0  0  0  0  0  0  0  0  0
    1.9646   -1.9073   37.2791 C   0  0  0  0  0  0  0  0  0  0  0  0
    0.6069   -1.9878   37.0474 C   0  0  0  0  0  0  0  0  0  0  0  0
   -0.2326   -1.7920   38.0779 F   0  0  0  0  0  0  0  0  0  0  0  0
    0.1096   -2.4406   35.8209 C   0  0  0  0  0  0  0  0  0  0  0  0
    0.9694   -3.0312   34.8723 C   0  0  0  0  0  0  0  0  0  0  0  0
    0.3239   -3.9662   34.0202 N   0  0  0  0  0  0  0  0  0  0  0  0
    0.9158   -5.0077   33.0358 C   0  0  0  0  0  0  0  0  0  0  0  0
    2.0231   -5.2042   32.7163 O   0  0  0  0  0  0  0  0  0  0  0  0
   -0.0848   -5.9853   32.4799 C   0  0  0  0  0  0  0  0  0  0  0  0
    0.0659   -6.2460   31.1178 C   0  0  0  0  0  0  0  0  0  0  0  0
   -0.6584   -7.2701   30.5405 C   0  0  0  0  0  0  0  0  0  0  0  0
   -1.5294   -8.0513   31.2110 N   0  0  0  0  0  0  0  0  0  0  0  0
   -1.6341   -7.8164   32.5354 C   0  0  0  0  0  0  0  0  0  0  0  0
   -0.9635   -6.7991   33.2268 C   0  0  0  0  0  0  0  0  0  0  0  0
   -1.3002   -6.6133   34.6715 C   0  0  0  0  0  0  0  0  0  0  0  0
   -0.4768   -7.3005   35.7369 C   0  0  0  0  0  0  0  0  0  0  0  0
   -0.8935   -6.7958   37.0945 N   0  0  0  0  0  0  0  0  0  0  0  0
   -0.4477   -5.1987   37.4278 S   0  0  0  0  0  0  0  0  0  0  0  0
    0.8083   -5.0822   36.7405 O   0  0  0  0  0  0  0  0  0  0  0  0
   -1.6234   -4.4206   37.1183 O   0  0  0  0  0  0  0  0  0  0  0  0
   -0.1654   -5.0822   39.1543 C   0  0  0  0  0  0  0  0  0  0  0  0
   -1.1288   -5.4711   40.0698 C   0  0  0  0  0  0  0  0  0  0  0  0
   -0.8255   -5.6550   41.4153 C   0  0  0  0  0  0  0  0  0  0  0  0
    0.4361   -5.3115   41.8545 C   0  0  0  0  0  0  0  0  0  0  0  0
    0.8080   -5.4627   43.1553 O   0  0  0  0  0  0  0  0  0  0  0  0
    1.3391   -4.7213   40.9831 C   0  0  0  0  0  0  0  0  0  0  0  0
    1.0409   -4.6020   39.6268 C   0  0  0  0  0  0  0  0  0  0  0  0
    3.1778   -3.2292   33.1244 H   0  0  0  0  0  0  0  0  0  0  0  0
    3.5763   -4.5161   34.3452 H   0  0  0  0  0  0  0  0  0  0  0  0
    4.3777   -2.9507   34.3469 H   0  0  0  0  0  0  0  0  0  0  0  0
    3.9035   -2.3008   36.4796 H   0  0  0  0  0  0  0  0  0  0  0  0
    2.3383   -1.5631   38.2362 H   0  0  0  0  0  0  0  0  0  0  0  0
   -0.9688   -2.5145   35.7099 H   0  0  0  0  0  0  0  0  0  0  0  0
   -0.6878   -4.0180   33.9999 H   0  0  0  0  0  0  0  0  0  0  0  0
    0.7897   -5.6993   30.5202 H   0  0  0  0  0  0  0  0  0  0  0  0
   -0.5226   -7.5094   29.4883 H   0  0  0  0  0  0  0  0  0  0  0  0
   -2.3225   -8.4866   33.0477 H   0  0  0  0  0  0  0  0  0  0  0  0
   -1.3295   -5.5554   34.8842 H   0  0  0  0  0  0  0  0  0  0  0  0
   -2.3320   -6.9520   34.8203 H   0  0  0  0  0  0  0  0  0  0  0  0
    0.6001   -7.1920   35.5826 H   0  0  0  0  0  0  0  0  0  0  0  0
   -0.6981   -8.3700   35.7090 H   0  0  0  0  0  0  0  0  0  0  0  0
   -1.9056   -6.7788   37.1592 H   0  0  0  0  0  0  0  0  0  0  0  0
   -2.1432   -5.5759   39.7413 H   0  0  0  0  0  0  0  0  0  0  0  0
   -1.5928   -6.0110   42.0949 H   0  0  0  0  0  0  0  0  0  0  0  0
    0.0395   -5.7725   43.6635 H   0  0  0  0  0  0  0  0  0  0  0  0
    2.2968   -4.3682   41.3558 H   0  0  0  0  0  0  0  0  0  0  0  0
    1.7873   -4.1984   38.9480 H   0  0  0  0  0  0  0  0  0  0  0  0
  1  2  1  0
  2  3  2  0
  3  4  1  0
  4  5  2  0
  5  6  1  0
  5  7  1  0
  7  8  2  0
  8  9  1  0
  9 10  1  0
 10 11  2  0
 10 12  1  0
 12 13  2  0
 13 14  1  0
 14 15  2  0
 15 16  1  0
 16 17  2  0
 17 18  1  0
 18 19  1  0
 19 20  1  0
 20 21  1  0
 21 22  2  0
 21 23  2  0
 21 24  1  0
 24 25  2  0
 25 26  1  0
 26 27  2  0
 27 28  1  0
 27 29  1  0
 29 30  2  0
  8  2  1  0
 17 12  1  0
 30 24  1  0
  1 31  1  0
  1 32  1  0
  1 33  1  0
  3 34  1  0
  4 35  1  0
  7 36  1  0
  9 37  1  0
 13 38  1  0
 14 39  1  0
 16 40  1  0
 18 41  1  0
 18 42  1  0
 19 43  1  0
 19 44  1  0
 20 45  1  0
 25 46  1  0
 26 47  1  0
 28 48  1  0
 29 49  1  0
 30 50  1  0
M  END
>  <Energy>  (194) 
32.061582616982449

>  <compound_id>  (194) 
530

>  <target_id>  (194) 
1

>  <reference_id>  (194) 
56

>  <inspiration_ids>  (194) 
[56, 164]

>  <energy_score>  (194) 
-17.782669923446917

>  <distance_score>  (194) 
2.0851379303879067

>  <path>  (194) 
/opt/xchem-fragalysis-2/maxwin/BulkDock/SCRATCH/505733/C530-P56/C530-P56.minimised.mol

>  <scratch_subdir>  (194) 
/opt/xchem-fragalysis-2/maxwin/BulkDock/SCRATCH/505733/C530-P56

>  <fragmenstein_runtime>  (194) 
18.272316694259644

>  <fragmenstein_outcome>  (194) 
too moved

>  <fragmenstein_mode>  (194) 
expansion

>  <fragmenstein_error>  (194) 


$$$$
C530-P164
     RDKit          3D

 50 52  0  0  0  0  0  0  0  0999 V2000
    3.3354   -3.6352   34.3190 C   0  0  0  0  0  0  0  0  0  0  0  0
    2.2874   -3.2385   35.3143 C   0  0  0  0  0  0  0  0  0  0  0  0
    2.7309   -2.5135   36.4424 C   0  0  0  0  0  0  0  0  0  0  0  0
    1.8409   -2.0942   37.4251 C   0  0  0  0  0  0  0  0  0  0  0  0
    0.4926   -2.3546   37.2603 C   0  0  0  0  0  0  0  0  0  0  0  0
   -0.3538   -2.0397   38.2517 F   0  0  0  0  0  0  0  0  0  0  0  0
    0.0197   -3.0360   36.1376 C   0  0  0  0  0  0  0  0  0  0  0  0
    0.9233   -3.5578   35.1974 C   0  0  0  0  0  0  0  0  0  0  0  0
    0.3854   -4.4876   34.2921 N   0  0  0  0  0  0  0  0  0  0  0  0
    1.0495   -5.6838   33.5641 C   0  0  0  0  0  0  0  0  0  0  0  0
    2.1649   -6.0349   33.5444 O   0  0  0  0  0  0  0  0  0  0  0  0
    0.0819   -6.5335   32.8413 C   0  0  0  0  0  0  0  0  0  0  0  0
    0.3280   -6.6936   31.4792 C   0  0  0  0  0  0  0  0  0  0  0  0
   -0.4524   -7.5860   30.7785 C   0  0  0  0  0  0  0  0  0  0  0  0
   -1.4625   -8.2828   31.3178 N   0  0  0  0  0  0  0  0  0  0  0  0
   -1.6540   -8.1204   32.6401 C   0  0  0  0  0  0  0  0  0  0  0  0
   -0.9222   -7.2758   33.4686 C   0  0  0  0  0  0  0  0  0  0  0  0
   -1.3565   -7.1391   34.8945 C   0  0  0  0  0  0  0  0  0  0  0  0
   -0.3622   -7.2808   36.0423 C   0  0  0  0  0  0  0  0  0  0  0  0
   -0.7924   -6.3263   37.0635 N   0  0  0  0  0  0  0  0  0  0  0  0
    0.2808   -5.6705   38.1462 S   0  0  0  0  0  0  0  0  0  0  0  0
    1.5040   -5.4328   37.4260 O   0  0  0  0  0  0  0  0  0  0  0  0
   -0.4460   -4.6589   38.8734 O   0  0  0  0  0  0  0  0  0  0  0  0
    0.5617   -6.9904   39.2454 C   0  0  0  0  0  0  0  0  0  0  0  0
   -0.1907   -7.0763   40.4215 C   0  0  0  0  0  0  0  0  0  0  0  0
   -0.0355   -8.1896   41.2308 C   0  0  0  0  0  0  0  0  0  0  0  0
    0.8751   -9.1649   40.8507 C   0  0  0  0  0  0  0  0  0  0  0  0
    0.8786  -10.3551   41.5197 O   0  0  0  0  0  0  0  0  0  0  0  0
    1.7066   -9.0134   39.7447 C   0  0  0  0  0  0  0  0  0  0  0  0
    1.5486   -7.9152   38.9233 C   0  0  0  0  0  0  0  0  0  0  0  0
    2.9313   -3.6741   33.3034 H   0  0  0  0  0  0  0  0  0  0  0  0
    3.7914   -4.5886   34.5985 H   0  0  0  0  0  0  0  0  0  0  0  0
    4.1346   -2.8848   34.2855 H   0  0  0  0  0  0  0  0  0  0  0  0
    3.7901   -2.2984   36.5694 H   0  0  0  0  0  0  0  0  0  0  0  0
    2.1890   -1.5836   38.3159 H   0  0  0  0  0  0  0  0  0  0  0  0
   -1.0405   -3.2644   36.0917 H   0  0  0  0  0  0  0  0  0  0  0  0
   -0.6189   -4.5250   34.1582 H   0  0  0  0  0  0  0  0  0  0  0  0
    1.1380   -6.1653   30.9863 H   0  0  0  0  0  0  0  0  0  0  0  0
   -0.2666   -7.8053   29.7393 H   0  0  0  0  0  0  0  0  0  0  0  0
   -2.4654   -8.7150   33.0391 H   0  0  0  0  0  0  0  0  0  0  0  0
   -1.8093   -6.1503   34.9566 H   0  0  0  0  0  0  0  0  0  0  0  0
   -2.1786   -7.8382   35.0949 H   0  0  0  0  0  0  0  0  0  0  0  0
    0.6648   -7.0954   35.7262 H   0  0  0  0  0  0  0  0  0  0  0  0
   -0.4049   -8.2930   36.4476 H   0  0  0  0  0  0  0  0  0  0  0  0
   -1.7612   -6.2688   37.3637 H   0  0  0  0  0  0  0  0  0  0  0  0
   -0.9224   -6.3153   40.6830 H   0  0  0  0  0  0  0  0  0  0  0  0
   -0.6489   -8.3277   42.1155 H   0  0  0  0  0  0  0  0  0  0  0  0
    0.6618  -11.0174   40.8150 H   0  0  0  0  0  0  0  0  0  0  0  0
    2.4363   -9.7796   39.5042 H   0  0  0  0  0  0  0  0  0  0  0  0
    2.1652   -7.8077   38.0358 H   0  0  0  0  0  0  0  0  0  0  0  0
  1  2  1  0
  2  3  2  0
  3  4  1  0
  4  5  2  0
  5  6  1  0
  5  7  1  0
  7  8  2  0
  8  9  1  0
  9 10  1  0
 10 11  2  0
 10 12  1  0
 12 13  2  0
 13 14  1  0
 14 15  2  0
 15 16  1  0
 16 17  2  0
 17 18  1  0
 18 19  1  0
 19 20  1  0
 20 21  1  0
 21 22  2  0
 21 23  2  0
 21 24  1  0
 24 25  2  0
 25 26  1  0
 26 27  2  0
 27 28  1  0
 27 29  1  0
 29 30  2  0
  8  2  1  0
 17 12  1  0
 30 24  1  0
  1 31  1  0
  1 32  1  0
  1 33  1  0
  3 34  1  0
  4 35  1  0
  7 36  1  0
  9 37  1  0
 13 38  1  0
 14 39  1  0
 16 40  1  0
 18 41  1  0
 18 42  1  0
 19 43  1  0
 19 44  1  0
 20 45  1  0
 25 46  1  0
 26 47  1  0
 28 48  1  0
 29 49  1  0
 30 50  1  0
M  END
>  <Energy>  (195) 
20.037537920930777

>  <compound_id>  (195) 
530

>  <target_id>  (195) 
1

>  <reference_id>  (195) 
164

>  <inspiration_ids>  (195) 
[56, 164]

>  <energy_score>  (195) 
-29.80671461949946

>  <distance_score>  (195) 
1.5909921802386346

>  <path>  (195) 
/opt/xchem-fragalysis-2/maxwin/BulkDock/SCRATCH/505733/C530-P164/C530-P164.minimised.mol

>  <scratch_subdir>  (195) 
/opt/xchem-fragalysis-2/maxwin/BulkDock/SCRATCH/505733/C530-P164

>  <fragmenstein_runtime>  (195) 
18.513089656829834

>  <fragmenstein_outcome>  (195) 
too moved

>  <fragmenstein_mode>  (195) 
expansion

>  <fragmenstein_error>  (195) 


$$$$
C530-P56
     RDKit          2D

  0  0  0  0  0  0  0  0  0  0999 V2000
M  END
>  <compound_id>  (196) 
530

>  <target_id>  (196) 
1

>  <reference_id>  (196) 
56

>  <inspiration_ids>  (196) 
[56, 165]

>  <energy_score>  (196) 
nan

>  <distance_score>  (196) 
nan

>  <path>  (196) 
/opt/xchem-fragalysis-2/maxwin/BulkDock/SCRATCH/505733/C530-P56/C530-P56.minimised.mol

>  <scratch_subdir>  (196) 
/opt/xchem-fragalysis-2/maxwin/BulkDock/SCRATCH/505733/C530-P56

>  <fragmenstein_runtime>  (196) 
0.21094322204589844

>  <fragmenstein_outcome>  (196) 
too distant

>  <fragmenstein_mode>  (196) 
expansion

>  <fragmenstein_error>  (196) 
DistanceError: hit0+hit1

$$$$
C531-P56
     RDKit          3D

 51 53  0  0  0  0  0  0  0  0999 V2000
    4.0131   -3.6304   33.7067 C   0  0  0  0  0  0  0  0  0  0  0  0
    2.9398   -2.9746   34.5133 C   0  0  0  0  0  0  0  0  0  0  0  0
    3.3388   -2.5214   35.8006 C   0  0  0  0  0  0  0  0  0  0  0  0
    2.4337   -2.0032   36.7175 C   0  0  0  0  0  0  0  0  0  0  0  0
    1.1075   -1.9252   36.3517 C   0  0  0  0  0  0  0  0  0  0  0  0
    0.1994   -1.6429   37.3052 F   0  0  0  0  0  0  0  0  0  0  0  0
    0.6941   -2.3150   35.0684 C   0  0  0  0  0  0  0  0  0  0  0  0
    1.5973   -2.8772   34.1219 C   0  0  0  0  0  0  0  0  0  0  0  0
    0.9351   -3.6398   33.1155 N   0  0  0  0  0  0  0  0  0  0  0  0
    1.4736   -4.7723   32.1809 C   0  0  0  0  0  0  0  0  0  0  0  0
    2.5586   -5.1917   32.0449 O   0  0  0  0  0  0  0  0  0  0  0  0
    0.3741   -5.4816   31.4206 C   0  0  0  0  0  0  0  0  0  0  0  0
    0.3688   -5.4276   30.0435 C   0  0  0  0  0  0  0  0  0  0  0  0
   -0.4230   -6.3431   29.3543 C   0  0  0  0  0  0  0  0  0  0  0  0
   -1.2095   -7.2861   29.9258 N   0  0  0  0  0  0  0  0  0  0  0  0
   -1.1725   -7.3436   31.2587 C   0  0  0  0  0  0  0  0  0  0  0  0
   -0.4437   -6.4668   32.0508 C   0  0  0  0  0  0  0  0  0  0  0  0
   -0.5543   -6.7595   33.5083 C   0  0  0  0  0  0  0  0  0  0  0  0
   -0.4998   -5.5015   34.3243 C   0  0  0  0  0  0  0  0  0  0  0  0
   -1.0244   -5.6164   35.6463 N   0  0  0  0  0  0  0  0  0  0  0  0
   -0.2181   -6.7319   36.5142 S   0  0  0  0  0  0  0  0  0  0  0  0
    1.0882   -6.9875   35.9444 O   0  0  0  0  0  0  0  0  0  0  0  0
   -1.1643   -7.7965   36.6800 O   0  0  0  0  0  0  0  0  0  0  0  0
   -0.0493   -5.8548   37.8952 N   0  0  0  0  0  0  0  0  0  0  0  0
    0.6231   -4.5775   37.8869 C   0  0  0  0  0  0  0  0  0  0  0  0
    0.8175   -4.2194   39.3524 C   0  0  0  0  0  0  0  0  0  0  0  0
   -0.1099   -5.1224   40.1370 C   0  0  0  0  0  0  0  0  0  0  0  0
   -0.8555   -5.9321   39.0881 C   0  0  0  0  0  0  0  0  0  0  0  0
    3.9223   -3.3669   32.6493 H   0  0  0  0  0  0  0  0  0  0  0  0
    4.0082   -4.7124   33.8623 H   0  0  0  0  0  0  0  0  0  0  0  0
    5.0049   -3.2678   34.0039 H   0  0  0  0  0  0  0  0  0  0  0  0
    4.3760   -2.6428   36.1134 H   0  0  0  0  0  0  0  0  0  0  0  0
    2.7474   -1.7330   37.7191 H   0  0  0  0  0  0  0  0  0  0  0  0
   -0.3758   -2.3073   34.8730 H   0  0  0  0  0  0  0  0  0  0  0  0
   -0.0430   -3.4766   32.9204 H   0  0  0  0  0  0  0  0  0  0  0  0
    1.0110   -4.7397   29.5062 H   0  0  0  0  0  0  0  0  0  0  0  0
   -0.4436   -6.3397   28.2658 H   0  0  0  0  0  0  0  0  0  0  0  0
   -1.7567   -8.1457   31.7032 H   0  0  0  0  0  0  0  0  0  0  0  0
   -1.5049   -7.2672   33.7233 H   0  0  0  0  0  0  0  0  0  0  0  0
    0.2372   -7.4665   33.7638 H   0  0  0  0  0  0  0  0  0  0  0  0
   -1.0588   -4.7074   33.8410 H   0  0  0  0  0  0  0  0  0  0  0  0
    0.5424   -5.2383   34.4699 H   0  0  0  0  0  0  0  0  0  0  0  0
   -2.0343   -5.6504   35.7259 H   0  0  0  0  0  0  0  0  0  0  0  0
   -0.0752   -3.8690   37.4412 H   0  0  0  0  0  0  0  0  0  0  0  0
    1.5594   -4.5865   37.3317 H   0  0  0  0  0  0  0  0  0  0  0  0
    1.8521   -4.3469   39.6736 H   0  0  0  0  0  0  0  0  0  0  0  0
    0.5810   -3.1630   39.5231 H   0  0  0  0  0  0  0  0  0  0  0  0
    0.4478   -5.7446   40.8417 H   0  0  0  0  0  0  0  0  0  0  0  0
   -0.8131   -4.5421   40.7454 H   0  0  0  0  0  0  0  0  0  0  0  0
   -0.9817   -6.9505   39.4488 H   0  0  0  0  0  0  0  0  0  0  0  0
   -1.8085   -5.4434   38.9027 H   0  0  0  0  0  0  0  0  0  0  0  0
  1  2  1  0
  2  3  2  0
  3  4  1  0
  4  5  2  0
  5  6  1  0
  5  7  1  0
  7  8  2  0
  8  9  1  0
  9 10  1  0
 10 11  2  0
 10 12  1  0
 12 13  2  0
 13 14  1  0
 14 15  2  0
 15 16  1  0
 16 17  2  0
 17 18  1  0
 18 19  1  0
 19 20  1  0
 20 21  1  0
 21 22  2  0
 21 23  2  0
 21 24  1  0
 24 25  1  0
 25 26  1  0
 26 27  1  0
 27 28  1  0
  8  2  1  0
 17 12  1  0
 28 24  1  0
  1 29  1  0
  1 30  1  0
  1 31  1  0
  3 32  1  0
  4 33  1  0
  7 34  1  0
  9 35  1  0
 13 36  1  0
 14 37  1  0
 16 38  1  0
 18 39  1  0
 18 40  1  0
 19 41  1  0
 19 42  1  0
 20 43  1  0
 25 44  1  0
 25 45  1  0
 26 46  1  0
 26 47  1  0
 27 48  1  0
 27 49  1  0
 28 50  1  0
 28 51  1  0
M  END
>  <Energy>  (197) 
-85.652334900769432

>  <compound_id>  (197) 
531

>  <target_id>  (197) 
1

>  <reference_id>  (197) 
56

>  <inspiration_ids>  (197) 
[56, 166]

>  <energy_score>  (197) 
-16.299741127927746

>  <distance_score>  (197) 
2.824636127378378

>  <path>  (197) 
/opt/xchem-fragalysis-2/maxwin/BulkDock/SCRATCH/505733/C531-P56/C531-P56.minimised.mol

>  <scratch_subdir>  (197) 
/opt/xchem-fragalysis-2/maxwin/BulkDock/SCRATCH/505733/C531-P56

>  <fragmenstein_runtime>  (197) 
4.184458494186401

>  <fragmenstein_outcome>  (197) 
too moved

>  <fragmenstein_mode>  (197) 
expansion

>  <fragmenstein_error>  (197) 


$$$$
C531-P166
     RDKit          3D

 51 53  0  0  0  0  0  0  0  0999 V2000
    3.7679   -3.7252   34.7579 C   0  0  0  0  0  0  0  0  0  0  0  0
    2.7615   -3.4209   35.8289 C   0  0  0  0  0  0  0  0  0  0  0  0
    3.1853   -2.9266   37.0720 C   0  0  0  0  0  0  0  0  0  0  0  0
    2.2683   -2.7107   38.1031 C   0  0  0  0  0  0  0  0  0  0  0  0
    0.9191   -2.9480   37.8816 C   0  0  0  0  0  0  0  0  0  0  0  0
    0.0557   -2.8454   38.9028 F   0  0  0  0  0  0  0  0  0  0  0  0
    0.4679   -3.3704   36.6392 C   0  0  0  0  0  0  0  0  0  0  0  0
    1.3995   -3.6654   35.6332 C   0  0  0  0  0  0  0  0  0  0  0  0
    0.9773   -4.4826   34.5897 N   0  0  0  0  0  0  0  0  0  0  0  0
   -0.3826   -4.5907   33.9009 C   0  0  0  0  0  0  0  0  0  0  0  0
   -1.3480   -3.9631   34.0398 O   0  0  0  0  0  0  0  0  0  0  0  0
   -0.4550   -5.7555   32.9932 C   0  0  0  0  0  0  0  0  0  0  0  0
   -0.0461   -5.6420   31.6779 C   0  0  0  0  0  0  0  0  0  0  0  0
   -0.3301   -6.7047   30.8408 C   0  0  0  0  0  0  0  0  0  0  0  0
   -0.9853   -7.8276   31.2113 N   0  0  0  0  0  0  0  0  0  0  0  0
   -1.3369   -7.9188   32.5103 C   0  0  0  0  0  0  0  0  0  0  0  0
   -1.0917   -6.9252   33.4506 C   0  0  0  0  0  0  0  0  0  0  0  0
   -1.5518   -7.1101   34.8724 C   0  0  0  0  0  0  0  0  0  0  0  0
   -0.4587   -7.1101   35.9329 C   0  0  0  0  0  0  0  0  0  0  0  0
    0.5474   -8.0911   35.5699 N   0  0  0  0  0  0  0  0  0  0  0  0
    2.1273   -7.9019   36.0237 S   0  0  0  0  0  0  0  0  0  0  0  0
    2.8678   -8.8849   35.2697 O   0  0  0  0  0  0  0  0  0  0  0  0
    2.4898   -6.5157   35.9224 O   0  0  0  0  0  0  0  0  0  0  0  0
    2.0457   -8.3488   37.6144 N   0  0  0  0  0  0  0  0  0  0  0  0
    1.2575   -7.5372   38.5708 C   0  0  0  0  0  0  0  0  0  0  0  0
    2.0620   -7.5206   39.8608 C   0  0  0  0  0  0  0  0  0  0  0  0
    2.9324   -8.7543   39.7505 C   0  0  0  0  0  0  0  0  0  0  0  0
    3.2999   -8.7544   38.2749 C   0  0  0  0  0  0  0  0  0  0  0  0
    4.0800   -4.7719   34.8015 H   0  0  0  0  0  0  0  0  0  0  0  0
    4.6585   -3.0980   34.8758 H   0  0  0  0  0  0  0  0  0  0  0  0
    3.3645   -3.5110   33.7625 H   0  0  0  0  0  0  0  0  0  0  0  0
    4.2417   -2.7430   37.2557 H   0  0  0  0  0  0  0  0  0  0  0  0
    2.6018   -2.3748   39.0795 H   0  0  0  0  0  0  0  0  0  0  0  0
   -0.5892   -3.5821   36.5127 H   0  0  0  0  0  0  0  0  0  0  0  0
    1.5732   -5.2474   34.2853 H   0  0  0  0  0  0  0  0  0  0  0  0
    0.4224   -4.7409   31.2993 H   0  0  0  0  0  0  0  0  0  0  0  0
   -0.0481   -6.6585   29.7976 H   0  0  0  0  0  0  0  0  0  0  0  0
   -1.8517   -8.8371   32.7761 H   0  0  0  0  0  0  0  0  0  0  0  0
   -2.2423   -6.3100   35.1246 H   0  0  0  0  0  0  0  0  0  0  0  0
   -2.1203   -8.0455   34.9492 H   0  0  0  0  0  0  0  0  0  0  0  0
   -0.0345   -6.1226   36.0627 H   0  0  0  0  0  0  0  0  0  0  0  0
   -0.8985   -7.3773   36.8910 H   0  0  0  0  0  0  0  0  0  0  0  0
    0.2052   -9.0431   35.7298 H   0  0  0  0  0  0  0  0  0  0  0  0
    0.2965   -8.0334   38.7375 H   0  0  0  0  0  0  0  0  0  0  0  0
    1.0814   -6.5149   38.2269 H   0  0  0  0  0  0  0  0  0  0  0  0
    2.6897   -6.6218   39.8978 H   0  0  0  0  0  0  0  0  0  0  0  0
    1.4270   -7.5246   40.7513 H   0  0  0  0  0  0  0  0  0  0  0  0
    3.8103   -8.7142   40.4010 H   0  0  0  0  0  0  0  0  0  0  0  0
    2.3538   -9.6510   40.0024 H   0  0  0  0  0  0  0  0  0  0  0  0
    4.0919   -8.0233   38.0765 H   0  0  0  0  0  0  0  0  0  0  0  0
    3.6268   -9.7446   37.9501 H   0  0  0  0  0  0  0  0  0  0  0  0
  1  2  1  0
  2  3  2  0
  3  4  1  0
  4  5  2  0
  5  6  1  0
  5  7  1  0
  7  8  2  0
  8  9  1  0
  9 10  1  0
 10 11  2  0
 10 12  1  0
 12 13  2  0
 13 14  1  0
 14 15  2  0
 15 16  1  0
 16 17  2  0
 17 18  1  0
 18 19  1  0
 19 20  1  0
 20 21  1  0
 21 22  2  0
 21 23  2  0
 21 24  1  0
 24 25  1  0
 25 26  1  0
 26 27  1  0
 27 28  1  0
  8  2  1  0
 17 12  1  0
 28 24  1  0
  1 29  1  0
  1 30  1  0
  1 31  1  0
  3 32  1  0
  4 33  1  0
  7 34  1  0
  9 35  1  0
 13 36  1  0
 14 37  1  0
 16 38  1  0
 18 39  1  0
 18 40  1  0
 19 41  1  0
 19 42  1  0
 20 43  1  0
 25 44  1  0
 25 45  1  0
 26 46  1  0
 26 47  1  0
 27 48  1  0
 27 49  1  0
 28 50  1  0
 28 51  1  0
M  END
>  <Energy>  (198) 
-130.80679528497387

>  <compound_id>  (198) 
531

>  <target_id>  (198) 
1

>  <reference_id>  (198) 
166

>  <inspiration_ids>  (198) 
[56, 166]

>  <energy_score>  (198) 
-61.45420151213121

>  <distance_score>  (198) 
1.4602814809203348

>  <path>  (198) 
/opt/xchem-fragalysis-2/maxwin/BulkDock/SCRATCH/505733/C531-P166/C531-P166.minimised.mol

>  <scratch_subdir>  (198) 
/opt/xchem-fragalysis-2/maxwin/BulkDock/SCRATCH/505733/C531-P166

>  <fragmenstein_runtime>  (198) 
4.063945293426514

>  <fragmenstein_outcome>  (198) 
too moved

>  <fragmenstein_mode>  (198) 
expansion

>  <fragmenstein_error>  (198) 


$$$$
C532-P56
     RDKit          3D

 49 51  0  0  0  0  0  0  0  0999 V2000
    2.3409   -2.4765   34.2752 C   0  0  0  0  0  0  0  0  0  0  0  0
    1.4535   -2.4421   35.4876 C   0  0  0  0  0  0  0  0  0  0  0  0
    2.1094   -2.1208   36.7013 C   0  0  0  0  0  0  0  0  0  0  0  0
    1.4558   -2.1956   37.9259 C   0  0  0  0  0  0  0  0  0  0  0  0
    0.1172   -2.5315   37.9467 C   0  0  0  0  0  0  0  0  0  0  0  0
   -0.4950   -2.7079   39.1257 F   0  0  0  0  0  0  0  0  0  0  0  0
   -0.5770   -2.7873   36.7661 C   0  0  0  0  0  0  0  0  0  0  0  0
    0.0912   -2.8340   35.5264 C   0  0  0  0  0  0  0  0  0  0  0  0
   -0.4553   -3.7991   34.6489 N   0  0  0  0  0  0  0  0  0  0  0  0
   -0.0762   -4.1655   33.2042 C   0  0  0  0  0  0  0  0  0  0  0  0
    0.6964   -3.6777   32.4776 O   0  0  0  0  0  0  0  0  0  0  0  0
   -0.7893   -5.4484   32.7319 C   0  0  0  0  0  0  0  0  0  0  0  0
   -0.6154   -5.6755   31.3526 C   0  0  0  0  0  0  0  0  0  0  0  0
   -0.9436   -6.8936   30.7816 C   0  0  0  0  0  0  0  0  0  0  0  0
   -1.5193   -7.8977   31.4539 N   0  0  0  0  0  0  0  0  0  0  0  0
   -1.5962   -7.7198   32.7913 C   0  0  0  0  0  0  0  0  0  0  0  0
   -1.2108   -6.5629   33.5227 C   0  0  0  0  0  0  0  0  0  0  0  0
   -1.3364   -6.7863   35.0347 C   0  0  0  0  0  0  0  0  0  0  0  0
   -0.6081   -6.1832   36.2745 C   0  0  0  0  0  0  0  0  0  0  0  0
    0.8510   -5.8884   36.2317 N   0  0  0  0  0  0  0  0  0  0  0  0
    1.7005   -6.6781   35.0377 S   0  0  0  0  0  0  0  0  0  0  0  0
    1.0591   -7.9610   35.1346 O   0  0  0  0  0  0  0  0  0  0  0  0
    1.6866   -5.8236   33.8862 O   0  0  0  0  0  0  0  0  0  0  0  0
    3.4045   -6.9491   35.2947 C   0  0  0  0  0  0  0  0  0  0  0  0
    4.4189   -6.0505   34.9222 C   0  0  0  0  0  0  0  0  0  0  0  0
    5.5913   -6.6707   35.2867 C   0  0  0  0  0  0  0  0  0  0  0  0
    5.2226   -7.8251   35.9031 N   0  0  0  0  0  0  0  0  0  0  0  0
    6.0899   -8.7586   36.5740 C   0  0  0  0  0  0  0  0  0  0  0  0
    3.9300   -8.0981   35.7462 N   0  0  0  0  0  0  0  0  0  0  0  0
    2.5987   -3.4959   33.9946 H   0  0  0  0  0  0  0  0  0  0  0  0
    3.2876   -1.9548   34.4612 H   0  0  0  0  0  0  0  0  0  0  0  0
    1.8736   -1.9293   33.4523 H   0  0  0  0  0  0  0  0  0  0  0  0
    3.1688   -1.8663   36.6988 H   0  0  0  0  0  0  0  0  0  0  0  0
    1.9864   -2.0125   38.8540 H   0  0  0  0  0  0  0  0  0  0  0  0
   -1.6138   -3.0988   36.8508 H   0  0  0  0  0  0  0  0  0  0  0  0
   -1.2209   -4.3785   34.9521 H   0  0  0  0  0  0  0  0  0  0  0  0
   -0.1545   -4.9228   30.7162 H   0  0  0  0  0  0  0  0  0  0  0  0
   -0.7501   -7.0779   29.7277 H   0  0  0  0  0  0  0  0  0  0  0  0
   -1.9743   -8.6033   33.3081 H   0  0  0  0  0  0  0  0  0  0  0  0
   -1.2401   -7.8723   35.1901 H   0  0  0  0  0  0  0  0  0  0  0  0
   -2.3939   -6.6431   35.2391 H   0  0  0  0  0  0  0  0  0  0  0  0
   -0.7526   -6.9032   37.0868 H   0  0  0  0  0  0  0  0  0  0  0  0
   -1.1500   -5.3129   36.6405 H   0  0  0  0  0  0  0  0  0  0  0  0
    1.0880   -4.8974   36.2172 H   0  0  0  0  0  0  0  0  0  0  0  0
    4.3081   -5.0832   34.4565 H   0  0  0  0  0  0  0  0  0  0  0  0
    6.6216   -6.3535   35.2236 H   0  0  0  0  0  0  0  0  0  0  0  0
    7.0787   -8.7286   36.1099 H   0  0  0  0  0  0  0  0  0  0  0  0
    5.6709   -9.7625   36.4866 H   0  0  0  0  0  0  0  0  0  0  0  0
    6.1523   -8.4668   37.6251 H   0  0  0  0  0  0  0  0  0  0  0  0
  1  2  1  0
  2  3  2  0
  3  4  1  0
  4  5  2  0
  5  6  1  0
  5  7  1  0
  7  8  2  0
  8  9  1  0
  9 10  1  0
 10 11  2  0
 10 12  1  0
 12 13  2  0
 13 14  1  0
 14 15  2  0
 15 16  1  0
 16 17  2  0
 17 18  1  0
 18 19  1  0
 19 20  1  0
 20 21  1  0
 21 22  2  0
 21 23  2  0
 21 24  1  0
 24 25  1  0
 25 26  2  0
 26 27  1  0
 27 28  1  0
 27 29  1  0
  8  2  1  0
 17 12  1  0
 29 24  2  0
  1 30  1  0
  1 31  1  0
  1 32  1  0
  3 33  1  0
  4 34  1  0
  7 35  1  0
  9 36  1  0
 13 37  1  0
 14 38  1  0
 16 39  1  0
 18 40  1  0
 18 41  1  0
 19 42  1  0
 19 43  1  0
 20 44  1  0
 25 45  1  0
 26 46  1  0
 28 47  1  0
 28 48  1  0
 28 49  1  0
M  END
>  <Energy>  (199) 
141.333456124365

>  <compound_id>  (199) 
532

>  <target_id>  (199) 
1

>  <reference_id>  (199) 
56

>  <inspiration_ids>  (199) 
[56, 167]

>  <energy_score>  (199) 
29.670108315304162

>  <distance_score>  (199) 
2.466424899672206

>  <path>  (199) 
/opt/xchem-fragalysis-2/maxwin/BulkDock/SCRATCH/505733/C532-P56/C532-P56.minimised.mol

>  <scratch_subdir>  (199) 
/opt/xchem-fragalysis-2/maxwin/BulkDock/SCRATCH/505733/C532-P56

>  <fragmenstein_runtime>  (199) 
5.3771398067474365

>  <fragmenstein_outcome>  (199) 
too moved

>  <fragmenstein_mode>  (199) 
expansion

>  <fragmenstein_error>  (199) 


$$$$
C532-P167
     RDKit          3D

 49 51  0  0  0  0  0  0  0  0999 V2000
    3.3261   -3.7436   34.8300 C   0  0  0  0  0  0  0  0  0  0  0  0
    2.3365   -3.6136   35.9516 C   0  0  0  0  0  0  0  0  0  0  0  0
    2.7930   -3.0378   37.1533 C   0  0  0  0  0  0  0  0  0  0  0  0
    1.9317   -2.8437   38.2316 C   0  0  0  0  0  0  0  0  0  0  0  0
    0.5981   -3.1888   38.1007 C   0  0  0  0  0  0  0  0  0  0  0  0
   -0.2319   -3.0453   39.1427 F   0  0  0  0  0  0  0  0  0  0  0  0
    0.1163   -3.7283   36.9159 C   0  0  0  0  0  0  0  0  0  0  0  0
    0.9950   -4.0104   35.8622 C   0  0  0  0  0  0  0  0  0  0  0  0
    0.4732   -4.8354   34.8618 N   0  0  0  0  0  0  0  0  0  0  0  0
    1.1653   -5.8889   33.9664 C   0  0  0  0  0  0  0  0  0  0  0  0
    2.2927   -6.1778   33.8703 O   0  0  0  0  0  0  0  0  0  0  0  0
    0.1886   -6.6166   33.1493 C   0  0  0  0  0  0  0  0  0  0  0  0
    0.3003   -6.3869   31.7766 C   0  0  0  0  0  0  0  0  0  0  0  0
   -0.4904   -7.1235   30.9259 C   0  0  0  0  0  0  0  0  0  0  0  0
   -1.4032   -8.0128   31.3418 N   0  0  0  0  0  0  0  0  0  0  0  0
   -1.4828   -8.2036   32.6821 C   0  0  0  0  0  0  0  0  0  0  0  0
   -0.7019   -7.5635   33.6541 C   0  0  0  0  0  0  0  0  0  0  0  0
   -0.8079   -8.1057   35.0612 C   0  0  0  0  0  0  0  0  0  0  0  0
   -0.4525   -7.3605   36.3395 C   0  0  0  0  0  0  0  0  0  0  0  0
    0.9803   -7.3090   36.5927 N   0  0  0  0  0  0  0  0  0  0  0  0
    1.4810   -7.8747   38.1183 S   0  0  0  0  0  0  0  0  0  0  0  0
    1.8328   -6.7099   38.8960 O   0  0  0  0  0  0  0  0  0  0  0  0
    0.5919   -8.8927   38.6095 O   0  0  0  0  0  0  0  0  0  0  0  0
    2.9782   -8.6922   37.7851 C   0  0  0  0  0  0  0  0  0  0  0  0
    3.5865   -8.6973   36.5037 C   0  0  0  0  0  0  0  0  0  0  0  0
    4.6788   -9.5154   36.6463 C   0  0  0  0  0  0  0  0  0  0  0  0
    4.6733   -9.9244   37.9531 N   0  0  0  0  0  0  0  0  0  0  0  0
    5.6175  -10.8149   38.5846 C   0  0  0  0  0  0  0  0  0  0  0  0
    3.6742   -9.4141   38.6774 N   0  0  0  0  0  0  0  0  0  0  0  0
    4.0372   -2.9091   34.8526 H   0  0  0  0  0  0  0  0  0  0  0  0
    2.8391   -3.6896   33.8521 H   0  0  0  0  0  0  0  0  0  0  0  0
    3.8982   -4.6701   34.9284 H   0  0  0  0  0  0  0  0  0  0  0  0
    3.8375   -2.7486   37.2588 H   0  0  0  0  0  0  0  0  0  0  0  0
    2.2956   -2.4339   39.1681 H   0  0  0  0  0  0  0  0  0  0  0  0
   -0.9257   -4.0199   36.8735 H   0  0  0  0  0  0  0  0  0  0  0  0
   -0.5195   -4.7903   34.6299 H   0  0  0  0  0  0  0  0  0  0  0  0
    1.0232   -5.6806   31.3801 H   0  0  0  0  0  0  0  0  0  0  0  0
   -0.4074   -7.0069   29.8537 H   0  0  0  0  0  0  0  0  0  0  0  0
   -2.2264   -8.9417   32.9710 H   0  0  0  0  0  0  0  0  0  0  0  0
   -0.2166   -9.0173   35.0907 H   0  0  0  0  0  0  0  0  0  0  0  0
   -1.8550   -8.4116   35.1796 H   0  0  0  0  0  0  0  0  0  0  0  0
   -0.8811   -7.9406   37.1534 H   0  0  0  0  0  0  0  0  0  0  0  0
   -0.8770   -6.3590   36.3591 H   0  0  0  0  0  0  0  0  0  0  0  0
    1.3918   -6.3833   36.4642 H   0  0  0  0  0  0  0  0  0  0  0  0
    3.2604   -8.1905   35.6070 H   0  0  0  0  0  0  0  0  0  0  0  0
    5.4417   -9.8368   35.9510 H   0  0  0  0  0  0  0  0  0  0  0  0
    6.1022  -10.2788   39.4043 H   0  0  0  0  0  0  0  0  0  0  0  0
    5.0720  -11.6840   38.9609 H   0  0  0  0  0  0  0  0  0  0  0  0
    6.3642  -11.1317   37.8523 H   0  0  0  0  0  0  0  0  0  0  0  0
  1  2  1  0
  2  3  2  0
  3  4  1  0
  4  5  2  0
  5  6  1  0
  5  7  1  0
  7  8  2  0
  8  9  1  0
  9 10  1  0
 10 11  2  0
 10 12  1  0
 12 13  2  0
 13 14  1  0
 14 15  2  0
 15 16  1  0
 16 17  2  0
 17 18  1  0
 18 19  1  0
 19 20  1  0
 20 21  1  0
 21 22  2  0
 21 23  2  0
 21 24  1  0
 24 25  1  0
 25 26  2  0
 26 27  1  0
 27 28  1  0
 27 29  1  0
  8  2  1  0
 17 12  1  0
 29 24  2  0
  1 30  1  0
  1 31  1  0
  1 32  1  0
  3 33  1  0
  4 34  1  0
  7 35  1  0
  9 36  1  0
 13 37  1  0
 14 38  1  0
 16 39  1  0
 18 40  1  0
 18 41  1  0
 19 42  1  0
 19 43  1  0
 20 44  1  0
 25 45  1  0
 26 46  1  0
 28 47  1  0
 28 48  1  0
 28 49  1  0
M  END
>  <Energy>  (200) 
89.117908571480214

>  <compound_id>  (200) 
532

>  <target_id>  (200) 
1

>  <reference_id>  (200) 
167

>  <inspiration_ids>  (200) 
[56, 167]

>  <energy_score>  (200) 
-22.545439237582684

>  <distance_score>  (200) 
1.2953621665164545

>  <path>  (200) 
/opt/xchem-fragalysis-2/maxwin/BulkDock/SCRATCH/505733/C532-P167/C532-P167.minimised.mol

>  <scratch_subdir>  (200) 
/opt/xchem-fragalysis-2/maxwin/BulkDock/SCRATCH/505733/C532-P167

>  <fragmenstein_runtime>  (200) 
3.4063994884490967

>  <fragmenstein_outcome>  (200) 
too moved

>  <fragmenstein_mode>  (200) 
expansion

>  <fragmenstein_error>  (200) 


$$$$
C532-P56
     RDKit          3D

 49 51  0  0  0  0  0  0  0  0999 V2000
    2.3637   -3.1757   34.8432 C   0  0  0  0  0  0  0  0  0  0  0  0
    1.6346   -3.3460   36.1440 C   0  0  0  0  0  0  0  0  0  0  0  0
    2.0830   -2.6223   37.2595 C   0  0  0  0  0  0  0  0  0  0  0  0
    1.5254   -2.8464   38.5146 C   0  0  0  0  0  0  0  0  0  0  0  0
    0.5380   -3.8108   38.6599 C   0  0  0  0  0  0  0  0  0  0  0  0
   -0.0035   -4.0132   39.8672 F   0  0  0  0  0  0  0  0  0  0  0  0
    0.0957   -4.5605   37.5793 C   0  0  0  0  0  0  0  0  0  0  0  0
    0.6301   -4.3158   36.3174 C   0  0  0  0  0  0  0  0  0  0  0  0
    0.1662   -5.0485   35.2321 N   0  0  0  0  0  0  0  0  0  0  0  0
   -0.2481   -6.5286   35.1272 C   0  0  0  0  0  0  0  0  0  0  0  0
   -0.3392   -7.3491   35.9525 O   0  0  0  0  0  0  0  0  0  0  0  0
   -0.6222   -6.9688   33.7212 C   0  0  0  0  0  0  0  0  0  0  0  0
   -1.5672   -8.0161   33.7151 C   0  0  0  0  0  0  0  0  0  0  0  0
   -2.0204   -8.5262   32.5186 C   0  0  0  0  0  0  0  0  0  0  0  0
   -1.6125   -8.0708   31.3234 N   0  0  0  0  0  0  0  0  0  0  0  0
   -0.6588   -7.1054   31.3413 C   0  0  0  0  0  0  0  0  0  0  0  0
   -0.1070   -6.5113   32.4846 C   0  0  0  0  0  0  0  0  0  0  0  0
    0.9505   -5.4323   32.3385 C   0  0  0  0  0  0  0  0  0  0  0  0
    1.8479   -5.4082   31.0914 C   0  0  0  0  0  0  0  0  0  0  0  0
    2.5565   -4.1254   30.9296 N   0  0  0  0  0  0  0  0  0  0  0  0
    4.0470   -3.9019   31.6828 S   0  0  0  0  0  0  0  0  0  0  0  0
    4.0902   -2.4915   32.0118 O   0  0  0  0  0  0  0  0  0  0  0  0
    4.2383   -4.9224   32.6846 O   0  0  0  0  0  0  0  0  0  0  0  0
    5.3740   -4.1302   30.5507 C   0  0  0  0  0  0  0  0  0  0  0  0
    6.1173   -3.0564   30.0019 C   0  0  0  0  0  0  0  0  0  0  0  0
    7.1563   -3.6499   29.3272 C   0  0  0  0  0  0  0  0  0  0  0  0
    7.0019   -4.9900   29.5070 N   0  0  0  0  0  0  0  0  0  0  0  0
    7.9351   -6.0211   29.1225 C   0  0  0  0  0  0  0  0  0  0  0  0
    5.8628   -5.3272   30.1457 N   0  0  0  0  0  0  0  0  0  0  0  0
    2.9624   -4.0685   34.6565 H   0  0  0  0  0  0  0  0  0  0  0  0
    1.6639   -3.0042   34.0209 H   0  0  0  0  0  0  0  0  0  0  0  0
    3.0399   -2.3145   34.8700 H   0  0  0  0  0  0  0  0  0  0  0  0
    2.8891   -1.8993   37.1605 H   0  0  0  0  0  0  0  0  0  0  0  0
    1.8665   -2.2917   39.3815 H   0  0  0  0  0  0  0  0  0  0  0  0
   -0.6748   -5.3077   37.7334 H   0  0  0  0  0  0  0  0  0  0  0  0
    0.2160   -4.6504   34.3166 H   0  0  0  0  0  0  0  0  0  0  0  0
   -1.9528   -8.4389   34.6414 H   0  0  0  0  0  0  0  0  0  0  0  0
   -2.7509   -9.3292   32.4969 H   0  0  0  0  0  0  0  0  0  0  0  0
   -0.3424   -6.8265   30.3403 H   0  0  0  0  0  0  0  0  0  0  0  0
    1.6338   -5.5002   33.1896 H   0  0  0  0  0  0  0  0  0  0  0  0
    0.4263   -4.4692   32.3811 H   0  0  0  0  0  0  0  0  0  0  0  0
    1.2650   -5.5348   30.1770 H   0  0  0  0  0  0  0  0  0  0  0  0
    2.5667   -6.2160   31.1470 H   0  0  0  0  0  0  0  0  0  0  0  0
    1.9942   -3.2752   30.9600 H   0  0  0  0  0  0  0  0  0  0  0  0
    5.9438   -1.9962   30.1309 H   0  0  0  0  0  0  0  0  0  0  0  0
    7.9898   -3.2283   28.7822 H   0  0  0  0  0  0  0  0  0  0  0  0
    7.3991   -6.7792   28.5467 H   0  0  0  0  0  0  0  0  0  0  0  0
    8.3541   -6.4582   30.0322 H   0  0  0  0  0  0  0  0  0  0  0  0
    8.7313   -5.5847   28.5146 H   0  0  0  0  0  0  0  0  0  0  0  0
  1  2  1  0
  2  3  2  0
  3  4  1  0
  4  5  2  0
  5  6  1  0
  5  7  1  0
  7  8  2  0
  8  9  1  0
  9 10  1  0
 10 11  2  0
 10 12  1  0
 12 13  2  0
 13 14  1  0
 14 15  2  0
 15 16  1  0
 16 17  2  0
 17 18  1  0
 18 19  1  0
 19 20  1  0
 20 21  1  0
 21 22  2  0
 21 23  2  0
 21 24  1  0
 24 25  1  0
 25 26  2  0
 26 27  1  0
 27 28  1  0
 27 29  1  0
  8  2  1  0
 17 12  1  0
 29 24  2  0
  1 30  1  0
  1 31  1  0
  1 32  1  0
  3 33  1  0
  4 34  1  0
  7 35  1  0
  9 36  1  0
 13 37  1  0
 14 38  1  0
 16 39  1  0
 18 40  1  0
 18 41  1  0
 19 42  1  0
 19 43  1  0
 20 44  1  0
 25 45  1  0
 26 46  1  0
 28 47  1  0
 28 48  1  0
 28 49  1  0
M  END
>  <Energy>  (201) 
84.168351287954906

>  <compound_id>  (201) 
532

>  <target_id>  (201) 
1

>  <reference_id>  (201) 
56

>  <inspiration_ids>  (201) 
[56, 168]

>  <energy_score>  (201) 
-41.46757339259821

>  <distance_score>  (201) 
0.729752290625912

>  <path>  (201) 
/opt/xchem-fragalysis-2/maxwin/BulkDock/SCRATCH/505733/C532-P56/C532-P56.minimised.mol

>  <scratch_subdir>  (201) 
/opt/xchem-fragalysis-2/maxwin/BulkDock/SCRATCH/505733/C532-P56

>  <fragmenstein_runtime>  (201) 
3.730015754699707

>  <fragmenstein_outcome>  (201) 
acceptable

>  <fragmenstein_mode>  (201) 
expansion

>  <fragmenstein_error>  (201) 


$$$$
C532-P168
     RDKit          3D

 49 51  0  0  0  0  0  0  0  0999 V2000
    1.9648   -2.4128   34.9794 C   0  0  0  0  0  0  0  0  0  0  0  0
    1.4001   -2.8565   36.3005 C   0  0  0  0  0  0  0  0  0  0  0  0
    1.9254   -2.2639   37.4595 C   0  0  0  0  0  0  0  0  0  0  0  0
    1.5007   -2.6751   38.7186 C   0  0  0  0  0  0  0  0  0  0  0  0
    0.5701   -3.6978   38.8247 C   0  0  0  0  0  0  0  0  0  0  0  0
    0.1384   -4.0635   40.0358 F   0  0  0  0  0  0  0  0  0  0  0  0
    0.0740   -4.3410   37.7023 C   0  0  0  0  0  0  0  0  0  0  0  0
    0.4718   -3.9108   36.4402 C   0  0  0  0  0  0  0  0  0  0  0  0
    0.0441   -4.6116   35.3162 N   0  0  0  0  0  0  0  0  0  0  0  0
   -0.4100   -6.0785   35.1621 C   0  0  0  0  0  0  0  0  0  0  0  0
   -0.5706   -6.9085   35.9659 O   0  0  0  0  0  0  0  0  0  0  0  0
   -0.5644   -6.4868   33.7205 C   0  0  0  0  0  0  0  0  0  0  0  0
   -1.4660   -7.5319   33.5226 C   0  0  0  0  0  0  0  0  0  0  0  0
   -1.6731   -8.0104   32.2476 C   0  0  0  0  0  0  0  0  0  0  0  0
   -1.0709   -7.5372   31.1485 N   0  0  0  0  0  0  0  0  0  0  0  0
   -0.1516   -6.5811   31.3636 C   0  0  0  0  0  0  0  0  0  0  0  0
    0.1771   -6.0313   32.6134 C   0  0  0  0  0  0  0  0  0  0  0  0
    1.3676   -5.1015   32.6361 C   0  0  0  0  0  0  0  0  0  0  0  0
    2.6257   -5.7002   33.2607 C   0  0  0  0  0  0  0  0  0  0  0  0
    2.6811   -5.6991   34.7167 N   0  0  0  0  0  0  0  0  0  0  0  0
    3.5281   -6.9351   35.4930 S   0  0  0  0  0  0  0  0  0  0  0  0
    3.3139   -6.7751   36.9115 O   0  0  0  0  0  0  0  0  0  0  0  0
    3.2261   -8.1728   34.7967 O   0  0  0  0  0  0  0  0  0  0  0  0
    5.2501   -6.7077   35.2769 C   0  0  0  0  0  0  0  0  0  0  0  0
    6.2292   -7.3148   36.0962 C   0  0  0  0  0  0  0  0  0  0  0  0
    7.4307   -6.8862   35.5837 C   0  0  0  0  0  0  0  0  0  0  0  0
    7.1266   -6.0769   34.5289 N   0  0  0  0  0  0  0  0  0  0  0  0
    8.0611   -5.3814   33.6765 C   0  0  0  0  0  0  0  0  0  0  0  0
    5.8032   -5.9538   34.3031 N   0  0  0  0  0  0  0  0  0  0  0  0
    2.7336   -3.1003   34.6257 H   0  0  0  0  0  0  0  0  0  0  0  0
    1.1716   -2.3003   34.2358 H   0  0  0  0  0  0  0  0  0  0  0  0
    2.4287   -1.4233   35.0683 H   0  0  0  0  0  0  0  0  0  0  0  0
    2.6695   -1.4729   37.3910 H   0  0  0  0  0  0  0  0  0  0  0  0
    1.8864   -2.2072   39.6187 H   0  0  0  0  0  0  0  0  0  0  0  0
   -0.6287   -5.1573   37.8376 H   0  0  0  0  0  0  0  0  0  0  0  0
   -0.0019   -4.1508   34.4245 H   0  0  0  0  0  0  0  0  0  0  0  0
   -2.0027   -7.9812   34.3540 H   0  0  0  0  0  0  0  0  0  0  0  0
   -2.3726   -8.8049   32.0702 H   0  0  0  0  0  0  0  0  0  0  0  0
    0.3631   -6.2680   30.4572 H   0  0  0  0  0  0  0  0  0  0  0  0
    1.1248   -4.1166   33.0205 H   0  0  0  0  0  0  0  0  0  0  0  0
    1.6341   -4.8802   31.5917 H   0  0  0  0  0  0  0  0  0  0  0  0
    3.4982   -5.1499   32.8947 H   0  0  0  0  0  0  0  0  0  0  0  0
    2.6724   -6.7166   32.9018 H   0  0  0  0  0  0  0  0  0  0  0  0
    1.8539   -5.4681   35.2619 H   0  0  0  0  0  0  0  0  0  0  0  0
    6.0685   -7.9656   36.9455 H   0  0  0  0  0  0  0  0  0  0  0  0
    8.4513   -7.0827   35.8832 H   0  0  0  0  0  0  0  0  0  0  0  0
    7.9141   -5.7284   32.6506 H   0  0  0  0  0  0  0  0  0  0  0  0
    7.8635   -4.3093   33.7526 H   0  0  0  0  0  0  0  0  0  0  0  0
    9.0817   -5.5977   34.0017 H   0  0  0  0  0  0  0  0  0  0  0  0
  1  2  1  0
  2  3  2  0
  3  4  1  0
  4  5  2  0
  5  6  1  0
  5  7  1  0
  7  8  2  0
  8  9  1  0
  9 10  1  0
 10 11  2  0
 10 12  1  0
 12 13  2  0
 13 14  1  0
 14 15  2  0
 15 16  1  0
 16 17  2  0
 17 18  1  0
 18 19  1  0
 19 20  1  0
 20 21  1  0
 21 22  2  0
 21 23  2  0
 21 24  1  0
 24 25  1  0
 25 26  2  0
 26 27  1  0
 27 28  1  0
 27 29  1  0
  8  2  1  0
 17 12  1  0
 29 24  2  0
  1 30  1  0
  1 31  1  0
  1 32  1  0
  3 33  1  0
  4 34  1  0
  7 35  1  0
  9 36  1  0
 13 37  1  0
 14 38  1  0
 16 39  1  0
 18 40  1  0
 18 41  1  0
 19 42  1  0
 19 43  1  0
 20 44  1  0
 25 45  1  0
 26 46  1  0
 28 47  1  0
 28 48  1  0
 28 49  1  0
M  END
>  <Energy>  (202) 
80.211807766684728

>  <compound_id>  (202) 
532

>  <target_id>  (202) 
1

>  <reference_id>  (202) 
168

>  <inspiration_ids>  (202) 
[56, 168]

>  <energy_score>  (202) 
-45.42411691387019

>  <distance_score>  (202) 
1.0501031687638878

>  <path>  (202) 
/opt/xchem-fragalysis-2/maxwin/BulkDock/SCRATCH/505733/C532-P168/C532-P168.minimised.mol

>  <scratch_subdir>  (202) 
/opt/xchem-fragalysis-2/maxwin/BulkDock/SCRATCH/505733/C532-P168

>  <fragmenstein_runtime>  (202) 
4.161422491073608

>  <fragmenstein_outcome>  (202) 
too moved

>  <fragmenstein_mode>  (202) 
expansion

>  <fragmenstein_error>  (202) 


$$$$
C533-P56
     RDKit          3D

 45 47  0  0  0  0  0  0  0  0999 V2000
    2.2971   -2.0093   29.2060 C   0  0  0  0  0  0  0  0  0  0  0  0
    1.4691   -2.5683   30.3207 C   0  0  0  0  0  0  0  0  0  0  0  0
    1.8018   -2.0964   31.6237 C   0  0  0  0  0  0  0  0  0  0  0  0
    1.1410   -2.5385   32.7645 C   0  0  0  0  0  0  0  0  0  0  0  0
    0.1265   -3.4573   32.6155 C   0  0  0  0  0  0  0  0  0  0  0  0
   -0.4903   -3.9256   33.7110 F   0  0  0  0  0  0  0  0  0  0  0  0
   -0.2276   -3.9293   31.3433 C   0  0  0  0  0  0  0  0  0  0  0  0
    0.4439   -3.5158   30.1600 C   0  0  0  0  0  0  0  0  0  0  0  0
    0.0849   -4.2745   29.0038 N   0  0  0  0  0  0  0  0  0  0  0  0
    0.7174   -4.3647   27.6630 C   0  0  0  0  0  0  0  0  0  0  0  0
    1.6331   -3.7622   27.2003 O   0  0  0  0  0  0  0  0  0  0  0  0
    0.0444   -5.6530   26.7066 C   0  0  0  0  0  0  0  0  0  0  0  0
   -0.3473   -6.4988   27.6916 C   0  0  0  0  0  0  0  0  0  0  0  0
   -1.5310   -6.9435   27.3821 C   0  0  0  0  0  0  0  0  0  0  0  0
   -1.8667   -7.3187   26.1417 N   0  0  0  0  0  0  0  0  0  0  0  0
   -1.1186   -7.0980   25.0641 C   0  0  0  0  0  0  0  0  0  0  0  0
   -0.2192   -6.1368   25.1410 C   0  0  0  0  0  0  0  0  0  0  0  0
    0.4789   -5.7902   23.4024 C   0  0  0  0  0  0  0  0  0  0  0  0
    1.2005   -4.8485   21.8692 C   0  0  0  0  0  0  0  0  0  0  0  0
    0.6840   -3.6694   20.7879 N   0  0  0  0  0  0  0  0  0  0  0  0
    0.4271   -3.0733   18.5571 S   0  0  0  0  0  0  0  0  0  0  0  0
    1.2602   -2.0783   17.9255 O   0  0  0  0  0  0  0  0  0  0  0  0
   -0.2480   -4.2348   18.3851 O   0  0  0  0  0  0  0  0  0  0  0  0
   -1.8347   -2.2957   18.2287 C   0  0  0  0  0  0  0  0  0  0  0  0
   -3.5593   -2.6268   18.5943 C   0  0  0  0  0  0  0  0  0  0  0  0
   -4.5032   -4.5904   17.8732 S   0  0  0  0  0  0  0  0  0  0  0  0
   -4.3307   -4.1071   19.5269 C   0  0  0  0  0  0  0  0  0  0  0  0
   -3.3403   -2.7449   19.3044 N   0  0  0  0  0  0  0  0  0  0  0  0
    3.0436   -2.7373   28.8802 H   0  0  0  0  0  0  0  0  0  0  0  0
    1.6600   -1.6870   28.3775 H   0  0  0  0  0  0  0  0  0  0  0  0
    2.8427   -1.1115   29.5199 H   0  0  0  0  0  0  0  0  0  0  0  0
    2.6083   -1.3737   31.7461 H   0  0  0  0  0  0  0  0  0  0  0  0
    1.4188   -2.1838   33.7508 H   0  0  0  0  0  0  0  0  0  0  0  0
   -0.9970   -4.6927   31.3091 H   0  0  0  0  0  0  0  0  0  0  0  0
   -0.7190   -4.8705   29.0299 H   0  0  0  0  0  0  0  0  0  0  0  0
   -0.0176   -6.5387   28.7190 H   0  0  0  0  0  0  0  0  0  0  0  0
   -2.2359   -7.1077   28.1816 H   0  0  0  0  0  0  0  0  0  0  0  0
   -1.3499   -7.5903   24.1385 H   0  0  0  0  0  0  0  0  0  0  0  0
   -0.1860   -4.9681   23.4856 H   0  0  0  0  0  0  0  0  0  0  0  0
    1.4476   -5.9274   23.8207 H   0  0  0  0  0  0  0  0  0  0  0  0
    1.9083   -4.2075   22.3834 H   0  0  0  0  0  0  0  0  0  0  0  0
    1.5870   -5.5872   21.1781 H   0  0  0  0  0  0  0  0  0  0  0  0
    0.8874   -2.6986   21.1084 H   0  0  0  0  0  0  0  0  0  0  0  0
   -4.3702   -3.4836   17.7758 H   0  0  0  0  0  0  0  0  0  0  0  0
   -4.8563   -4.3355   20.4587 H   0  0  0  0  0  0  0  0  0  0  0  0
  1  2  1  0
  2  3  2  0
  3  4  1  0
  4  5  2  0
  5  6  1  0
  5  7  1  0
  7  8  2  0
  8  9  1  0
  9 10  1  0
 10 11  2  0
 10 12  1  0
 12 13  2  0
 13 14  1  0
 14 15  2  0
 15 16  1  0
 16 17  2  0
 17 18  1  0
 18 19  1  0
 19 20  1  0
 20 21  1  0
 21 22  2  0
 21 23  2  0
 21 24  1  0
 24 25  2  0
 25 26  1  0
 26 27  1  0
 27 28  2  0
  8  2  1  0
 17 12  1  0
 28 24  1  0
  1 29  1  0
  1 30  1  0
  1 31  1  0
  3 32  1  0
  4 33  1  0
  7 34  1  0
  9 35  1  0
 13 36  1  0
 14 37  1  0
 16 38  1  0
 18 39  1  0
 18 40  1  0
 19 41  1  0
 19 42  1  0
 20 43  1  0
 25 44  1  0
 27 45  1  0
M  END
>  <Energy>  (203) 
1353.6332617328819

>  <compound_id>  (203) 
533

>  <target_id>  (203) 
1

>  <reference_id>  (203) 
56

>  <inspiration_ids>  (203) 
[56, 177]

>  <energy_score>  (203) 
1248.6504726155738

>  <distance_score>  (203) 
7.436829780870871

>  <path>  (203) 
/opt/xchem-fragalysis-2/maxwin/BulkDock/SCRATCH/505733/C533-P56/C533-P56.minimised.mol

>  <scratch_subdir>  (203) 
/opt/xchem-fragalysis-2/maxwin/BulkDock/SCRATCH/505733/C533-P56

>  <fragmenstein_runtime>  (203) 
15.566550493240356

>  <fragmenstein_outcome>  (203) 
too moved

>  <fragmenstein_mode>  (203) 
expansion

>  <fragmenstein_error>  (203) 


$$$$
C533-P177
     RDKit          3D

 45 47  0  0  0  0  0  0  0  0999 V2000
    1.7454   -4.9573   32.1028 C   0  0  0  0  0  0  0  0  0  0  0  0
    0.6233   -3.9667   32.2714 C   0  0  0  0  0  0  0  0  0  0  0  0
    0.1299   -3.7877   33.5762 C   0  0  0  0  0  0  0  0  0  0  0  0
   -0.8570   -2.8499   33.8175 C   0  0  0  0  0  0  0  0  0  0  0  0
   -1.3539   -2.1037   32.7578 C   0  0  0  0  0  0  0  0  0  0  0  0
   -2.2936   -1.1917   33.0356 F   0  0  0  0  0  0  0  0  0  0  0  0
   -0.8892   -2.2642   31.4426 C   0  0  0  0  0  0  0  0  0  0  0  0
    0.1115   -3.1937   31.1816 C   0  0  0  0  0  0  0  0  0  0  0  0
    0.7771   -3.3327   29.9456 N   0  0  0  0  0  0  0  0  0  0  0  0
    0.6082   -2.6134   28.6694 C   0  0  0  0  0  0  0  0  0  0  0  0
   -0.1909   -1.7867   28.3396 O   0  0  0  0  0  0  0  0  0  0  0  0
    1.7623   -3.0174   27.7531 C   0  0  0  0  0  0  0  0  0  0  0  0
    2.9740   -2.9465   28.4924 C   0  0  0  0  0  0  0  0  0  0  0  0
    4.0038   -3.7855   28.1766 C   0  0  0  0  0  0  0  0  0  0  0  0
    3.8952   -4.6516   27.1780 N   0  0  0  0  0  0  0  0  0  0  0  0
    2.8209   -4.5176   26.3539 C   0  0  0  0  0  0  0  0  0  0  0  0
    1.7456   -3.6464   26.4868 C   0  0  0  0  0  0  0  0  0  0  0  0
    0.7859   -3.3240   25.2883 C   0  0  0  0  0  0  0  0  0  0  0  0
    1.0300   -3.6248   23.6319 C   0  0  0  0  0  0  0  0  0  0  0  0
    0.6476   -5.0625   22.5512 N   0  0  0  0  0  0  0  0  0  0  0  0
    0.7151   -4.9733   20.8896 S   0  0  0  0  0  0  0  0  0  0  0  0
    0.9423   -3.6140   21.1911 O   0  0  0  0  0  0  0  0  0  0  0  0
    1.6461   -5.9556   20.4228 O   0  0  0  0  0  0  0  0  0  0  0  0
   -0.5433   -5.0691   19.0426 C   0  0  0  0  0  0  0  0  0  0  0  0
   -0.9702   -3.2309   18.5566 C   0  0  0  0  0  0  0  0  0  0  0  0
   -3.2769   -2.4831   18.9710 S   0  0  0  0  0  0  0  0  0  0  0  0
   -3.8308   -4.7671   19.0036 C   0  0  0  0  0  0  0  0  0  0  0  0
   -2.5576   -6.0372   18.9143 N   0  0  0  0  0  0  0  0  0  0  0  0
    1.4725   -5.6947   31.3440 H   0  0  0  0  0  0  0  0  0  0  0  0
    2.6669   -4.4443   31.8101 H   0  0  0  0  0  0  0  0  0  0  0  0
    1.9501   -5.5088   33.0268 H   0  0  0  0  0  0  0  0  0  0  0  0
    0.5168   -4.3686   34.4100 H   0  0  0  0  0  0  0  0  0  0  0  0
   -1.2573   -2.6978   34.8150 H   0  0  0  0  0  0  0  0  0  0  0  0
   -1.2940   -1.6318   30.6585 H   0  0  0  0  0  0  0  0  0  0  0  0
    1.5072   -4.0229   29.8435 H   0  0  0  0  0  0  0  0  0  0  0  0
    3.0580   -2.3214   29.3796 H   0  0  0  0  0  0  0  0  0  0  0  0
    4.9246   -3.8175   28.7485 H   0  0  0  0  0  0  0  0  0  0  0  0
    2.9051   -5.2220   25.5548 H   0  0  0  0  0  0  0  0  0  0  0  0
    0.8570   -2.2352   25.3067 H   0  0  0  0  0  0  0  0  0  0  0  0
   -0.2679   -3.4810   25.5590 H   0  0  0  0  0  0  0  0  0  0  0  0
    2.0812   -3.4167   23.4401 H   0  0  0  0  0  0  0  0  0  0  0  0
    0.3382   -2.8706   23.2418 H   0  0  0  0  0  0  0  0  0  0  0  0
    1.0005   -5.9048   22.9594 H   0  0  0  0  0  0  0  0  0  0  0  0
   -0.3910   -2.3228   18.3154 H   0  0  0  0  0  0  0  0  0  0  0  0
   -4.6329   -4.7511   18.2804 H   0  0  0  0  0  0  0  0  0  0  0  0
  1  2  1  0
  2  3  2  0
  3  4  1  0
  4  5  2  0
  5  6  1  0
  5  7  1  0
  7  8  2  0
  8  9  1  0
  9 10  1  0
 10 11  2  0
 10 12  1  0
 12 13  2  0
 13 14  1  0
 14 15  2  0
 15 16  1  0
 16 17  2  0
 17 18  1  0
 18 19  1  0
 19 20  1  0
 20 21  1  0
 21 22  2  0
 21 23  2  0
 21 24  1  0
 24 25  2  0
 25 26  1  0
 26 27  1  0
 27 28  2  0
  8  2  1  0
 17 12  1  0
 28 24  1  0
  1 29  1  0
  1 30  1  0
  1 31  1  0
  3 32  1  0
  4 33  1  0
  7 34  1  0
  9 35  1  0
 13 36  1  0
 14 37  1  0
 16 38  1  0
 18 39  1  0
 18 40  1  0
 19 41  1  0
 19 42  1  0
 20 43  1  0
 25 44  1  0
 27 45  1  0
M  END
>  <Energy>  (204) 
880.17272400018805

>  <compound_id>  (204) 
533

>  <target_id>  (204) 
1

>  <reference_id>  (204) 
177

>  <inspiration_ids>  (204) 
[56, 177]

>  <energy_score>  (204) 
775.1899348828854

>  <distance_score>  (204) 
7.5406481650041455

>  <path>  (204) 
/opt/xchem-fragalysis-2/maxwin/BulkDock/SCRATCH/505733/C533-P177/C533-P177.minimised.mol

>  <scratch_subdir>  (204) 
/opt/xchem-fragalysis-2/maxwin/BulkDock/SCRATCH/505733/C533-P177

>  <fragmenstein_runtime>  (204) 
21.257086515426636

>  <fragmenstein_outcome>  (204) 
too moved

>  <fragmenstein_mode>  (204) 
expansion

>  <fragmenstein_error>  (204) 


$$$$
C263-P56
     RDKit          3D

 60 62  0  0  0  0  0  0  0  0999 V2000
    3.9704   -4.4895   31.0191 C   0  0  0  0  0  0  0  0  0  0  0  0
    4.6926   -3.2209   30.5977 C   0  0  0  0  0  0  0  0  0  0  0  0
    3.8934   -2.0545   30.8540 O   0  0  0  0  0  0  0  0  0  0  0  0
    3.1665   -1.4373   29.8929 C   0  0  0  0  0  0  0  0  0  0  0  0
    2.8519   -0.2567   29.9723 O   0  0  0  0  0  0  0  0  0  0  0  0
    2.7256   -2.2612   28.7588 C   0  0  0  0  0  0  0  0  0  0  0  0
    1.6489   -3.0673   28.7364 C   0  0  0  0  0  0  0  0  0  0  0  0
    0.6030   -3.4028   29.7814 C   0  0  0  0  0  0  0  0  0  0  0  0
    0.6925   -2.6497   31.1079 C   0  0  0  0  0  0  0  0  0  0  0  0
   -0.4955   -2.9393   32.0080 C   0  0  0  0  0  0  0  0  0  0  0  0
   -1.1925   -4.2530   31.6640 C   0  0  0  0  0  0  0  0  0  0  0  0
   -0.2708   -5.4265   31.2659 C   0  0  0  0  0  0  0  0  0  0  0  0
    0.4821   -4.9457   29.9867 C   0  0  0  0  0  0  0  0  0  0  0  0
    0.6830   -5.7356   32.4405 C   0  0  0  0  0  0  0  0  0  0  0  0
   -0.1217   -6.3025   33.6252 C   0  0  0  0  0  0  0  0  0  0  0  0
    0.4871   -6.2641   35.0150 C   0  0  0  0  0  0  0  0  0  0  0  0
    0.5483   -7.1782   35.7382 O   0  0  0  0  0  0  0  0  0  0  0  0
    0.8737   -4.7786   35.2379 N   0  0  0  0  0  0  0  0  0  0  0  0
    1.3040   -4.1279   36.3709 C   0  0  0  0  0  0  0  0  0  0  0  0
    0.6721   -4.3862   37.5829 C   0  0  0  0  0  0  0  0  0  0  0  0
    0.9895   -3.5991   38.6755 C   0  0  0  0  0  0  0  0  0  0  0  0
    0.3455   -3.7932   39.8337 F   0  0  0  0  0  0  0  0  0  0  0  0
    1.9409   -2.5894   38.5791 C   0  0  0  0  0  0  0  0  0  0  0  0
    2.5834   -2.3520   37.3616 C   0  0  0  0  0  0  0  0  0  0  0  0
    2.2603   -3.1146   36.2351 C   0  0  0  0  0  0  0  0  0  0  0  0
    2.9790   -2.9038   34.9306 C   0  0  0  0  0  0  0  0  0  0  0  0
   -0.6501   -7.6636   33.2349 C   0  0  0  0  0  0  0  0  0  0  0  0
   -1.5057   -7.5156   31.9979 C   0  0  0  0  0  0  0  0  0  0  0  0
   -0.9290   -6.7263   30.9013 N   0  0  0  0  0  0  0  0  0  0  0  0
    4.6999   -5.2923   31.1418 H   0  0  0  0  0  0  0  0  0  0  0  0
    3.4327   -4.3542   31.9591 H   0  0  0  0  0  0  0  0  0  0  0  0
    3.2779   -4.7971   30.2472 H   0  0  0  0  0  0  0  0  0  0  0  0
    5.0234   -3.2649   29.5546 H   0  0  0  0  0  0  0  0  0  0  0  0
    5.5950   -3.1073   31.2081 H   0  0  0  0  0  0  0  0  0  0  0  0
    3.3017   -2.1035   27.8504 H   0  0  0  0  0  0  0  0  0  0  0  0
    1.4393   -3.5271   27.7689 H   0  0  0  0  0  0  0  0  0  0  0  0
   -0.3430   -3.0807   29.3183 H   0  0  0  0  0  0  0  0  0  0  0  0
    0.7312   -1.5673   30.9440 H   0  0  0  0  0  0  0  0  0  0  0  0
    1.6059   -2.9238   31.6405 H   0  0  0  0  0  0  0  0  0  0  0  0
   -0.1792   -2.9201   33.0546 H   0  0  0  0  0  0  0  0  0  0  0  0
   -1.2293   -2.1279   31.9148 H   0  0  0  0  0  0  0  0  0  0  0  0
   -1.8659   -4.0016   30.8490 H   0  0  0  0  0  0  0  0  0  0  0  0
   -1.8038   -4.5110   32.5112 H   0  0  0  0  0  0  0  0  0  0  0  0
    1.4553   -5.4319   29.9614 H   0  0  0  0  0  0  0  0  0  0  0  0
   -0.0436   -5.3211   29.0950 H   0  0  0  0  0  0  0  0  0  0  0  0
    1.4263   -6.4555   32.0963 H   0  0  0  0  0  0  0  0  0  0  0  0
    1.2705   -4.8602   32.7155 H   0  0  0  0  0  0  0  0  0  0  0  0
   -1.0085   -5.6876   33.7967 H   0  0  0  0  0  0  0  0  0  0  0  0
    0.6153   -4.2382   34.4281 H   0  0  0  0  0  0  0  0  0  0  0  0
   -0.0867   -5.1538   37.6786 H   0  0  0  0  0  0  0  0  0  0  0  0
    2.1781   -1.9939   39.4542 H   0  0  0  0  0  0  0  0  0  0  0  0
    3.3383   -1.5722   37.3020 H   0  0  0  0  0  0  0  0  0  0  0  0
    3.7670   -2.1496   35.0298 H   0  0  0  0  0  0  0  0  0  0  0  0
    3.4553   -3.8327   34.5999 H   0  0  0  0  0  0  0  0  0  0  0  0
    2.2826   -2.5541   34.1624 H   0  0  0  0  0  0  0  0  0  0  0  0
   -1.2338   -8.1209   34.0423 H   0  0  0  0  0  0  0  0  0  0  0  0
    0.1774   -8.3306   33.0189 H   0  0  0  0  0  0  0  0  0  0  0  0
   -2.4471   -7.0728   32.2893 H   0  0  0  0  0  0  0  0  0  0  0  0
   -1.7435   -8.5179   31.6333 H   0  0  0  0  0  0  0  0  0  0  0  0
   -0.1931   -7.3091   30.4751 H   0  0  0  0  0  0  0  0  0  0  0  0
  1  2  1  0
  2  3  1  0
  3  4  1  0
  4  5  2  0
  4  6  1  0
  6  7  2  3
  7  8  1  0
  8  9  1  0
  9 10  1  0
 10 11  1  0
 11 12  1  0
 12 13  1  0
 12 14  1  0
 14 15  1  0
 15 16  1  0
 16 17  2  0
 16 18  1  0
 18 19  1  0
 19 20  2  0
 20 21  1  0
 21 22  1  0
 21 23  2  0
 23 24  1  0
 24 25  2  0
 25 26  1  0
 15 27  1  0
 27 28  1  0
 28 29  1  0
 13  8  1  0
 25 19  1  0
 29 12  1  0
  1 30  1  0
  1 31  1  0
  1 32  1  0
  2 33  1  0
  2 34  1  0
  6 35  1  0
  7 36  1  0
  8 37  1  0
  9 38  1  0
  9 39  1  0
 10 40  1  0
 10 41  1  0
 11 42  1  0
 11 43  1  0
 13 44  1  0
 13 45  1  0
 14 46  1  0
 14 47  1  0
 15 48  1  0
 18 49  1  0
 20 50  1  0
 23 51  1  0
 24 52  1  0
 26 53  1  0
 26 54  1  0
 26 55  1  0
 27 56  1  0
 27 57  1  0
 28 58  1  0
 28 59  1  0
 29 60  1  0
M  END
>  <Energy>  (205) 
71.707121739327619

>  <compound_id>  (205) 
263

>  <target_id>  (205) 
1

>  <reference_id>  (205) 
56

>  <inspiration_ids>  (205) 
[56, 186]

>  <energy_score>  (205) 
-25.570869543780162

>  <distance_score>  (205) 
2.470645301625642

>  <path>  (205) 
/opt/xchem-fragalysis-2/maxwin/BulkDock/SCRATCH/505733/C263-P56/C263-P56.minimised.mol

>  <scratch_subdir>  (205) 
/opt/xchem-fragalysis-2/maxwin/BulkDock/SCRATCH/505733/C263-P56

>  <fragmenstein_runtime>  (205) 
13.174783945083618

>  <fragmenstein_outcome>  (205) 
too moved

>  <fragmenstein_mode>  (205) 
expansion

>  <fragmenstein_error>  (205) 


$$$$
C263-P186
     RDKit          3D

 60 62  0  0  0  0  0  0  0  0999 V2000
    4.3227   -4.1359   31.8029 C   0  0  0  0  0  0  0  0  0  0  0  0
    5.0644   -2.8594   31.4515 C   0  0  0  0  0  0  0  0  0  0  0  0
    4.1633   -1.8250   31.0199 O   0  0  0  0  0  0  0  0  0  0  0  0
    3.7701   -1.6714   29.7335 C   0  0  0  0  0  0  0  0  0  0  0  0
    3.3498   -0.6061   29.3034 O   0  0  0  0  0  0  0  0  0  0  0  0
    3.8443   -2.8545   28.8632 C   0  0  0  0  0  0  0  0  0  0  0  0
    2.9095   -3.8162   28.7509 C   0  0  0  0  0  0  0  0  0  0  0  0
    1.5741   -4.0244   29.4504 C   0  0  0  0  0  0  0  0  0  0  0  0
    1.1381   -2.9484   30.4536 C   0  0  0  0  0  0  0  0  0  0  0  0
   -0.2262   -3.2162   31.0713 C   0  0  0  0  0  0  0  0  0  0  0  0
   -0.7308   -4.6187   30.7701 C   0  0  0  0  0  0  0  0  0  0  0  0
    0.2887   -5.7472   31.0111 C   0  0  0  0  0  0  0  0  0  0  0  0
    1.4985   -5.4583   30.0646 C   0  0  0  0  0  0  0  0  0  0  0  0
    0.7576   -5.7772   32.4832 C   0  0  0  0  0  0  0  0  0  0  0  0
   -0.4054   -6.0824   33.4463 C   0  0  0  0  0  0  0  0  0  0  0  0
   -0.1097   -6.0273   34.9599 C   0  0  0  0  0  0  0  0  0  0  0  0
   -0.5052   -6.8332   35.7075 O   0  0  0  0  0  0  0  0  0  0  0  0
    0.7137   -4.7378   35.2152 N   0  0  0  0  0  0  0  0  0  0  0  0
    1.1196   -4.1522   36.3986 C   0  0  0  0  0  0  0  0  0  0  0  0
    0.4493   -4.4219   37.5869 C   0  0  0  0  0  0  0  0  0  0  0  0
    0.8284   -3.7425   38.7333 C   0  0  0  0  0  0  0  0  0  0  0  0
    0.1477   -3.9376   39.8686 F   0  0  0  0  0  0  0  0  0  0  0  0
    1.8875   -2.8424   38.7217 C   0  0  0  0  0  0  0  0  0  0  0  0
    2.5824   -2.6050   37.5368 C   0  0  0  0  0  0  0  0  0  0  0  0
    2.2015   -3.2536   36.3570 C   0  0  0  0  0  0  0  0  0  0  0  0
    2.9903   -3.0276   35.0957 C   0  0  0  0  0  0  0  0  0  0  0  0
   -0.9059   -7.4855   33.1046 C   0  0  0  0  0  0  0  0  0  0  0  0
   -1.1845   -7.6832   31.6268 C   0  0  0  0  0  0  0  0  0  0  0  0
   -0.2185   -7.0983   30.7024 N   0  0  0  0  0  0  0  0  0  0  0  0
    3.3816   -3.9418   32.3139 H   0  0  0  0  0  0  0  0  0  0  0  0
    4.1415   -4.6903   30.8907 H   0  0  0  0  0  0  0  0  0  0  0  0
    4.9482   -4.7636   32.4450 H   0  0  0  0  0  0  0  0  0  0  0  0
    5.8453   -3.0341   30.7030 H   0  0  0  0  0  0  0  0  0  0  0  0
    5.5612   -2.4741   32.3482 H   0  0  0  0  0  0  0  0  0  0  0  0
    4.7135   -2.8615   28.2134 H   0  0  0  0  0  0  0  0  0  0  0  0
    3.1129   -4.5777   27.9947 H   0  0  0  0  0  0  0  0  0  0  0  0
    0.8402   -3.9916   28.6319 H   0  0  0  0  0  0  0  0  0  0  0  0
    1.1040   -1.9663   29.9682 H   0  0  0  0  0  0  0  0  0  0  0  0
    1.8548   -2.8684   31.2717 H   0  0  0  0  0  0  0  0  0  0  0  0
   -0.9525   -2.4919   30.6812 H   0  0  0  0  0  0  0  0  0  0  0  0
   -0.1862   -3.0416   32.1531 H   0  0  0  0  0  0  0  0  0  0  0  0
   -1.0039   -4.6138   29.7100 H   0  0  0  0  0  0  0  0  0  0  0  0
   -1.6367   -4.7684   31.3481 H   0  0  0  0  0  0  0  0  0  0  0  0
    2.4161   -5.6893   30.6017 H   0  0  0  0  0  0  0  0  0  0  0  0
    1.4986   -6.1642   29.2248 H   0  0  0  0  0  0  0  0  0  0  0  0
    1.5459   -6.5294   32.6253 H   0  0  0  0  0  0  0  0  0  0  0  0
    1.2494   -4.8276   32.6873 H   0  0  0  0  0  0  0  0  0  0  0  0
   -1.2158   -5.3624   33.3027 H   0  0  0  0  0  0  0  0  0  0  0  0
    0.9548   -4.3156   34.3393 H   0  0  0  0  0  0  0  0  0  0  0  0
   -0.3874   -5.1109   37.6345 H   0  0  0  0  0  0  0  0  0  0  0  0
    2.1635   -2.3320   39.6393 H   0  0  0  0  0  0  0  0  0  0  0  0
    3.4180   -1.9088   37.5449 H   0  0  0  0  0  0  0  0  0  0  0  0
    2.3576   -2.5854   34.3196 H   0  0  0  0  0  0  0  0  0  0  0  0
    3.8273   -2.3416   35.2648 H   0  0  0  0  0  0  0  0  0  0  0  0
    3.4105   -3.9741   34.7417 H   0  0  0  0  0  0  0  0  0  0  0  0
   -1.8006   -7.7360   33.6848 H   0  0  0  0  0  0  0  0  0  0  0  0
   -0.1388   -8.1938   33.4123 H   0  0  0  0  0  0  0  0  0  0  0  0
   -2.1651   -7.2894   31.3957 H   0  0  0  0  0  0  0  0  0  0  0  0
   -1.2422   -8.7584   31.4264 H   0  0  0  0  0  0  0  0  0  0  0  0
   -0.5866   -7.1199   29.7509 H   0  0  0  0  0  0  0  0  0  0  0  0
  1  2  1  0
  2  3  1  0
  3  4  1  0
  4  5  2  0
  4  6  1  0
  6  7  2  3
  7  8  1  0
  8  9  1  0
  9 10  1  0
 10 11  1  0
 11 12  1  0
 12 13  1  0
 12 14  1  0
 14 15  1  0
 15 16  1  0
 16 17  2  0
 16 18  1  0
 18 19  1  0
 19 20  2  0
 20 21  1  0
 21 22  1  0
 21 23  2  0
 23 24  1  0
 24 25  2  0
 25 26  1  0
 15 27  1  0
 27 28  1  0
 28 29  1  0
 13  8  1  0
 25 19  1  0
 29 12  1  0
  1 30  1  0
  1 31  1  0
  1 32  1  0
  2 33  1  0
  2 34  1  0
  6 35  1  0
  7 36  1  0
  8 37  1  0
  9 38  1  0
  9 39  1  0
 10 40  1  0
 10 41  1  0
 11 42  1  0
 11 43  1  0
 13 44  1  0
 13 45  1  0
 14 46  1  0
 14 47  1  0
 15 48  1  0
 18 49  1  0
 20 50  1  0
 23 51  1  0
 24 52  1  0
 26 53  1  0
 26 54  1  0
 26 55  1  0
 27 56  1  0
 27 57  1  0
 28 58  1  0
 28 59  1  0
 29 60  1  0
M  END
>  <Energy>  (206) 
61.12326480603604

>  <compound_id>  (206) 
263

>  <target_id>  (206) 
1

>  <reference_id>  (206) 
186

>  <inspiration_ids>  (206) 
[56, 186]

>  <energy_score>  (206) 
-36.15472647707138

>  <distance_score>  (206) 
2.885698573088225

>  <path>  (206) 
/opt/xchem-fragalysis-2/maxwin/BulkDock/SCRATCH/505733/C263-P186/C263-P186.minimised.mol

>  <scratch_subdir>  (206) 
/opt/xchem-fragalysis-2/maxwin/BulkDock/SCRATCH/505733/C263-P186

>  <fragmenstein_runtime>  (206) 
11.58935546875

>  <fragmenstein_outcome>  (206) 
too moved

>  <fragmenstein_mode>  (206) 
expansion

>  <fragmenstein_error>  (206) 


$$$$
C263-P56
     RDKit          3D

 60 62  0  0  0  0  0  0  0  0999 V2000
    4.1500   -4.7668   31.3559 C   0  0  0  0  0  0  0  0  0  0  0  0
    4.1759   -3.2538   31.3290 C   0  0  0  0  0  0  0  0  0  0  0  0
    3.1462   -2.8190   30.4405 O   0  0  0  0  0  0  0  0  0  0  0  0
    3.5226   -2.5585   29.1737 C   0  0  0  0  0  0  0  0  0  0  0  0
    4.6724   -2.4980   28.7565 O   0  0  0  0  0  0  0  0  0  0  0  0
    2.3585   -2.4053   28.2810 C   0  0  0  0  0  0  0  0  0  0  0  0
    1.0639   -2.7155   28.4587 C   0  0  0  0  0  0  0  0  0  0  0  0
    0.2752   -3.2862   29.6143 C   0  0  0  0  0  0  0  0  0  0  0  0
    0.1565   -2.2710   30.7572 C   0  0  0  0  0  0  0  0  0  0  0  0
   -0.5241   -2.8392   31.9885 C   0  0  0  0  0  0  0  0  0  0  0  0
   -1.1885   -4.1794   31.6950 C   0  0  0  0  0  0  0  0  0  0  0  0
   -0.2161   -5.3074   31.2652 C   0  0  0  0  0  0  0  0  0  0  0  0
    0.6085   -4.7449   30.0430 C   0  0  0  0  0  0  0  0  0  0  0  0
    0.6969   -5.6587   32.4611 C   0  0  0  0  0  0  0  0  0  0  0  0
   -0.1263   -6.2643   33.6146 C   0  0  0  0  0  0  0  0  0  0  0  0
    0.4738   -6.2555   35.0089 C   0  0  0  0  0  0  0  0  0  0  0  0
    0.5482   -7.1860   35.7099 O   0  0  0  0  0  0  0  0  0  0  0  0
    0.8324   -4.7678   35.2706 N   0  0  0  0  0  0  0  0  0  0  0  0
    1.2453   -4.1377   36.4215 C   0  0  0  0  0  0  0  0  0  0  0  0
    0.5985   -4.4125   37.6207 C   0  0  0  0  0  0  0  0  0  0  0  0
    0.9129   -3.6470   38.7299 C   0  0  0  0  0  0  0  0  0  0  0  0
    0.2574   -3.8553   39.8787 F   0  0  0  0  0  0  0  0  0  0  0  0
    1.8747   -2.6445   38.6625 C   0  0  0  0  0  0  0  0  0  0  0  0
    2.5339   -2.3925   37.4579 C   0  0  0  0  0  0  0  0  0  0  0  0
    2.2153   -3.1331   36.3162 C   0  0  0  0  0  0  0  0  0  0  0  0
    2.9587   -2.9171   35.0283 C   0  0  0  0  0  0  0  0  0  0  0  0
   -0.6286   -7.6173   33.1725 C   0  0  0  0  0  0  0  0  0  0  0  0
   -1.4369   -7.4433   31.9049 C   0  0  0  0  0  0  0  0  0  0  0  0
   -0.8505   -6.6026   30.8481 N   0  0  0  0  0  0  0  0  0  0  0  0
    3.2283   -5.1391   31.7906 H   0  0  0  0  0  0  0  0  0  0  0  0
    4.2397   -5.1743   30.3470 H   0  0  0  0  0  0  0  0  0  0  0  0
    4.9789   -5.1447   31.9619 H   0  0  0  0  0  0  0  0  0  0  0  0
    5.1635   -2.8786   31.0396 H   0  0  0  0  0  0  0  0  0  0  0  0
    3.9539   -2.8503   32.3201 H   0  0  0  0  0  0  0  0  0  0  0  0
    2.6467   -2.0187   27.3033 H   0  0  0  0  0  0  0  0  0  0  0  0
    0.4286   -2.4878   27.6021 H   0  0  0  0  0  0  0  0  0  0  0  0
   -0.7424   -3.3635   29.1970 H   0  0  0  0  0  0  0  0  0  0  0  0
   -0.4276   -1.4116   30.3987 H   0  0  0  0  0  0  0  0  0  0  0  0
    1.1184   -1.8470   31.0555 H   0  0  0  0  0  0  0  0  0  0  0  0
   -1.2823   -2.1289   32.3413 H   0  0  0  0  0  0  0  0  0  0  0  0
    0.1978   -2.9224   32.8042 H   0  0  0  0  0  0  0  0  0  0  0  0
   -1.9259   -3.9782   30.9236 H   0  0  0  0  0  0  0  0  0  0  0  0
   -1.7441   -4.4539   32.5751 H   0  0  0  0  0  0  0  0  0  0  0  0
    1.6771   -4.8644   30.2199 H   0  0  0  0  0  0  0  0  0  0  0  0
    0.3971   -5.3658   29.1626 H   0  0  0  0  0  0  0  0  0  0  0  0
    1.4410   -6.3800   32.1190 H   0  0  0  0  0  0  0  0  0  0  0  0
    1.2793   -4.7879   32.7664 H   0  0  0  0  0  0  0  0  0  0  0  0
   -1.0236   -5.6715   33.7965 H   0  0  0  0  0  0  0  0  0  0  0  0
    0.5678   -4.2119   34.4724 H   0  0  0  0  0  0  0  0  0  0  0  0
   -0.1666   -5.1762   37.6947 H   0  0  0  0  0  0  0  0  0  0  0  0
    2.1087   -2.0692   39.5519 H   0  0  0  0  0  0  0  0  0  0  0  0
    3.3006   -1.6232   37.4224 H   0  0  0  0  0  0  0  0  0  0  0  0
    3.4310   -3.8479   34.6970 H   0  0  0  0  0  0  0  0  0  0  0  0
    2.2790   -2.5522   34.2521 H   0  0  0  0  0  0  0  0  0  0  0  0
    3.7525   -2.1721   35.1484 H   0  0  0  0  0  0  0  0  0  0  0  0
   -1.2400   -8.0958   33.9466 H   0  0  0  0  0  0  0  0  0  0  0  0
    0.2101   -8.2773   32.9767 H   0  0  0  0  0  0  0  0  0  0  0  0
   -2.4056   -7.0439   32.1738 H   0  0  0  0  0  0  0  0  0  0  0  0
   -1.6239   -8.4398   31.4996 H   0  0  0  0  0  0  0  0  0  0  0  0
   -0.1010   -7.1634   30.4144 H   0  0  0  0  0  0  0  0  0  0  0  0
  1  2  1  0
  2  3  1  0
  3  4  1  0
  4  5  2  0
  4  6  1  0
  6  7  2  3
  7  8  1  0
  8  9  1  0
  9 10  1  0
 10 11  1  0
 11 12  1  0
 12 13  1  0
 12 14  1  0
 14 15  1  0
 15 16  1  0
 16 17  2  0
 16 18  1  0
 18 19  1  0
 19 20  2  0
 20 21  1  0
 21 22  1  0
 21 23  2  0
 23 24  1  0
 24 25  2  0
 25 26  1  0
 15 27  1  0
 27 28  1  0
 28 29  1  0
 13  8  1  0
 25 19  1  0
 29 12  1  0
  1 30  1  0
  1 31  1  0
  1 32  1  0
  2 33  1  0
  2 34  1  0
  6 35  1  0
  7 36  1  0
  8 37  1  0
  9 38  1  0
  9 39  1  0
 10 40  1  0
 10 41  1  0
 11 42  1  0
 11 43  1  0
 13 44  1  0
 13 45  1  0
 14 46  1  0
 14 47  1  0
 15 48  1  0
 18 49  1  0
 20 50  1  0
 23 51  1  0
 24 52  1  0
 26 53  1  0
 26 54  1  0
 26 55  1  0
 27 56  1  0
 27 57  1  0
 28 58  1  0
 28 59  1  0
 29 60  1  0
M  END
>  <Energy>  (207) 
63.747699210439066

>  <compound_id>  (207) 
263

>  <target_id>  (207) 
1

>  <reference_id>  (207) 
56

>  <inspiration_ids>  (207) 
[56, 187]

>  <energy_score>  (207) 
-33.53029207266684

>  <distance_score>  (207) 
2.6811884899813596

>  <path>  (207) 
/opt/xchem-fragalysis-2/maxwin/BulkDock/SCRATCH/505733/C263-P56/C263-P56.minimised.mol

>  <scratch_subdir>  (207) 
/opt/xchem-fragalysis-2/maxwin/BulkDock/SCRATCH/505733/C263-P56

>  <fragmenstein_runtime>  (207) 
12.574019193649292

>  <fragmenstein_outcome>  (207) 
too moved

>  <fragmenstein_mode>  (207) 
expansion

>  <fragmenstein_error>  (207) 


$$$$
C263-P187
     RDKit          3D

 60 62  0  0  0  0  0  0  0  0999 V2000
    3.7884   -4.2716   30.5236 C   0  0  0  0  0  0  0  0  0  0  0  0
    4.4255   -3.1346   29.7482 C   0  0  0  0  0  0  0  0  0  0  0  0
    4.1504   -1.8922   30.4238 O   0  0  0  0  0  0  0  0  0  0  0  0
    3.0276   -1.1666   30.1917 C   0  0  0  0  0  0  0  0  0  0  0  0
    2.7094   -0.2104   30.8850 O   0  0  0  0  0  0  0  0  0  0  0  0
    2.2585   -1.5365   28.9943 C   0  0  0  0  0  0  0  0  0  0  0  0
    1.1515   -2.2933   28.9427 C   0  0  0  0  0  0  0  0  0  0  0  0
    0.2947   -2.9339   30.0063 C   0  0  0  0  0  0  0  0  0  0  0  0
    0.3771   -2.3353   31.4081 C   0  0  0  0  0  0  0  0  0  0  0  0
   -0.7037   -2.9179   32.3131 C   0  0  0  0  0  0  0  0  0  0  0  0
   -1.2208   -4.2798   31.8296 C   0  0  0  0  0  0  0  0  0  0  0  0
   -0.1378   -5.2231   31.2664 C   0  0  0  0  0  0  0  0  0  0  0  0
    0.3894   -4.4940   29.9905 C   0  0  0  0  0  0  0  0  0  0  0  0
    0.9110   -5.4431   32.3588 C   0  0  0  0  0  0  0  0  0  0  0  0
    0.2687   -6.1633   33.5615 C   0  0  0  0  0  0  0  0  0  0  0  0
    1.2941   -6.0935   34.6637 C   0  0  0  0  0  0  0  0  0  0  0  0
    2.2960   -6.6991   34.6881 O   0  0  0  0  0  0  0  0  0  0  0  0
    0.7506   -4.9954   35.6345 N   0  0  0  0  0  0  0  0  0  0  0  0
    1.3431   -4.3887   36.7172 C   0  0  0  0  0  0  0  0  0  0  0  0
    0.4972   -4.0880   37.7833 C   0  0  0  0  0  0  0  0  0  0  0  0
    1.0109   -3.4338   38.8850 C   0  0  0  0  0  0  0  0  0  0  0  0
    0.2082   -3.1884   39.9266 F   0  0  0  0  0  0  0  0  0  0  0  0
    2.3401   -3.0376   38.9220 C   0  0  0  0  0  0  0  0  0  0  0  0
    3.1694   -3.2933   37.8275 C   0  0  0  0  0  0  0  0  0  0  0  0
    2.6757   -3.9565   36.6951 C   0  0  0  0  0  0  0  0  0  0  0  0
    3.5672   -4.0981   35.4911 C   0  0  0  0  0  0  0  0  0  0  0  0
   -0.1757   -7.5409   33.1580 C   0  0  0  0  0  0  0  0  0  0  0  0
   -1.0587   -7.4809   31.9226 C   0  0  0  0  0  0  0  0  0  0  0  0
   -0.5149   -6.6068   30.8870 N   0  0  0  0  0  0  0  0  0  0  0  0
    4.4307   -4.5306   31.3721 H   0  0  0  0  0  0  0  0  0  0  0  0
    2.8414   -3.9735   30.9593 H   0  0  0  0  0  0  0  0  0  0  0  0
    3.6709   -5.1508   29.8873 H   0  0  0  0  0  0  0  0  0  0  0  0
    4.0937   -3.1181   28.7061 H   0  0  0  0  0  0  0  0  0  0  0  0
    5.5131   -3.2607   29.7262 H   0  0  0  0  0  0  0  0  0  0  0  0
    2.6715   -1.1287   28.0767 H   0  0  0  0  0  0  0  0  0  0  0  0
    0.7297   -2.4294   27.9490 H   0  0  0  0  0  0  0  0  0  0  0  0
   -0.7282   -2.6964   29.6686 H   0  0  0  0  0  0  0  0  0  0  0  0
    0.2521   -1.2461   31.3738 H   0  0  0  0  0  0  0  0  0  0  0  0
    1.3594   -2.5154   31.8538 H   0  0  0  0  0  0  0  0  0  0  0  0
   -0.3225   -2.9893   33.3386 H   0  0  0  0  0  0  0  0  0  0  0  0
   -1.5538   -2.2255   32.3611 H   0  0  0  0  0  0  0  0  0  0  0  0
   -1.9570   -4.0681   31.0557 H   0  0  0  0  0  0  0  0  0  0  0  0
   -1.7421   -4.7298   32.6640 H   0  0  0  0  0  0  0  0  0  0  0  0
    1.3839   -4.8540   29.7224 H   0  0  0  0  0  0  0  0  0  0  0  0
   -0.2436   -4.7911   29.1457 H   0  0  0  0  0  0  0  0  0  0  0  0
    1.7507   -6.0381   31.9707 H   0  0  0  0  0  0  0  0  0  0  0  0
    1.3663   -4.5070   32.6919 H   0  0  0  0  0  0  0  0  0  0  0  0
   -0.6363   -5.6611   33.8957 H   0  0  0  0  0  0  0  0  0  0  0  0
   -0.1904   -4.7391   35.3636 H   0  0  0  0  0  0  0  0  0  0  0  0
   -0.5453   -4.3884   37.7894 H   0  0  0  0  0  0  0  0  0  0  0  0
    2.7227   -2.5226   39.7975 H   0  0  0  0  0  0  0  0  0  0  0  0
    4.2019   -2.9510   37.8571 H   0  0  0  0  0  0  0  0  0  0  0  0
    3.0178   -3.9354   34.5595 H   0  0  0  0  0  0  0  0  0  0  0  0
    4.3620   -3.3433   35.5090 H   0  0  0  0  0  0  0  0  0  0  0  0
    4.0459   -5.0808   35.4855 H   0  0  0  0  0  0  0  0  0  0  0  0
   -0.6923   -8.0405   33.9827 H   0  0  0  0  0  0  0  0  0  0  0  0
    0.7125   -8.1076   32.9286 H   0  0  0  0  0  0  0  0  0  0  0  0
   -2.0527   -7.1513   32.2037 H   0  0  0  0  0  0  0  0  0  0  0  0
   -1.1662   -8.4919   31.5158 H   0  0  0  0  0  0  0  0  0  0  0  0
   -1.0122   -6.6721   30.0070 H   0  0  0  0  0  0  0  0  0  0  0  0
  1  2  1  0
  2  3  1  0
  3  4  1  0
  4  5  2  0
  4  6  1  0
  6  7  2  3
  7  8  1  0
  8  9  1  0
  9 10  1  0
 10 11  1  0
 11 12  1  0
 12 13  1  0
 12 14  1  0
 14 15  1  0
 15 16  1  0
 16 17  2  0
 16 18  1  0
 18 19  1  0
 19 20  2  0
 20 21  1  0
 21 22  1  0
 21 23  2  0
 23 24  1  0
 24 25  2  0
 25 26  1  0
 15 27  1  0
 27 28  1  0
 28 29  1  0
 13  8  1  0
 25 19  1  0
 29 12  1  0
  1 30  1  0
  1 31  1  0
  1 32  1  0
  2 33  1  0
  2 34  1  0
  6 35  1  0
  7 36  1  0
  8 37  1  0
  9 38  1  0
  9 39  1  0
 10 40  1  0
 10 41  1  0
 11 42  1  0
 11 43  1  0
 13 44  1  0
 13 45  1  0
 14 46  1  0
 14 47  1  0
 15 48  1  0
 18 49  1  0
 20 50  1  0
 23 51  1  0
 24 52  1  0
 26 53  1  0
 26 54  1  0
 26 55  1  0
 27 56  1  0
 27 57  1  0
 28 58  1  0
 28 59  1  0
 29 60  1  0
M  END
>  <Energy>  (208) 
74.996388178657341

>  <compound_id>  (208) 
263

>  <target_id>  (208) 
1

>  <reference_id>  (208) 
187

>  <inspiration_ids>  (208) 
[56, 187]

>  <energy_score>  (208) 
-22.28160310445145

>  <distance_score>  (208) 
2.4863367177839724

>  <path>  (208) 
/opt/xchem-fragalysis-2/maxwin/BulkDock/SCRATCH/505733/C263-P187/C263-P187.minimised.mol

>  <scratch_subdir>  (208) 
/opt/xchem-fragalysis-2/maxwin/BulkDock/SCRATCH/505733/C263-P187

>  <fragmenstein_runtime>  (208) 
10.504639863967896

>  <fragmenstein_outcome>  (208) 
too moved

>  <fragmenstein_mode>  (208) 
expansion

>  <fragmenstein_error>  (208) 


$$$$
C539-P56
     RDKit          3D

 53 54  0  0  0  0  0  0  0  0999 V2000
    0.5579    3.8927   27.5497 C   0  0  0  0  0  0  0  0  0  0  0  0
    0.6436    2.6467   26.6877 C   0  0  0  0  0  0  0  0  0  0  0  0
    1.1896    1.4591   27.4712 C   0  0  0  0  0  0  0  0  0  0  0  0
    2.2944    1.0881   27.3766 O   0  0  0  0  0  0  0  0  0  0  0  0
    0.0302    0.9546   28.3808 N   0  0  0  0  0  0  0  0  0  0  0  0
   -0.0275   -0.1299   29.2561 C   0  0  0  0  0  0  0  0  0  0  0  0
    1.0391   -0.9930   29.4504 C   0  0  0  0  0  0  0  0  0  0  0  0
    0.9805   -1.9978   30.4348 C   0  0  0  0  0  0  0  0  0  0  0  0
    2.0505   -2.9065   30.4347 N   0  0  0  0  0  0  0  0  0  0  0  0
    1.7440   -4.3120   30.6311 C   0  0  0  0  0  0  0  0  0  0  0  0
    0.5347   -4.7831   29.8223 C   0  0  0  0  0  0  0  0  0  0  0  0
    0.0302   -6.0114   30.3994 C   0  0  0  0  0  0  0  0  0  0  0  0
    0.1861   -6.5686   31.6311 C   0  0  0  0  0  0  0  0  0  0  0  0
   -0.7248   -7.6092   31.6058 C   0  0  0  0  0  0  0  0  0  0  0  0
   -1.0831   -8.4781   32.6741 C   0  0  0  0  0  0  0  0  0  0  0  0
   -1.3654   -9.5806   32.4360 O   0  0  0  0  0  0  0  0  0  0  0  0
   -1.1174   -7.7043   34.0040 N   0  0  0  0  0  0  0  0  0  0  0  0
   -1.5948   -8.0970   35.2974 C   0  0  0  0  0  0  0  0  0  0  0  0
   -3.0022   -8.6435   35.1044 C   0  0  0  0  0  0  0  0  0  0  0  0
   -3.9659   -8.3687   35.7964 O   0  0  0  0  0  0  0  0  0  0  0  0
   -3.0727   -9.4004   34.0079 O   0  0  0  0  0  0  0  0  0  0  0  0
   -4.1680   -9.1916   33.1429 C   0  0  0  0  0  0  0  0  0  0  0  0
   -1.3339   -7.7193   30.4268 N   0  0  0  0  0  0  0  0  0  0  0  0
   -0.8170   -6.7343   29.6449 O   0  0  0  0  0  0  0  0  0  0  0  0
   -0.0772   -1.9822   31.3699 C   0  0  0  0  0  0  0  0  0  0  0  0
   -0.1112   -2.7946   32.6330 C   0  0  0  0  0  0  0  0  0  0  0  0
   -1.1993   -1.1941   31.0913 C   0  0  0  0  0  0  0  0  0  0  0  0
   -1.1803   -0.3289   30.0083 C   0  0  0  0  0  0  0  0  0  0  0  0
   -2.3337    0.3187   29.6890 O   0  0  0  0  0  0  0  0  0  0  0  0
    1.5338    4.1353   27.9830 H   0  0  0  0  0  0  0  0  0  0  0  0
   -0.1486    3.7644   28.3759 H   0  0  0  0  0  0  0  0  0  0  0  0
    0.2263    4.7467   26.9511 H   0  0  0  0  0  0  0  0  0  0  0  0
   -0.3379    2.3937   26.2718 H   0  0  0  0  0  0  0  0  0  0  0  0
    1.3105    2.8252   25.8364 H   0  0  0  0  0  0  0  0  0  0  0  0
   -0.7758    1.5564   28.2670 H   0  0  0  0  0  0  0  0  0  0  0  0
    1.9176   -0.9324   28.8123 H   0  0  0  0  0  0  0  0  0  0  0  0
    2.7618   -2.5791   31.0885 H   0  0  0  0  0  0  0  0  0  0  0  0
    2.6234   -4.8919   30.3240 H   0  0  0  0  0  0  0  0  0  0  0  0
    1.6595   -4.4813   31.7058 H   0  0  0  0  0  0  0  0  0  0  0  0
    0.7891   -4.8744   28.7655 H   0  0  0  0  0  0  0  0  0  0  0  0
   -0.2969   -4.0733   29.8360 H   0  0  0  0  0  0  0  0  0  0  0  0
    0.8218   -6.2554   32.4441 H   0  0  0  0  0  0  0  0  0  0  0  0
   -0.7256   -6.7816   33.8682 H   0  0  0  0  0  0  0  0  0  0  0  0
   -1.6082   -7.2054   35.9260 H   0  0  0  0  0  0  0  0  0  0  0  0
   -0.9039   -8.8216   35.6918 H   0  0  0  0  0  0  0  0  0  0  0  0
   -3.8487   -8.5582   32.3147 H   0  0  0  0  0  0  0  0  0  0  0  0
   -4.9997   -8.8109   33.7085 H   0  0  0  0  0  0  0  0  0  0  0  0
   -4.5070  -10.0847   32.6382 H   0  0  0  0  0  0  0  0  0  0  0  0
    0.8912   -2.9096   33.0559 H   0  0  0  0  0  0  0  0  0  0  0  0
   -0.5615   -3.7735   32.4540 H   0  0  0  0  0  0  0  0  0  0  0  0
   -0.7056   -2.2874   33.4020 H   0  0  0  0  0  0  0  0  0  0  0  0
   -2.0862   -1.2466   31.7163 H   0  0  0  0  0  0  0  0  0  0  0  0
   -2.3880    0.2739   28.7164 H   0  0  0  0  0  0  0  0  0  0  0  0
  1  2  1  0
  2  3  1  0
  3  4  2  0
  3  5  1  0
  5  6  1  0
  6  7  2  0
  7  8  1  0
  8  9  1  0
  9 10  1  0
 10 11  1  0
 11 12  1  0
 12 13  2  0
 13 14  1  0
 14 15  1  0
 15 16  2  0
 15 17  1  0
 17 18  1  0
 18 19  1  0
 19 20  2  0
 19 21  1  0
 21 22  1  0
 14 23  2  0
 23 24  1  0
  8 25  2  0
 25 26  1  0
 25 27  1  0
 27 28  2  0
 28 29  1  0
 28  6  1  0
 24 12  1  0
  1 30  1  0
  1 31  1  0
  1 32  1  0
  2 33  1  0
  2 34  1  0
  5 35  1  0
  7 36  1  0
  9 37  1  0
 10 38  1  0
 10 39  1  0
 11 40  1  0
 11 41  1  0
 13 42  1  0
 17 43  1  0
 18 44  1  0
 18 45  1  0
 22 46  1  0
 22 47  1  0
 22 48  1  0
 26 49  1  0
 26 50  1  0
 26 51  1  0
 27 52  1  0
 29 53  1  0
M  END
>  <Energy>  (209) 
125.44862736952463

>  <compound_id>  (209) 
539

>  <target_id>  (209) 
1

>  <reference_id>  (209) 
56

>  <inspiration_ids>  (209) 
[56, 195]

>  <energy_score>  (209) 
17.76716430548558

>  <distance_score>  (209) 
2.598404655331879

>  <path>  (209) 
/opt/xchem-fragalysis-2/maxwin/BulkDock/SCRATCH/505733/C539-P56/C539-P56.minimised.mol

>  <scratch_subdir>  (209) 
/opt/xchem-fragalysis-2/maxwin/BulkDock/SCRATCH/505733/C539-P56

>  <fragmenstein_runtime>  (209) 
6.429921388626099

>  <fragmenstein_outcome>  (209) 
too moved

>  <fragmenstein_mode>  (209) 
expansion

>  <fragmenstein_error>  (209) 


$$$$
C539-P195
     RDKit          3D

 53 54  0  0  0  0  0  0  0  0999 V2000
    3.2320    1.9630   28.2635 C   0  0  0  0  0  0  0  0  0  0  0  0
    2.6603    1.0157   27.2243 C   0  0  0  0  0  0  0  0  0  0  0  0
    2.4695   -0.3693   27.8285 C   0  0  0  0  0  0  0  0  0  0  0  0
    3.3304   -1.1615   27.8702 O   0  0  0  0  0  0  0  0  0  0  0  0
    1.0259   -0.4151   28.4148 N   0  0  0  0  0  0  0  0  0  0  0  0
    0.4078   -1.3669   29.2199 C   0  0  0  0  0  0  0  0  0  0  0  0
    1.1299   -2.4161   29.7761 C   0  0  0  0  0  0  0  0  0  0  0  0
    0.5850   -3.1659   30.8264 C   0  0  0  0  0  0  0  0  0  0  0  0
    1.3314   -4.1977   31.4323 N   0  0  0  0  0  0  0  0  0  0  0  0
    1.5914   -5.3505   30.5675 C   0  0  0  0  0  0  0  0  0  0  0  0
    0.3905   -6.2690   30.3797 C   0  0  0  0  0  0  0  0  0  0  0  0
   -0.1415   -6.8307   31.6275 C   0  0  0  0  0  0  0  0  0  0  0  0
    0.1663   -6.6918   32.9559 C   0  0  0  0  0  0  0  0  0  0  0  0
   -0.8614   -7.3882   33.6273 C   0  0  0  0  0  0  0  0  0  0  0  0
   -1.1114   -7.4800   35.0740 C   0  0  0  0  0  0  0  0  0  0  0  0
   -2.2014   -7.5772   35.4775 O   0  0  0  0  0  0  0  0  0  0  0  0
    0.2274   -7.3679   35.8296 N   0  0  0  0  0  0  0  0  0  0  0  0
    0.5164   -7.4473   37.2391 C   0  0  0  0  0  0  0  0  0  0  0  0
    2.0164   -7.6445   37.4152 C   0  0  0  0  0  0  0  0  0  0  0  0
    2.7821   -7.6883   36.4485 O   0  0  0  0  0  0  0  0  0  0  0  0
    2.4877   -7.7570   38.6817 O   0  0  0  0  0  0  0  0  0  0  0  0
    1.5866   -7.8091   39.7955 C   0  0  0  0  0  0  0  0  0  0  0  0
   -1.6789   -7.9621   32.7353 N   0  0  0  0  0  0  0  0  0  0  0  0
   -1.2198   -7.6348   31.4916 O   0  0  0  0  0  0  0  0  0  0  0  0
   -0.6689   -2.8101   31.3533 C   0  0  0  0  0  0  0  0  0  0  0  0
   -1.1882   -3.4267   32.6174 C   0  0  0  0  0  0  0  0  0  0  0  0
   -1.4426   -1.8468   30.6987 C   0  0  0  0  0  0  0  0  0  0  0  0
   -0.9133   -1.1654   29.6143 C   0  0  0  0  0  0  0  0  0  0  0  0
   -1.7176   -0.2879   28.9498 O   0  0  0  0  0  0  0  0  0  0  0  0
    4.1886    1.5934   28.6476 H   0  0  0  0  0  0  0  0  0  0  0  0
    3.3968    2.9531   27.8278 H   0  0  0  0  0  0  0  0  0  0  0  0
    2.5518    2.0715   29.1148 H   0  0  0  0  0  0  0  0  0  0  0  0
    1.7167    1.4188   26.8488 H   0  0  0  0  0  0  0  0  0  0  0  0
    3.3382    0.9257   26.3685 H   0  0  0  0  0  0  0  0  0  0  0  0
    0.5149    0.4102   28.1224 H   0  0  0  0  0  0  0  0  0  0  0  0
    2.1487   -2.6067   29.4550 H   0  0  0  0  0  0  0  0  0  0  0  0
    2.2218   -3.7798   31.7139 H   0  0  0  0  0  0  0  0  0  0  0  0
    1.9795   -5.0395   29.5899 H   0  0  0  0  0  0  0  0  0  0  0  0
    2.4001   -5.9107   31.0446 H   0  0  0  0  0  0  0  0  0  0  0  0
    0.7027   -7.1075   29.7515 H   0  0  0  0  0  0  0  0  0  0  0  0
   -0.4014   -5.7283   29.8567 H   0  0  0  0  0  0  0  0  0  0  0  0
    0.9483   -6.0782   33.3773 H   0  0  0  0  0  0  0  0  0  0  0  0
    0.9922   -7.3814   35.1661 H   0  0  0  0  0  0  0  0  0  0  0  0
   -0.0266   -8.2978   37.6411 H   0  0  0  0  0  0  0  0  0  0  0  0
    0.1881   -6.5116   37.6957 H   0  0  0  0  0  0  0  0  0  0  0  0
    1.0274   -6.8734   39.8799 H   0  0  0  0  0  0  0  0  0  0  0  0
    2.1849   -7.9340   40.7023 H   0  0  0  0  0  0  0  0  0  0  0  0
    0.9152   -8.6670   39.7087 H   0  0  0  0  0  0  0  0  0  0  0  0
   -2.0649   -2.8859   32.9880 H   0  0  0  0  0  0  0  0  0  0  0  0
   -0.4318   -3.3873   33.4080 H   0  0  0  0  0  0  0  0  0  0  0  0
   -1.4727   -4.4616   32.4383 H   0  0  0  0  0  0  0  0  0  0  0  0
   -2.4441   -1.6077   31.0411 H   0  0  0  0  0  0  0  0  0  0  0  0
   -1.6453   -0.5341   28.0047 H   0  0  0  0  0  0  0  0  0  0  0  0
  1  2  1  0
  2  3  1  0
  3  4  2  0
  3  5  1  0
  5  6  1  0
  6  7  2  0
  7  8  1  0
  8  9  1  0
  9 10  1  0
 10 11  1  0
 11 12  1  0
 12 13  2  0
 13 14  1  0
 14 15  1  0
 15 16  2  0
 15 17  1  0
 17 18  1  0
 18 19  1  0
 19 20  2  0
 19 21  1  0
 21 22  1  0
 14 23  2  0
 23 24  1  0
  8 25  2  0
 25 26  1  0
 25 27  1  0
 27 28  2  0
 28 29  1  0
 28  6  1  0
 24 12  1  0
  1 30  1  0
  1 31  1  0
  1 32  1  0
  2 33  1  0
  2 34  1  0
  5 35  1  0
  7 36  1  0
  9 37  1  0
 10 38  1  0
 10 39  1  0
 11 40  1  0
 11 41  1  0
 13 42  1  0
 17 43  1  0
 18 44  1  0
 18 45  1  0
 22 46  1  0
 22 47  1  0
 22 48  1  0
 26 49  1  0
 26 50  1  0
 26 51  1  0
 27 52  1  0
 29 53  1  0
M  END
>  <Energy>  (210) 
88.744599712260424

>  <compound_id>  (210) 
539

>  <target_id>  (210) 
1

>  <reference_id>  (210) 
195

>  <inspiration_ids>  (210) 
[56, 195]

>  <energy_score>  (210) 
-18.936863351775713

>  <distance_score>  (210) 
3.230898406330034

>  <path>  (210) 
/opt/xchem-fragalysis-2/maxwin/BulkDock/SCRATCH/505733/C539-P195/C539-P195.minimised.mol

>  <scratch_subdir>  (210) 
/opt/xchem-fragalysis-2/maxwin/BulkDock/SCRATCH/505733/C539-P195

>  <fragmenstein_runtime>  (210) 
9.926043033599854

>  <fragmenstein_outcome>  (210) 
too moved

>  <fragmenstein_mode>  (210) 
expansion

>  <fragmenstein_error>  (210) 


$$$$
C543-P56
     RDKit          3D

 60 62  0  0  0  0  0  0  0  0999 V2000
    0.0240   -6.1941   33.0885 C   0  0  0  0  0  0  0  0  0  0  0  0
   -0.9036   -6.8234   34.1000 C   0  0  0  0  0  0  0  0  0  0  0  0
   -0.7749   -6.3555   35.5523 C   0  0  0  0  0  0  0  0  0  0  0  0
   -1.0017   -7.1775   36.3979 O   0  0  0  0  0  0  0  0  0  0  0  0
   -0.4109   -4.9752   35.6641 N   0  0  0  0  0  0  0  0  0  0  0  0
   -0.1163   -4.1814   36.7940 C   0  0  0  0  0  0  0  0  0  0  0  0
   -0.2129   -4.6165   38.1258 C   0  0  0  0  0  0  0  0  0  0  0  0
   -0.7657   -5.7982   38.5302 O   0  0  0  0  0  0  0  0  0  0  0  0
    0.2315   -3.8223   39.1870 C   0  0  0  0  0  0  0  0  0  0  0  0
    0.7835   -2.5660   38.9572 C   0  0  0  0  0  0  0  0  0  0  0  0
    1.2474   -1.7143   40.0986 C   0  0  0  0  0  0  0  0  0  0  0  0
    0.8129   -2.0871   37.6479 C   0  0  0  0  0  0  0  0  0  0  0  0
    0.3524   -2.8642   36.5610 C   0  0  0  0  0  0  0  0  0  0  0  0
    0.3185   -2.2153   35.2397 C   0  0  0  0  0  0  0  0  0  0  0  0
    1.4942   -1.8511   34.5737 C   0  0  0  0  0  0  0  0  0  0  0  0
    1.4404   -1.1286   33.3784 C   0  0  0  0  0  0  0  0  0  0  0  0
    0.2082   -0.7478   32.8265 C   0  0  0  0  0  0  0  0  0  0  0  0
    0.1017    0.0316   31.5212 C   0  0  0  0  0  0  0  0  0  0  0  0
    1.3745    0.7581   31.0807 N   0  0  0  0  0  0  0  0  0  0  0  0
    0.7614    1.8670   31.8672 C   0  0  0  0  0  0  0  0  0  0  0  0
    1.5619    0.6086   29.6464 C   0  0  0  0  0  0  0  0  0  0  0  0
    1.1970    1.2840   28.7591 O   0  0  0  0  0  0  0  0  0  0  0  0
    2.3265   -0.6211   29.6392 N   0  0  0  0  0  0  0  0  0  0  0  0
    2.7875   -1.4362   28.5468 C   0  0  0  0  0  0  0  0  0  0  0  0
    1.6982   -2.3946   28.0687 C   0  0  0  0  0  0  0  0  0  0  0  0
    1.2152   -3.3379   29.0521 N   0  0  0  0  0  0  0  0  0  0  0  0
   -0.0628   -3.8009   29.1451 C   0  0  0  0  0  0  0  0  0  0  0  0
   -0.1385   -4.6894   30.1083 N   0  0  0  0  0  0  0  0  0  0  0  0
    1.1160   -4.8049   30.6601 N   0  0  0  0  0  0  0  0  0  0  0  0
    1.9131   -3.9789   30.0260 C   0  0  0  0  0  0  0  0  0  0  0  0
   -0.9698   -1.1468   33.4697 C   0  0  0  0  0  0  0  0  0  0  0  0
   -0.9133   -1.8660   34.6637 C   0  0  0  0  0  0  0  0  0  0  0  0
   -0.3467   -5.2069   32.7972 H   0  0  0  0  0  0  0  0  0  0  0  0
    1.0361   -6.0740   33.4844 H   0  0  0  0  0  0  0  0  0  0  0  0
    0.0700   -6.8128   32.1868 H   0  0  0  0  0  0  0  0  0  0  0  0
   -0.6949   -7.9009   34.1063 H   0  0  0  0  0  0  0  0  0  0  0  0
   -1.9416   -6.7146   33.7839 H   0  0  0  0  0  0  0  0  0  0  0  0
   -0.3797   -4.5663   34.7377 H   0  0  0  0  0  0  0  0  0  0  0  0
   -0.9799   -6.3278   37.7388 H   0  0  0  0  0  0  0  0  0  0  0  0
    0.1438   -4.2053   40.2011 H   0  0  0  0  0  0  0  0  0  0  0  0
    0.4187   -1.1065   40.4744 H   0  0  0  0  0  0  0  0  0  0  0  0
    1.6323   -2.3330   40.9161 H   0  0  0  0  0  0  0  0  0  0  0  0
    2.0598   -1.0502   39.7849 H   0  0  0  0  0  0  0  0  0  0  0  0
    1.1794   -1.0778   37.4627 H   0  0  0  0  0  0  0  0  0  0  0  0
    2.4626   -2.1150   34.9956 H   0  0  0  0  0  0  0  0  0  0  0  0
    2.3754   -0.8482   32.9010 H   0  0  0  0  0  0  0  0  0  0  0  0
   -0.0218   -0.7781   30.7819 H   0  0  0  0  0  0  0  0  0  0  0  0
   -0.8604    0.5610   31.3911 H   0  0  0  0  0  0  0  0  0  0  0  0
    1.5328    2.6503   31.8260 H   0  0  0  0  0  0  0  0  0  0  0  0
   -0.0872    2.3503   31.3623 H   0  0  0  0  0  0  0  0  0  0  0  0
    0.6262    1.6999   32.9437 H   0  0  0  0  0  0  0  0  0  0  0  0
    2.5327   -0.8880   30.5929 H   0  0  0  0  0  0  0  0  0  0  0  0
    3.0661   -0.7682   27.7251 H   0  0  0  0  0  0  0  0  0  0  0  0
    3.6829   -1.9697   28.8794 H   0  0  0  0  0  0  0  0  0  0  0  0
    0.8322   -1.8183   27.7229 H   0  0  0  0  0  0  0  0  0  0  0  0
    2.0749   -2.9818   27.2297 H   0  0  0  0  0  0  0  0  0  0  0  0
   -0.8712   -3.4719   28.5068 H   0  0  0  0  0  0  0  0  0  0  0  0
    2.9637   -3.8341   30.2307 H   0  0  0  0  0  0  0  0  0  0  0  0
   -1.9426   -0.8910   33.0549 H   0  0  0  0  0  0  0  0  0  0  0  0
   -1.8433   -2.1402   35.1602 H   0  0  0  0  0  0  0  0  0  0  0  0
  1  2  1  0
  2  3  1  0
  3  4  2  0
  3  5  1  0
  5  6  1  0
  6  7  2  0
  7  8  1  0
  7  9  1  0
  9 10  2  0
 10 11  1  0
 10 12  1  0
 12 13  2  0
 13 14  1  0
 14 15  2  0
 15 16  1  0
 16 17  2  0
 17 18  1  0
 18 19  1  0
 19 20  1  0
 19 21  1  0
 21 22  2  0
 21 23  1  0
 23 24  1  0
 24 25  1  0
 25 26  1  0
 26 27  1  0
 27 28  2  0
 28 29  1  0
 29 30  2  0
 17 31  1  0
 31 32  2  0
 13  6  1  0
 32 14  1  0
 30 26  1  0
  1 33  1  0
  1 34  1  0
  1 35  1  0
  2 36  1  0
  2 37  1  0
  5 38  1  0
  8 39  1  0
  9 40  1  0
 11 41  1  0
 11 42  1  0
 11 43  1  0
 12 44  1  0
 15 45  1  0
 16 46  1  0
 18 47  1  0
 18 48  1  0
 20 49  1  0
 20 50  1  0
 20 51  1  0
 23 52  1  0
 24 53  1  0
 24 54  1  0
 25 55  1  0
 25 56  1  0
 27 57  1  0
 30 58  1  0
 31 59  1  0
 32 60  1  0
M  END
>  <Energy>  (211) 
30.700598785700748

>  <compound_id>  (211) 
543

>  <target_id>  (211) 
1

>  <reference_id>  (211) 
56

>  <inspiration_ids>  (211) 
[56, 199]

>  <energy_score>  (211) 
18.302583980591972

>  <distance_score>  (211) 
2.890558091369005

>  <path>  (211) 
/opt/xchem-fragalysis-2/maxwin/BulkDock/SCRATCH/505733/C543-P56/C543-P56.minimised.mol

>  <scratch_subdir>  (211) 
/opt/xchem-fragalysis-2/maxwin/BulkDock/SCRATCH/505733/C543-P56

>  <fragmenstein_runtime>  (211) 
24.30140233039856

>  <fragmenstein_outcome>  (211) 
too moved

>  <fragmenstein_mode>  (211) 
expansion

>  <fragmenstein_error>  (211) 


$$$$
C543-P199
     RDKit          3D

 60 62  0  0  0  0  0  0  0  0999 V2000
   -0.3110   -7.2923   34.3080 C   0  0  0  0  0  0  0  0  0  0  0  0
   -0.2895   -7.5487   35.8034 C   0  0  0  0  0  0  0  0  0  0  0  0
    1.0104   -7.0858   36.4554 C   0  0  0  0  0  0  0  0  0  0  0  0
    1.8679   -7.8844   36.7113 O   0  0  0  0  0  0  0  0  0  0  0  0
    0.9593   -5.6650   36.6638 N   0  0  0  0  0  0  0  0  0  0  0  0
    1.9319   -4.7637   37.1451 C   0  0  0  0  0  0  0  0  0  0  0  0
    2.9817   -5.1546   37.9894 C   0  0  0  0  0  0  0  0  0  0  0  0
    3.2288   -6.4355   38.3992 O   0  0  0  0  0  0  0  0  0  0  0  0
    3.8586   -4.2098   38.5253 C   0  0  0  0  0  0  0  0  0  0  0  0
    3.7306   -2.8559   38.2196 C   0  0  0  0  0  0  0  0  0  0  0  0
    4.7034   -1.8565   38.7696 C   0  0  0  0  0  0  0  0  0  0  0  0
    2.7240   -2.4608   37.3358 C   0  0  0  0  0  0  0  0  0  0  0  0
    1.8113   -3.3878   36.7899 C   0  0  0  0  0  0  0  0  0  0  0  0
    0.8034   -2.8992   35.8224 C   0  0  0  0  0  0  0  0  0  0  0  0
    0.6207   -3.5576   34.6010 C   0  0  0  0  0  0  0  0  0  0  0  0
   -0.4315   -3.2273   33.7552 C   0  0  0  0  0  0  0  0  0  0  0  0
   -1.2675   -2.1486   34.0433 C   0  0  0  0  0  0  0  0  0  0  0  0
   -2.4562   -1.8473   33.1365 C   0  0  0  0  0  0  0  0  0  0  0  0
   -2.0952   -0.9645   31.9250 N   0  0  0  0  0  0  0  0  0  0  0  0
   -3.5556   -0.7042   31.9516 C   0  0  0  0  0  0  0  0  0  0  0  0
   -1.2829   -1.7218   30.9711 C   0  0  0  0  0  0  0  0  0  0  0  0
   -1.6071   -2.3740   30.0521 O   0  0  0  0  0  0  0  0  0  0  0  0
    0.0399   -1.3490   31.4398 N   0  0  0  0  0  0  0  0  0  0  0  0
    1.3452   -1.5846   30.8696 C   0  0  0  0  0  0  0  0  0  0  0  0
    1.4526   -2.7793   29.9139 C   0  0  0  0  0  0  0  0  0  0  0  0
    1.1746   -4.0580   30.5208 N   0  0  0  0  0  0  0  0  0  0  0  0
    0.1709   -4.9123   30.1877 C   0  0  0  0  0  0  0  0  0  0  0  0
    0.2249   -5.9773   30.9554 N   0  0  0  0  0  0  0  0  0  0  0  0
    1.3051   -5.8224   31.7958 N   0  0  0  0  0  0  0  0  0  0  0  0
    1.8729   -4.6717   31.5094 C   0  0  0  0  0  0  0  0  0  0  0  0
   -1.0313   -1.4092   35.2077 C   0  0  0  0  0  0  0  0  0  0  0  0
   -0.0229   -1.7979   36.0984 C   0  0  0  0  0  0  0  0  0  0  0  0
   -0.4098   -6.2266   34.0951 H   0  0  0  0  0  0  0  0  0  0  0  0
    0.6080   -7.6458   33.8334 H   0  0  0  0  0  0  0  0  0  0  0  0
   -1.1617   -7.8001   33.8441 H   0  0  0  0  0  0  0  0  0  0  0  0
   -0.3979   -8.6167   36.0063 H   0  0  0  0  0  0  0  0  0  0  0  0
   -1.1389   -7.0526   36.2821 H   0  0  0  0  0  0  0  0  0  0  0  0
    0.1093   -5.3002   36.2467 H   0  0  0  0  0  0  0  0  0  0  0  0
    2.7410   -7.0616   37.8268 H   0  0  0  0  0  0  0  0  0  0  0  0
    4.6505   -4.5490   39.1904 H   0  0  0  0  0  0  0  0  0  0  0  0
    4.2293   -0.8769   38.8914 H   0  0  0  0  0  0  0  0  0  0  0  0
    5.0663   -2.1655   39.7555 H   0  0  0  0  0  0  0  0  0  0  0  0
    5.5582   -1.7547   38.0939 H   0  0  0  0  0  0  0  0  0  0  0  0
    2.6567   -1.4108   37.0541 H   0  0  0  0  0  0  0  0  0  0  0  0
    1.2627   -4.3921   34.3252 H   0  0  0  0  0  0  0  0  0  0  0  0
   -0.6104   -3.8391   32.8747 H   0  0  0  0  0  0  0  0  0  0  0  0
   -2.8243   -2.8188   32.7674 H   0  0  0  0  0  0  0  0  0  0  0  0
   -3.1940   -1.4410   33.8531 H   0  0  0  0  0  0  0  0  0  0  0  0
   -4.2086   -1.5842   31.8394 H   0  0  0  0  0  0  0  0  0  0  0  0
   -3.8577    0.0048   32.7344 H   0  0  0  0  0  0  0  0  0  0  0  0
   -3.7246   -0.1778   31.0049 H   0  0  0  0  0  0  0  0  0  0  0  0
   -0.0532   -0.7066   32.2177 H   0  0  0  0  0  0  0  0  0  0  0  0
    1.6189   -0.6699   30.3330 H   0  0  0  0  0  0  0  0  0  0  0  0
    2.0405   -1.6932   31.7088 H   0  0  0  0  0  0  0  0  0  0  0  0
    0.7833   -2.6526   29.0556 H   0  0  0  0  0  0  0  0  0  0  0  0
    2.4733   -2.8385   29.5176 H   0  0  0  0  0  0  0  0  0  0  0  0
   -0.5500   -4.7009   29.4098 H   0  0  0  0  0  0  0  0  0  0  0  0
    2.7495   -4.2556   31.9859 H   0  0  0  0  0  0  0  0  0  0  0  0
   -1.6646   -0.5621   35.4615 H   0  0  0  0  0  0  0  0  0  0  0  0
    0.0886   -1.2506   37.0327 H   0  0  0  0  0  0  0  0  0  0  0  0
  1  2  1  0
  2  3  1  0
  3  4  2  0
  3  5  1  0
  5  6  1  0
  6  7  2  0
  7  8  1  0
  7  9  1  0
  9 10  2  0
 10 11  1  0
 10 12  1  0
 12 13  2  0
 13 14  1  0
 14 15  2  0
 15 16  1  0
 16 17  2  0
 17 18  1  0
 18 19  1  0
 19 20  1  0
 19 21  1  0
 21 22  2  0
 21 23  1  0
 23 24  1  0
 24 25  1  0
 25 26  1  0
 26 27  1  0
 27 28  2  0
 28 29  1  0
 29 30  2  0
 17 31  1  0
 31 32  2  0
 13  6  1  0
 32 14  1  0
 30 26  1  0
  1 33  1  0
  1 34  1  0
  1 35  1  0
  2 36  1  0
  2 37  1  0
  5 38  1  0
  8 39  1  0
  9 40  1  0
 11 41  1  0
 11 42  1  0
 11 43  1  0
 12 44  1  0
 15 45  1  0
 16 46  1  0
 18 47  1  0
 18 48  1  0
 20 49  1  0
 20 50  1  0
 20 51  1  0
 23 52  1  0
 24 53  1  0
 24 54  1  0
 25 55  1  0
 25 56  1  0
 27 57  1  0
 30 58  1  0
 31 59  1  0
 32 60  1  0
M  END
>  <Energy>  (212) 
30.134881392152757

>  <compound_id>  (212) 
543

>  <target_id>  (212) 
1

>  <reference_id>  (212) 
199

>  <inspiration_ids>  (212) 
[56, 199]

>  <energy_score>  (212) 
17.73686658704625

>  <distance_score>  (212) 
2.3377832411716453

>  <path>  (212) 
/opt/xchem-fragalysis-2/maxwin/BulkDock/SCRATCH/505733/C543-P199/C543-P199.minimised.mol

>  <scratch_subdir>  (212) 
/opt/xchem-fragalysis-2/maxwin/BulkDock/SCRATCH/505733/C543-P199

>  <fragmenstein_runtime>  (212) 
23.896294116973877

>  <fragmenstein_outcome>  (212) 
too moved

>  <fragmenstein_mode>  (212) 
expansion

>  <fragmenstein_error>  (212) 


$$$$
C544-P56
     RDKit          3D

 60 62  0  0  0  0  0  0  0  0999 V2000
    5.2079   -3.7822   32.1446 C   0  0  0  0  0  0  0  0  0  0  0  0
    4.5652   -3.0530   33.3134 C   0  0  0  0  0  0  0  0  0  0  0  0
    3.5173   -3.9037   34.0307 C   0  0  0  0  0  0  0  0  0  0  0  0
    3.2818   -5.0212   33.6683 O   0  0  0  0  0  0  0  0  0  0  0  0
    2.9480   -3.1200   35.0966 N   0  0  0  0  0  0  0  0  0  0  0  0
    2.0124   -3.4541   36.0916 C   0  0  0  0  0  0  0  0  0  0  0  0
    1.8283   -2.4334   37.0502 C   0  0  0  0  0  0  0  0  0  0  0  0
    2.5840   -1.2844   36.9355 O   0  0  0  0  0  0  0  0  0  0  0  0
    0.9086   -2.5439   38.0919 C   0  0  0  0  0  0  0  0  0  0  0  0
    0.1365   -3.6969   38.2028 C   0  0  0  0  0  0  0  0  0  0  0  0
   -0.8771   -3.8366   39.2977 C   0  0  0  0  0  0  0  0  0  0  0  0
    0.2953   -4.7095   37.2476 C   0  0  0  0  0  0  0  0  0  0  0  0
    1.2383   -4.6271   36.1960 C   0  0  0  0  0  0  0  0  0  0  0  0
    1.3388   -5.7299   35.3229 N   0  0  0  0  0  0  0  0  0  0  0  0
    0.1593   -6.0442   34.5220 C   0  0  0  0  0  0  0  0  0  0  0  0
   -0.1217   -5.0241   33.4447 C   0  0  0  0  0  0  0  0  0  0  0  0
   -0.6959   -3.7876   33.7807 C   0  0  0  0  0  0  0  0  0  0  0  0
   -1.0699   -2.8577   32.8131 C   0  0  0  0  0  0  0  0  0  0  0  0
   -0.8276   -3.1231   31.4807 C   0  0  0  0  0  0  0  0  0  0  0  0
   -0.1585   -4.3062   31.1436 C   0  0  0  0  0  0  0  0  0  0  0  0
    0.4035   -4.4864   29.5328 C   0  0  0  0  0  0  0  0  0  0  0  0
    2.0071   -3.3596   28.9806 N   0  0  0  0  0  0  0  0  0  0  0  0
    0.9116   -3.8686   29.2095 C   0  0  0  0  0  0  0  0  0  0  0  0
    2.7104   -2.3021   29.6764 C   0  0  0  0  0  0  0  0  0  0  0  0
    2.4636   -1.7406   30.7028 O   0  0  0  0  0  0  0  0  0  0  0  0
    3.8907   -1.8768   28.8315 C   0  0  0  0  0  0  0  0  0  0  0  0
    3.4735   -0.9216   27.8405 N   0  0  0  0  0  0  0  0  0  0  0  0
    3.4888   -1.0748   26.4938 C   0  0  0  0  0  0  0  0  0  0  0  0
    3.1232    0.0568   25.9308 N   0  0  0  0  0  0  0  0  0  0  0  0
    2.7616    0.9256   26.9349 N   0  0  0  0  0  0  0  0  0  0  0  0
    2.9771    0.3203   28.0790 C   0  0  0  0  0  0  0  0  0  0  0  0
    0.1776   -5.2744   32.1056 C   0  0  0  0  0  0  0  0  0  0  0  0
    4.4570   -4.0974   31.4129 H   0  0  0  0  0  0  0  0  0  0  0  0
    5.7369   -4.6784   32.4856 H   0  0  0  0  0  0  0  0  0  0  0  0
    5.9279   -3.1318   31.6387 H   0  0  0  0  0  0  0  0  0  0  0  0
    5.3422   -2.7741   34.0343 H   0  0  0  0  0  0  0  0  0  0  0  0
    4.0842   -2.1385   32.9495 H   0  0  0  0  0  0  0  0  0  0  0  0
    3.4489   -2.2421   35.1662 H   0  0  0  0  0  0  0  0  0  0  0  0
    2.3675   -0.7073   37.6856 H   0  0  0  0  0  0  0  0  0  0  0  0
    0.7862   -1.7433   38.8141 H   0  0  0  0  0  0  0  0  0  0  0  0
   -1.8217   -3.3760   38.9928 H   0  0  0  0  0  0  0  0  0  0  0  0
   -1.0590   -4.8904   39.5340 H   0  0  0  0  0  0  0  0  0  0  0  0
   -0.5265   -3.3544   40.2163 H   0  0  0  0  0  0  0  0  0  0  0  0
   -0.3019   -5.6133   37.3415 H   0  0  0  0  0  0  0  0  0  0  0  0
    2.1429   -5.6143   34.6887 H   0  0  0  0  0  0  0  0  0  0  0  0
   -0.7347   -6.1778   35.1438 H   0  0  0  0  0  0  0  0  0  0  0  0
    0.3233   -7.0227   34.0551 H   0  0  0  0  0  0  0  0  0  0  0  0
   -0.9136   -3.5551   34.8211 H   0  0  0  0  0  0  0  0  0  0  0  0
   -1.5356   -1.9247   33.1169 H   0  0  0  0  0  0  0  0  0  0  0  0
   -1.0839   -2.3736   30.7378 H   0  0  0  0  0  0  0  0  0  0  0  0
   -0.6346   -4.5925   28.8407 H   0  0  0  0  0  0  0  0  0  0  0  0
    0.7465   -5.6444   29.5727 H   0  0  0  0  0  0  0  0  0  0  0  0
    1.8298   -4.1414   30.2204 H   0  0  0  0  0  0  0  0  0  0  0  0
    1.0223   -4.1547   27.9731 H   0  0  0  0  0  0  0  0  0  0  0  0
    0.3904   -2.7528   29.1860 H   0  0  0  0  0  0  0  0  0  0  0  0
    4.3648   -2.7274   28.3426 H   0  0  0  0  0  0  0  0  0  0  0  0
    4.6440   -1.4006   29.4687 H   0  0  0  0  0  0  0  0  0  0  0  0
    3.7729   -1.9794   25.9739 H   0  0  0  0  0  0  0  0  0  0  0  0
    2.8029    0.7292   29.0649 H   0  0  0  0  0  0  0  0  0  0  0  0
    0.7135   -6.1811   31.8310 H   0  0  0  0  0  0  0  0  0  0  0  0
  1  2  1  0
  2  3  1  0
  3  4  2  0
  3  5  1  0
  5  6  1  0
  6  7  2  0
  7  8  1  0
  7  9  1  0
  9 10  2  0
 10 11  1  0
 10 12  1  0
 12 13  2  0
 13 14  1  0
 14 15  1  0
 15 16  1  0
 16 17  2  0
 17 18  1  0
 18 19  2  0
 19 20  1  0
 20 21  1  0
 21 22  1  0
 22 23  1  0
 22 24  1  0
 24 25  2  0
 24 26  1  0
 26 27  1  0
 27 28  1  0
 28 29  2  0
 29 30  1  0
 30 31  2  0
 20 32  2  0
 13  6  1  0
 32 16  1  0
 31 27  1  0
  1 33  1  0
  1 34  1  0
  1 35  1  0
  2 36  1  0
  2 37  1  0
  5 38  1  0
  8 39  1  0
  9 40  1  0
 11 41  1  0
 11 42  1  0
 11 43  1  0
 12 44  1  0
 14 45  1  0
 15 46  1  0
 15 47  1  0
 17 48  1  0
 18 49  1  0
 19 50  1  0
 21 51  1  0
 21 52  1  0
 23 53  1  0
 23 54  1  0
 23 55  1  0
 26 56  1  0
 26 57  1  0
 28 58  1  0
 31 59  1  0
 32 60  1  0
M  END
>  <Energy>  (213) 
884.73023177706114

>  <compound_id>  (213) 
544

>  <target_id>  (213) 
1

>  <reference_id>  (213) 
56

>  <inspiration_ids>  (213) 
[56, 200]

>  <energy_score>  (213) 
707.0338612331185

>  <distance_score>  (213) 
3.7704233200557584

>  <path>  (213) 
/opt/xchem-fragalysis-2/maxwin/BulkDock/SCRATCH/505733/C544-P56/C544-P56.minimised.mol

>  <scratch_subdir>  (213) 
/opt/xchem-fragalysis-2/maxwin/BulkDock/SCRATCH/505733/C544-P56

>  <fragmenstein_runtime>  (213) 
16.560941219329834

>  <fragmenstein_outcome>  (213) 
too moved

>  <fragmenstein_mode>  (213) 
expansion

>  <fragmenstein_error>  (213) 


$$$$
C544-P200
     RDKit          3D

 60 62  0  0  0  0  0  0  0  0999 V2000
    2.2842   -0.1078   33.1406 C   0  0  0  0  0  0  0  0  0  0  0  0
    2.0512   -0.3186   34.6264 C   0  0  0  0  0  0  0  0  0  0  0  0
    1.5505   -1.7263   34.9561 C   0  0  0  0  0  0  0  0  0  0  0  0
    1.3243   -2.5216   34.0893 O   0  0  0  0  0  0  0  0  0  0  0  0
    1.4418   -1.8384   36.3886 N   0  0  0  0  0  0  0  0  0  0  0  0
    0.9515   -2.8789   37.2017 C   0  0  0  0  0  0  0  0  0  0  0  0
    0.8638   -2.5015   38.5593 C   0  0  0  0  0  0  0  0  0  0  0  0
    1.2305   -1.2184   38.9079 O   0  0  0  0  0  0  0  0  0  0  0  0
    0.4190   -3.3750   39.5411 C   0  0  0  0  0  0  0  0  0  0  0  0
    0.0652   -4.6715   39.1831 C   0  0  0  0  0  0  0  0  0  0  0  0
   -0.4351   -5.6224   40.2273 C   0  0  0  0  0  0  0  0  0  0  0  0
    0.1416   -5.0604   37.8354 C   0  0  0  0  0  0  0  0  0  0  0  0
    0.5632   -4.1849   36.8145 C   0  0  0  0  0  0  0  0  0  0  0  0
    0.7296   -4.6495   35.5117 N   0  0  0  0  0  0  0  0  0  0  0  0
    0.1104   -5.8661   34.9952 C   0  0  0  0  0  0  0  0  0  0  0  0
    0.4320   -6.0193   33.5179 C   0  0  0  0  0  0  0  0  0  0  0  0
   -0.4507   -6.6666   32.6409 C   0  0  0  0  0  0  0  0  0  0  0  0
   -0.2085   -6.6785   31.2595 C   0  0  0  0  0  0  0  0  0  0  0  0
    0.9106   -6.0341   30.7316 C   0  0  0  0  0  0  0  0  0  0  0  0
    1.8189   -5.4423   31.6121 C   0  0  0  0  0  0  0  0  0  0  0  0
    3.1771   -4.5157   31.0386 C   0  0  0  0  0  0  0  0  0  0  0  0
    2.3497   -3.0166   30.0637 N   0  0  0  0  0  0  0  0  0  0  0  0
    3.1293   -3.7389   30.7882 C   0  0  0  0  0  0  0  0  0  0  0  0
    1.7270   -3.1552   28.6448 C   0  0  0  0  0  0  0  0  0  0  0  0
    1.7159   -4.0231   27.8800 O   0  0  0  0  0  0  0  0  0  0  0  0
    0.9774   -1.8470   28.4690 C   0  0  0  0  0  0  0  0  0  0  0  0
   -0.2333   -1.8782   29.2564 N   0  0  0  0  0  0  0  0  0  0  0  0
   -1.1420   -2.8883   29.2995 C   0  0  0  0  0  0  0  0  0  0  0  0
   -2.0526   -2.6225   30.2077 N   0  0  0  0  0  0  0  0  0  0  0  0
   -1.7320   -1.4101   30.7694 N   0  0  0  0  0  0  0  0  0  0  0  0
   -0.6305   -0.9822   30.1943 C   0  0  0  0  0  0  0  0  0  0  0  0
    1.6078   -5.4716   32.9928 C   0  0  0  0  0  0  0  0  0  0  0  0
    2.6134    0.9178   32.9480 H   0  0  0  0  0  0  0  0  0  0  0  0
    1.3685   -0.2865   32.5690 H   0  0  0  0  0  0  0  0  0  0  0  0
    3.0546   -0.7887   32.7653 H   0  0  0  0  0  0  0  0  0  0  0  0
    1.3063    0.4036   34.9797 H   0  0  0  0  0  0  0  0  0  0  0  0
    2.9897   -0.1429   35.1647 H   0  0  0  0  0  0  0  0  0  0  0  0
    1.6374   -0.9351   36.8079 H   0  0  0  0  0  0  0  0  0  0  0  0
    1.0837   -1.1136   39.8634 H   0  0  0  0  0  0  0  0  0  0  0  0
    0.3472   -3.0647   40.5789 H   0  0  0  0  0  0  0  0  0  0  0  0
   -0.3243   -6.6623   39.9027 H   0  0  0  0  0  0  0  0  0  0  0  0
    0.1349   -5.5120   41.1559 H   0  0  0  0  0  0  0  0  0  0  0  0
   -1.4919   -5.4298   40.4343 H   0  0  0  0  0  0  0  0  0  0  0  0
   -0.1334   -6.0831   37.5917 H   0  0  0  0  0  0  0  0  0  0  0  0
    0.6464   -3.8721   34.8438 H   0  0  0  0  0  0  0  0  0  0  0  0
   -0.9762   -5.8129   35.1286 H   0  0  0  0  0  0  0  0  0  0  0  0
    0.4959   -6.7509   35.5142 H   0  0  0  0  0  0  0  0  0  0  0  0
   -1.3609   -7.1223   33.0241 H   0  0  0  0  0  0  0  0  0  0  0  0
   -0.9254   -7.1482   30.5925 H   0  0  0  0  0  0  0  0  0  0  0  0
    1.0563   -5.9759   29.6579 H   0  0  0  0  0  0  0  0  0  0  0  0
    3.8975   -4.5770   32.0883 H   0  0  0  0  0  0  0  0  0  0  0  0
    3.5589   -5.3885   30.2659 H   0  0  0  0  0  0  0  0  0  0  0  0
    4.0625   -2.9453   31.1758 H   0  0  0  0  0  0  0  0  0  0  0  0
    3.9589   -3.5345   29.8334 H   0  0  0  0  0  0  0  0  0  0  0  0
    2.6822   -2.9781   31.7033 H   0  0  0  0  0  0  0  0  0  0  0  0
    1.5950   -0.9996   28.7838 H   0  0  0  0  0  0  0  0  0  0  0  0
    0.7027   -1.7037   27.4260 H   0  0  0  0  0  0  0  0  0  0  0  0
   -1.0899   -3.7687   28.6762 H   0  0  0  0  0  0  0  0  0  0  0  0
   -0.1044   -0.0682   30.4275 H   0  0  0  0  0  0  0  0  0  0  0  0
    2.3120   -4.9731   33.6571 H   0  0  0  0  0  0  0  0  0  0  0  0
  1  2  1  0
  2  3  1  0
  3  4  2  0
  3  5  1  0
  5  6  1  0
  6  7  2  0
  7  8  1  0
  7  9  1  0
  9 10  2  0
 10 11  1  0
 10 12  1  0
 12 13  2  0
 13 14  1  0
 14 15  1  0
 15 16  1  0
 16 17  2  0
 17 18  1  0
 18 19  2  0
 19 20  1  0
 20 21  1  0
 21 22  1  0
 22 23  1  0
 22 24  1  0
 24 25  2  0
 24 26  1  0
 26 27  1  0
 27 28  1  0
 28 29  2  0
 29 30  1  0
 30 31  2  0
 20 32  2  0
 13  6  1  0
 32 16  1  0
 31 27  1  0
  1 33  1  0
  1 34  1  0
  1 35  1  0
  2 36  1  0
  2 37  1  0
  5 38  1  0
  8 39  1  0
  9 40  1  0
 11 41  1  0
 11 42  1  0
 11 43  1  0
 12 44  1  0
 14 45  1  0
 15 46  1  0
 15 47  1  0
 17 48  1  0
 18 49  1  0
 19 50  1  0
 21 51  1  0
 21 52  1  0
 23 53  1  0
 23 54  1  0
 23 55  1  0
 26 56  1  0
 26 57  1  0
 28 58  1  0
 31 59  1  0
 32 60  1  0
M  END
>  <Energy>  (214) 
784.76177191120087

>  <compound_id>  (214) 
544

>  <target_id>  (214) 
1

>  <reference_id>  (214) 
200

>  <inspiration_ids>  (214) 
[56, 200]

>  <energy_score>  (214) 
607.0654013672555

>  <distance_score>  (214) 
2.881012675555298

>  <path>  (214) 
/opt/xchem-fragalysis-2/maxwin/BulkDock/SCRATCH/505733/C544-P200/C544-P200.minimised.mol

>  <scratch_subdir>  (214) 
/opt/xchem-fragalysis-2/maxwin/BulkDock/SCRATCH/505733/C544-P200

>  <fragmenstein_runtime>  (214) 
10.067986488342285

>  <fragmenstein_outcome>  (214) 
too moved

>  <fragmenstein_mode>  (214) 
expansion

>  <fragmenstein_error>  (214) 


$$$$
C545-P56
     RDKit          3D

 64 66  0  0  0  0  0  0  0  0999 V2000
    6.8897   -5.6282   31.9271 C   0  0  0  0  0  0  0  0  0  0  0  0
    5.6629   -5.5481   32.7979 C   0  0  0  0  0  0  0  0  0  0  0  0
    5.7098   -4.4778   33.8722 C   0  0  0  0  0  0  0  0  0  0  0  0
    6.7100   -4.2980   34.5204 O   0  0  0  0  0  0  0  0  0  0  0  0
    4.4133   -3.8904   33.9839 N   0  0  0  0  0  0  0  0  0  0  0  0
    4.3088   -2.5370   33.0469 C   0  0  0  0  0  0  0  0  0  0  0  0
    4.8145   -2.6261   31.5697 C   0  0  0  0  0  0  0  0  0  0  0  0
    4.0848   -3.4269   30.4683 C   0  0  0  0  0  0  0  0  0  0  0  0
    2.6063   -3.2107   30.3492 C   0  0  0  0  0  0  0  0  0  0  0  0
    2.0018   -2.6488   29.2219 C   0  0  0  0  0  0  0  0  0  0  0  0
    0.6130   -2.4684   29.1757 C   0  0  0  0  0  0  0  0  0  0  0  0
   -0.1884   -2.8270   30.2603 C   0  0  0  0  0  0  0  0  0  0  0  0
    0.4160   -3.4063   31.3764 C   0  0  0  0  0  0  0  0  0  0  0  0
   -0.4432   -3.8218   32.7660 C   0  0  0  0  0  0  0  0  0  0  0  0
    0.4915   -5.4494   33.0232 N   0  0  0  0  0  0  0  0  0  0  0  0
   -0.5720   -4.5862   33.3356 C   0  0  0  0  0  0  0  0  0  0  0  0
    0.3698   -6.5552   33.8467 C   0  0  0  0  0  0  0  0  0  0  0  0
    0.8764   -6.7018   34.9522 O   0  0  0  0  0  0  0  0  0  0  0  0
   -0.4081   -7.6421   33.1412 C   0  0  0  0  0  0  0  0  0  0  0  0
   -1.5472   -8.1229   33.8727 N   0  0  0  0  0  0  0  0  0  0  0  0
   -2.5492   -8.8646   33.3377 C   0  0  0  0  0  0  0  0  0  0  0  0
   -3.5341   -8.9350   34.2002 N   0  0  0  0  0  0  0  0  0  0  0  0
   -3.1346   -8.2892   35.3407 N   0  0  0  0  0  0  0  0  0  0  0  0
   -1.9024   -7.8776   35.1544 C   0  0  0  0  0  0  0  0  0  0  0  0
    1.7972   -3.6201   31.3978 C   0  0  0  0  0  0  0  0  0  0  0  0
    3.8567   -2.9628   34.9900 C   0  0  0  0  0  0  0  0  0  0  0  0
    2.4870   -3.1245   35.2642 C   0  0  0  0  0  0  0  0  0  0  0  0
    1.8623   -2.4592   36.3232 C   0  0  0  0  0  0  0  0  0  0  0  0
    2.6070   -1.6298   37.1629 C   0  0  0  0  0  0  0  0  0  0  0  0
    1.9601   -0.9461   38.3293 C   0  0  0  0  0  0  0  0  0  0  0  0
    3.9890   -1.5357   36.9629 C   0  0  0  0  0  0  0  0  0  0  0  0
    4.6083   -2.2315   35.9213 C   0  0  0  0  0  0  0  0  0  0  0  0
    5.9696   -2.1455   35.8734 O   0  0  0  0  0  0  0  0  0  0  0  0
    6.7991   -6.4456   31.2054 H   0  0  0  0  0  0  0  0  0  0  0  0
    7.7859   -5.8127   32.5290 H   0  0  0  0  0  0  0  0  0  0  0  0
    7.0590   -4.7048   31.3690 H   0  0  0  0  0  0  0  0  0  0  0  0
    5.5610   -6.4998   33.3373 H   0  0  0  0  0  0  0  0  0  0  0  0
    4.7557   -5.4613   32.2050 H   0  0  0  0  0  0  0  0  0  0  0  0
    3.2820   -2.1442   33.0079 H   0  0  0  0  0  0  0  0  0  0  0  0
    4.9890   -1.7735   33.4629 H   0  0  0  0  0  0  0  0  0  0  0  0
    5.8679   -2.9190   31.5742 H   0  0  0  0  0  0  0  0  0  0  0  0
    4.8216   -1.5843   31.2143 H   0  0  0  0  0  0  0  0  0  0  0  0
    4.5586   -3.1521   29.5161 H   0  0  0  0  0  0  0  0  0  0  0  0
    4.2646   -4.4992   30.5591 H   0  0  0  0  0  0  0  0  0  0  0  0
    2.6012   -2.3397   28.3664 H   0  0  0  0  0  0  0  0  0  0  0  0
    0.1628   -2.0276   28.2875 H   0  0  0  0  0  0  0  0  0  0  0  0
   -1.2564   -2.6429   30.2099 H   0  0  0  0  0  0  0  0  0  0  0  0
   -1.5035   -3.6392   32.1828 H   0  0  0  0  0  0  0  0  0  0  0  0
   -0.0359   -2.8441   33.3226 H   0  0  0  0  0  0  0  0  0  0  0  0
   -1.4441   -5.3070   32.8737 H   0  0  0  0  0  0  0  0  0  0  0  0
   -0.2101   -4.2953   34.4737 H   0  0  0  0  0  0  0  0  0  0  0  0
   -1.2069   -5.0826   34.1860 H   0  0  0  0  0  0  0  0  0  0  0  0
   -0.7635   -7.3079   32.1589 H   0  0  0  0  0  0  0  0  0  0  0  0
    0.2435   -8.4787   32.9652 H   0  0  0  0  0  0  0  0  0  0  0  0
   -2.5381   -9.2932   32.3470 H   0  0  0  0  0  0  0  0  0  0  0  0
   -1.2868   -7.3851   35.8954 H   0  0  0  0  0  0  0  0  0  0  0  0
    2.2578   -4.1046   32.2546 H   0  0  0  0  0  0  0  0  0  0  0  0
    1.9248   -3.8418   34.6804 H   0  0  0  0  0  0  0  0  0  0  0  0
    0.8055   -2.6284   36.5116 H   0  0  0  0  0  0  0  0  0  0  0  0
    0.9233   -0.6797   38.0983 H   0  0  0  0  0  0  0  0  0  0  0  0
    1.9708   -1.6050   39.2031 H   0  0  0  0  0  0  0  0  0  0  0  0
    2.4856   -0.0182   38.5787 H   0  0  0  0  0  0  0  0  0  0  0  0
    4.6043   -0.9551   37.6459 H   0  0  0  0  0  0  0  0  0  0  0  0
    6.3111   -2.9839   35.4932 H   0  0  0  0  0  0  0  0  0  0  0  0
  1  2  1  0
  2  3  1  0
  3  4  2  0
  3  5  1  0
  5  6  1  0
  6  7  1  0
  7  8  1  0
  8  9  1  0
  9 10  2  0
 10 11  1  0
 11 12  2  0
 12 13  1  0
 13 14  1  0
 14 15  1  0
 15 16  1  0
 15 17  1  0
 17 18  2  0
 17 19  1  0
 19 20  1  0
 20 21  1  0
 21 22  2  0
 22 23  1  0
 23 24  2  0
 13 25  2  0
  5 26  1  0
 26 27  2  0
 27 28  1  0
 28 29  2  0
 29 30  1  0
 29 31  1  0
 31 32  2  0
 32 33  1  0
 25  9  1  0
 32 26  1  0
 24 20  1  0
  1 34  1  0
  1 35  1  0
  1 36  1  0
  2 37  1  0
  2 38  1  0
  6 39  1  0
  6 40  1  0
  7 41  1  0
  7 42  1  0
  8 43  1  0
  8 44  1  0
 10 45  1  0
 11 46  1  0
 12 47  1  0
 14 48  1  0
 14 49  1  0
 16 50  1  0
 16 51  1  0
 16 52  1  0
 19 53  1  0
 19 54  1  0
 21 55  1  0
 24 56  1  0
 25 57  1  0
 27 58  1  0
 28 59  1  0
 30 60  1  0
 30 61  1  0
 30 62  1  0
 31 63  1  0
 33 64  1  0
M  END
>  <Energy>  (215) 
677.14495574439491

>  <compound_id>  (215) 
545

>  <target_id>  (215) 
1

>  <reference_id>  (215) 
56

>  <inspiration_ids>  (215) 
[56, 201]

>  <energy_score>  (215) 
579.5876756517592

>  <distance_score>  (215) 
4.42398459061523

>  <path>  (215) 
/opt/xchem-fragalysis-2/maxwin/BulkDock/SCRATCH/505733/C545-P56/C545-P56.minimised.mol

>  <scratch_subdir>  (215) 
/opt/xchem-fragalysis-2/maxwin/BulkDock/SCRATCH/505733/C545-P56

>  <fragmenstein_runtime>  (215) 
11.167770385742188

>  <fragmenstein_outcome>  (215) 
too moved

>  <fragmenstein_mode>  (215) 
expansion

>  <fragmenstein_error>  (215) 


$$$$
C545-P201
     RDKit          3D

 64 66  0  0  0  0  0  0  0  0999 V2000
    6.3409   -5.6320   33.5710 C   0  0  0  0  0  0  0  0  0  0  0  0
    4.8738   -5.2826   33.6931 C   0  0  0  0  0  0  0  0  0  0  0  0
    4.6711   -3.9364   34.3531 C   0  0  0  0  0  0  0  0  0  0  0  0
    5.4981   -3.5375   35.1338 O   0  0  0  0  0  0  0  0  0  0  0  0
    3.4052   -3.3826   33.9744 N   0  0  0  0  0  0  0  0  0  0  0  0
    3.5783   -2.3850   32.6851 C   0  0  0  0  0  0  0  0  0  0  0  0
    4.2712   -3.0011   31.4209 C   0  0  0  0  0  0  0  0  0  0  0  0
    3.5676   -4.0560   30.5225 C   0  0  0  0  0  0  0  0  0  0  0  0
    2.0750   -4.1416   30.6458 C   0  0  0  0  0  0  0  0  0  0  0  0
    1.2425   -3.3479   29.8493 C   0  0  0  0  0  0  0  0  0  0  0  0
   -0.1197   -3.2662   30.1247 C   0  0  0  0  0  0  0  0  0  0  0  0
   -0.6399   -3.9284   31.2333 C   0  0  0  0  0  0  0  0  0  0  0  0
    0.1796   -4.7644   32.0073 C   0  0  0  0  0  0  0  0  0  0  0  0
   -0.4030   -5.2301   33.4979 C   0  0  0  0  0  0  0  0  0  0  0  0
    0.0090   -6.9389   34.1439 N   0  0  0  0  0  0  0  0  0  0  0  0
    0.1473   -5.5140   34.2125 C   0  0  0  0  0  0  0  0  0  0  0  0
    0.8280   -7.4787   35.1437 C   0  0  0  0  0  0  0  0  0  0  0  0
    1.9993   -7.8033   34.9638 O   0  0  0  0  0  0  0  0  0  0  0  0
    0.1190   -7.6674   36.4818 C   0  0  0  0  0  0  0  0  0  0  0  0
    0.9416   -7.3134   37.6207 N   0  0  0  0  0  0  0  0  0  0  0  0
    0.8829   -7.8833   38.8555 C   0  0  0  0  0  0  0  0  0  0  0  0
    1.6950   -7.2521   39.6714 N   0  0  0  0  0  0  0  0  0  0  0  0
    2.3022   -6.2471   38.9565 N   0  0  0  0  0  0  0  0  0  0  0  0
    1.8412   -6.2978   37.7279 C   0  0  0  0  0  0  0  0  0  0  0  0
    1.5217   -4.9292   31.6607 C   0  0  0  0  0  0  0  0  0  0  0  0
    2.6609   -2.2006   34.5032 C   0  0  0  0  0  0  0  0  0  0  0  0
    1.2710   -2.1299   34.2794 C   0  0  0  0  0  0  0  0  0  0  0  0
    0.4420   -1.2567   34.9916 C   0  0  0  0  0  0  0  0  0  0  0  0
    0.9787   -0.4207   35.9678 C   0  0  0  0  0  0  0  0  0  0  0  0
    0.0987    0.4953   36.7642 C   0  0  0  0  0  0  0  0  0  0  0  0
    2.3472   -0.4937   36.2310 C   0  0  0  0  0  0  0  0  0  0  0  0
    3.1698   -1.3819   35.5296 C   0  0  0  0  0  0  0  0  0  0  0  0
    4.4736   -1.3519   35.9299 O   0  0  0  0  0  0  0  0  0  0  0  0
    6.8240   -5.6657   34.5539 H   0  0  0  0  0  0  0  0  0  0  0  0
    6.4892   -6.6077   33.1052 H   0  0  0  0  0  0  0  0  0  0  0  0
    6.8713   -4.8863   32.9691 H   0  0  0  0  0  0  0  0  0  0  0  0
    4.3714   -6.0281   34.3208 H   0  0  0  0  0  0  0  0  0  0  0  0
    4.3996   -5.3107   32.7220 H   0  0  0  0  0  0  0  0  0  0  0  0
    4.2565   -1.5671   32.9859 H   0  0  0  0  0  0  0  0  0  0  0  0
    2.6281   -1.9822   32.3055 H   0  0  0  0  0  0  0  0  0  0  0  0
    5.2713   -3.3664   31.6793 H   0  0  0  0  0  0  0  0  0  0  0  0
    4.4617   -2.1407   30.7618 H   0  0  0  0  0  0  0  0  0  0  0  0
    3.8306   -3.8495   29.4759 H   0  0  0  0  0  0  0  0  0  0  0  0
    3.9960   -5.0467   30.7017 H   0  0  0  0  0  0  0  0  0  0  0  0
    1.6543   -2.7480   29.0397 H   0  0  0  0  0  0  0  0  0  0  0  0
   -0.7576   -2.6267   29.5162 H   0  0  0  0  0  0  0  0  0  0  0  0
   -1.6685   -3.7388   31.5222 H   0  0  0  0  0  0  0  0  0  0  0  0
   -1.3414   -5.6965   32.9708 H   0  0  0  0  0  0  0  0  0  0  0  0
   -1.1368   -4.3510   33.9438 H   0  0  0  0  0  0  0  0  0  0  0  0
    1.3238   -5.6263   34.0749 H   0  0  0  0  0  0  0  0  0  0  0  0
    0.7471   -4.8817   35.0356 H   0  0  0  0  0  0  0  0  0  0  0  0
   -0.4369   -5.5288   35.2813 H   0  0  0  0  0  0  0  0  0  0  0  0
   -0.7916   -7.0666   36.5576 H   0  0  0  0  0  0  0  0  0  0  0  0
   -0.1824   -8.7065   36.5724 H   0  0  0  0  0  0  0  0  0  0  0  0
    0.2498   -8.7198   39.1090 H   0  0  0  0  0  0  0  0  0  0  0  0
    2.1307   -5.6380   36.9231 H   0  0  0  0  0  0  0  0  0  0  0  0
    2.1768   -5.5594   32.2537 H   0  0  0  0  0  0  0  0  0  0  0  0
    0.8156   -2.7566   33.5293 H   0  0  0  0  0  0  0  0  0  0  0  0
   -0.6244   -1.2362   34.7774 H   0  0  0  0  0  0  0  0  0  0  0  0
   -0.7555    0.8321   36.1674 H   0  0  0  0  0  0  0  0  0  0  0  0
   -0.2733   -0.0226   37.6536 H   0  0  0  0  0  0  0  0  0  0  0  0
    0.6475    1.3894   37.0784 H   0  0  0  0  0  0  0  0  0  0  0  0
    2.7891    0.1272   37.0086 H   0  0  0  0  0  0  0  0  0  0  0  0
    4.9287   -2.1861   35.6979 H   0  0  0  0  0  0  0  0  0  0  0  0
  1  2  1  0
  2  3  1  0
  3  4  2  0
  3  5  1  0
  5  6  1  0
  6  7  1  0
  7  8  1  0
  8  9  1  0
  9 10  2  0
 10 11  1  0
 11 12  2  0
 12 13  1  0
 13 14  1  0
 14 15  1  0
 15 16  1  0
 15 17  1  0
 17 18  2  0
 17 19  1  0
 19 20  1  0
 20 21  1  0
 21 22  2  0
 22 23  1  0
 23 24  2  0
 13 25  2  0
  5 26  1  0
 26 27  2  0
 27 28  1  0
 28 29  2  0
 29 30  1  0
 29 31  1  0
 31 32  2  0
 32 33  1  0
 25  9  1  0
 32 26  1  0
 24 20  1  0
  1 34  1  0
  1 35  1  0
  1 36  1  0
  2 37  1  0
  2 38  1  0
  6 39  1  0
  6 40  1  0
  7 41  1  0
  7 42  1  0
  8 43  1  0
  8 44  1  0
 10 45  1  0
 11 46  1  0
 12 47  1  0
 14 48  1  0
 14 49  1  0
 16 50  1  0
 16 51  1  0
 16 52  1  0
 19 53  1  0
 19 54  1  0
 21 55  1  0
 24 56  1  0
 25 57  1  0
 27 58  1  0
 28 59  1  0
 30 60  1  0
 30 61  1  0
 30 62  1  0
 31 63  1  0
 33 64  1  0
M  END
>  <Energy>  (216) 
677.72894279057437

>  <compound_id>  (216) 
545

>  <target_id>  (216) 
1

>  <reference_id>  (216) 
201

>  <inspiration_ids>  (216) 
[56, 201]

>  <energy_score>  (216) 
580.1716626979567

>  <distance_score>  (216) 
4.000335652494651

>  <path>  (216) 
/opt/xchem-fragalysis-2/maxwin/BulkDock/SCRATCH/505733/C545-P201/C545-P201.minimised.mol

>  <scratch_subdir>  (216) 
/opt/xchem-fragalysis-2/maxwin/BulkDock/SCRATCH/505733/C545-P201

>  <fragmenstein_runtime>  (216) 
13.109642744064331

>  <fragmenstein_outcome>  (216) 
too moved

>  <fragmenstein_mode>  (216) 
expansion

>  <fragmenstein_error>  (216) 


$$$$
C546-P56
     RDKit          3D

 62 65  0  0  0  0  0  0  0  0999 V2000
   -1.2666   -7.1919   32.8170 C   0  0  0  0  0  0  0  0  0  0  0  0
   -1.3525   -7.4828   34.3052 C   0  0  0  0  0  0  0  0  0  0  0  0
   -0.1598   -6.8684   35.0167 C   0  0  0  0  0  0  0  0  0  0  0  0
    0.8225   -7.5409   35.1413 O   0  0  0  0  0  0  0  0  0  0  0  0
   -0.4036   -5.4999   35.3523 N   0  0  0  0  0  0  0  0  0  0  0  0
    0.4512   -4.5097   35.8396 C   0  0  0  0  0  0  0  0  0  0  0  0
   -0.1380   -3.4279   36.5001 C   0  0  0  0  0  0  0  0  0  0  0  0
    0.6405   -2.3504   36.9362 C   0  0  0  0  0  0  0  0  0  0  0  0
    2.0188   -2.3115   36.6722 C   0  0  0  0  0  0  0  0  0  0  0  0
    2.7974   -1.0022   36.7863 C   0  0  0  0  0  0  0  0  0  0  0  0
    2.2995   -0.0713   35.6864 C   0  0  0  0  0  0  0  0  0  0  0  0
    2.5285   -0.4279   34.3491 C   0  0  0  0  0  0  0  0  0  0  0  0
    1.6033   -0.0747   33.3705 C   0  0  0  0  0  0  0  0  0  0  0  0
    0.4652    0.6552   33.7279 C   0  0  0  0  0  0  0  0  0  0  0  0
   -0.8581    0.5078   32.9841 C   0  0  0  0  0  0  0  0  0  0  0  0
   -0.7996    0.1838   31.5002 C   0  0  0  0  0  0  0  0  0  0  0  0
   -2.1653   -0.3365   31.0965 C   0  0  0  0  0  0  0  0  0  0  0  0
   -2.7035   -1.3245   32.1576 C   0  0  0  0  0  0  0  0  0  0  0  0
   -3.1083   -0.7854   33.5304 N   0  0  0  0  0  0  0  0  0  0  0  0
   -4.1151    0.2189   33.3894 C   0  0  0  0  0  0  0  0  0  0  0  0
   -4.0180    1.4121   33.2649 O   0  0  0  0  0  0  0  0  0  0  0  0
   -5.4914   -0.4176   33.5293 C   0  0  0  0  0  0  0  0  0  0  0  0
   -6.0550   -0.1119   34.8246 N   0  0  0  0  0  0  0  0  0  0  0  0
   -5.5155   -0.4150   36.0361 C   0  0  0  0  0  0  0  0  0  0  0  0
   -6.3581   -0.0766   36.9837 N   0  0  0  0  0  0  0  0  0  0  0  0
   -7.4501    0.5046   36.3799 N   0  0  0  0  0  0  0  0  0  0  0  0
   -7.2368    0.5057   35.0834 C   0  0  0  0  0  0  0  0  0  0  0  0
   -1.6189   -0.6668   33.6815 C   0  0  0  0  0  0  0  0  0  0  0  0
    0.4224    1.2655   34.9963 C   0  0  0  0  0  0  0  0  0  0  0  0
    1.3319    0.8925   35.9818 C   0  0  0  0  0  0  0  0  0  0  0  0
    2.6113   -3.4210   36.0606 C   0  0  0  0  0  0  0  0  0  0  0  0
    1.8380   -4.5069   35.6431 C   0  0  0  0  0  0  0  0  0  0  0  0
    2.5325   -5.4495   34.9379 O   0  0  0  0  0  0  0  0  0  0  0  0
   -1.3168   -6.1167   32.6188 H   0  0  0  0  0  0  0  0  0  0  0  0
   -0.3227   -7.5592   32.4001 H   0  0  0  0  0  0  0  0  0  0  0  0
   -2.0852   -7.6833   32.2835 H   0  0  0  0  0  0  0  0  0  0  0  0
   -2.2874   -7.1210   34.7353 H   0  0  0  0  0  0  0  0  0  0  0  0
   -1.3356   -8.5653   34.4773 H   0  0  0  0  0  0  0  0  0  0  0  0
   -1.3828   -5.2865   35.1823 H   0  0  0  0  0  0  0  0  0  0  0  0
   -1.2101   -3.4002   36.6725 H   0  0  0  0  0  0  0  0  0  0  0  0
    0.1497   -1.4999   37.4037 H   0  0  0  0  0  0  0  0  0  0  0  0
    3.8752   -1.1696   36.6745 H   0  0  0  0  0  0  0  0  0  0  0  0
    2.6435   -0.5633   37.7791 H   0  0  0  0  0  0  0  0  0  0  0  0
    3.3046   -1.1498   34.0994 H   0  0  0  0  0  0  0  0  0  0  0  0
    1.7162   -0.5274   32.3905 H   0  0  0  0  0  0  0  0  0  0  0  0
   -1.4222    1.4407   33.1092 H   0  0  0  0  0  0  0  0  0  0  0  0
   -0.5127    1.0602   30.9091 H   0  0  0  0  0  0  0  0  0  0  0  0
   -0.0706   -0.6028   31.2800 H   0  0  0  0  0  0  0  0  0  0  0  0
   -2.0903   -0.8394   30.1258 H   0  0  0  0  0  0  0  0  0  0  0  0
   -2.8590    0.4995   30.9683 H   0  0  0  0  0  0  0  0  0  0  0  0
   -3.6597   -1.6791   31.7463 H   0  0  0  0  0  0  0  0  0  0  0  0
   -2.1309   -2.2672   32.2017 H   0  0  0  0  0  0  0  0  0  0  0  0
   -5.4546   -1.5083   33.4377 H   0  0  0  0  0  0  0  0  0  0  0  0
   -6.1560   -0.0282   32.7540 H   0  0  0  0  0  0  0  0  0  0  0  0
   -4.5494   -0.8793   36.1785 H   0  0  0  0  0  0  0  0  0  0  0  0
   -7.8893    0.9245   34.3301 H   0  0  0  0  0  0  0  0  0  0  0  0
   -1.5862   -0.4299   34.7573 H   0  0  0  0  0  0  0  0  0  0  0  0
   -1.0755   -1.6293   33.6749 H   0  0  0  0  0  0  0  0  0  0  0  0
   -0.4303    1.8791   35.2837 H   0  0  0  0  0  0  0  0  0  0  0  0
    1.1638    1.2139   37.0070 H   0  0  0  0  0  0  0  0  0  0  0  0
    3.6758   -3.4271   35.8361 H   0  0  0  0  0  0  0  0  0  0  0  0
    2.0131   -6.2670   34.8118 H   0  0  0  0  0  0  0  0  0  0  0  0
  1  2  1  0
  2  3  1  0
  3  4  2  0
  3  5  1  0
  5  6  1  0
  6  7  2  0
  7  8  1  0
  8  9  2  0
  9 10  1  0
 10 11  1  0
 11 12  2  0
 12 13  1  0
 13 14  2  0
 14 15  1  0
 15 16  1  0
 16 17  1  0
 17 18  1  0
 18 19  1  0
 19 20  1  0
 20 21  2  0
 20 22  1  0
 22 23  1  0
 23 24  1  0
 24 25  2  0
 25 26  1  0
 26 27  2  0
 19 28  1  0
 14 29  1  0
 29 30  2  0
  9 31  1  0
 31 32  2  0
 32 33  1  0
 32  6  1  0
 30 11  1  0
 28 15  1  0
 27 23  1  0
  1 34  1  0
  1 35  1  0
  1 36  1  0
  2 37  1  0
  2 38  1  0
  5 39  1  0
  7 40  1  0
  8 41  1  0
 10 42  1  0
 10 43  1  0
 12 44  1  0
 13 45  1  0
 15 46  1  0
 16 47  1  0
 16 48  1  0
 17 49  1  0
 17 50  1  0
 18 51  1  0
 18 52  1  0
 22 53  1  0
 22 54  1  0
 24 55  1  0
 27 56  1  0
 28 57  1  0
 28 58  1  0
 29 59  1  0
 30 60  1  0
 31 61  1  0
 33 62  1  0
M  END
>  <Energy>  (217) 
134.88122093179427

>  <compound_id>  (217) 
546

>  <target_id>  (217) 
1

>  <reference_id>  (217) 
56

>  <inspiration_ids>  (217) 
[56, 202]

>  <energy_score>  (217) 
50.87627161230341

>  <distance_score>  (217) 
2.5530759270805348

>  <path>  (217) 
/opt/xchem-fragalysis-2/maxwin/BulkDock/SCRATCH/505733/C546-P56/C546-P56.minimised.mol

>  <scratch_subdir>  (217) 
/opt/xchem-fragalysis-2/maxwin/BulkDock/SCRATCH/505733/C546-P56

>  <fragmenstein_runtime>  (217) 
10.772305965423584

>  <fragmenstein_outcome>  (217) 
too moved

>  <fragmenstein_mode>  (217) 
expansion

>  <fragmenstein_error>  (217) 


$$$$
C546-P202
     RDKit          3D

 62 65  0  0  0  0  0  0  0  0999 V2000
   -0.9171   -7.3416   33.6325 C   0  0  0  0  0  0  0  0  0  0  0  0
   -0.4414   -7.3505   35.0781 C   0  0  0  0  0  0  0  0  0  0  0  0
    0.9316   -6.6930   35.1734 C   0  0  0  0  0  0  0  0  0  0  0  0
    1.8258   -7.1004   34.4807 O   0  0  0  0  0  0  0  0  0  0  0  0
    0.8759   -5.5717   36.0739 N   0  0  0  0  0  0  0  0  0  0  0  0
    1.8097   -4.5633   36.3474 C   0  0  0  0  0  0  0  0  0  0  0  0
    1.3748   -3.5723   37.2401 C   0  0  0  0  0  0  0  0  0  0  0  0
    2.1062   -2.3954   37.4192 C   0  0  0  0  0  0  0  0  0  0  0  0
    3.2904   -2.1877   36.7021 C   0  0  0  0  0  0  0  0  0  0  0  0
    3.8567   -0.7806   36.5354 C   0  0  0  0  0  0  0  0  0  0  0  0
    3.0268   -0.0692   35.4743 C   0  0  0  0  0  0  0  0  0  0  0  0
    3.1723   -0.4311   34.1266 C   0  0  0  0  0  0  0  0  0  0  0  0
    2.1260   -0.2305   33.2253 C   0  0  0  0  0  0  0  0  0  0  0  0
    0.9310    0.3528   33.6587 C   0  0  0  0  0  0  0  0  0  0  0  0
   -0.3950    0.1458   32.9374 C   0  0  0  0  0  0  0  0  0  0  0  0
   -0.3561   -0.0376   31.4284 C   0  0  0  0  0  0  0  0  0  0  0  0
   -1.6980   -0.6106   31.0127 C   0  0  0  0  0  0  0  0  0  0  0  0
   -2.1248   -1.7294   31.9885 C   0  0  0  0  0  0  0  0  0  0  0  0
   -2.5214   -1.3577   33.4185 N   0  0  0  0  0  0  0  0  0  0  0  0
   -3.6051   -0.4245   33.4038 C   0  0  0  0  0  0  0  0  0  0  0  0
   -3.6012    0.7793   33.3949 O   0  0  0  0  0  0  0  0  0  0  0  0
   -4.9241   -1.1775   33.5164 C   0  0  0  0  0  0  0  0  0  0  0  0
   -5.4752   -1.0216   34.8425 N   0  0  0  0  0  0  0  0  0  0  0  0
   -4.8753   -1.3614   36.0150 C   0  0  0  0  0  0  0  0  0  0  0  0
   -5.7000   -1.1239   37.0082 N   0  0  0  0  0  0  0  0  0  0  0  0
   -6.8551   -0.5979   36.4732 N   0  0  0  0  0  0  0  0  0  0  0  0
   -6.6915   -0.5143   35.1722 C   0  0  0  0  0  0  0  0  0  0  0  0
   -1.0400   -1.1393   33.5413 C   0  0  0  0  0  0  0  0  0  0  0  0
    0.8883    0.9193   34.9468 C   0  0  0  0  0  0  0  0  0  0  0  0
    1.9250    0.7029   35.8532 C   0  0  0  0  0  0  0  0  0  0  0  0
    3.7922   -3.2336   35.9168 C   0  0  0  0  0  0  0  0  0  0  0  0
    3.0542   -4.4044   35.7286 C   0  0  0  0  0  0  0  0  0  0  0  0
    3.6123   -5.2811   34.8437 O   0  0  0  0  0  0  0  0  0  0  0  0
   -1.8591   -7.8872   33.5414 H   0  0  0  0  0  0  0  0  0  0  0  0
   -1.0744   -6.3159   33.2831 H   0  0  0  0  0  0  0  0  0  0  0  0
   -0.1913   -7.8112   32.9619 H   0  0  0  0  0  0  0  0  0  0  0  0
   -1.1922   -6.8578   35.7020 H   0  0  0  0  0  0  0  0  0  0  0  0
   -0.3404   -8.3704   35.4520 H   0  0  0  0  0  0  0  0  0  0  0  0
   -0.0682   -5.4797   36.4289 H   0  0  0  0  0  0  0  0  0  0  0  0
    0.4235   -3.6666   37.7592 H   0  0  0  0  0  0  0  0  0  0  0  0
    1.6928   -1.6028   38.0393 H   0  0  0  0  0  0  0  0  0  0  0  0
    4.9103   -0.8153   36.2335 H   0  0  0  0  0  0  0  0  0  0  0  0
    3.8212   -0.2421   37.4900 H   0  0  0  0  0  0  0  0  0  0  0  0
    4.0364   -1.0091   33.8049 H   0  0  0  0  0  0  0  0  0  0  0  0
    2.2297   -0.6550   32.2316 H   0  0  0  0  0  0  0  0  0  0  0  0
   -1.0314    1.0130   33.1544 H   0  0  0  0  0  0  0  0  0  0  0  0
   -0.1460    0.9064   30.9142 H   0  0  0  0  0  0  0  0  0  0  0  0
    0.4188   -0.7484   31.1228 H   0  0  0  0  0  0  0  0  0  0  0  0
   -1.6282   -1.0115   29.9952 H   0  0  0  0  0  0  0  0  0  0  0  0
   -2.4516    0.1818   30.9898 H   0  0  0  0  0  0  0  0  0  0  0  0
   -3.0664   -2.1146   31.5716 H   0  0  0  0  0  0  0  0  0  0  0  0
   -1.4848   -2.6266   31.9260 H   0  0  0  0  0  0  0  0  0  0  0  0
   -4.8091   -2.2502   33.3312 H   0  0  0  0  0  0  0  0  0  0  0  0
   -5.6365   -0.7742   32.7920 H   0  0  0  0  0  0  0  0  0  0  0  0
   -3.8775   -1.7704   36.0956 H   0  0  0  0  0  0  0  0  0  0  0  0
   -7.4002   -0.1088   34.4633 H   0  0  0  0  0  0  0  0  0  0  0  0
   -0.9853   -0.9974   34.6332 H   0  0  0  0  0  0  0  0  0  0  0  0
   -0.4279   -2.0527   33.4295 H   0  0  0  0  0  0  0  0  0  0  0  0
   -0.0183    1.4075   35.3023 H   0  0  0  0  0  0  0  0  0  0  0  0
    1.7987    1.0182   36.8864 H   0  0  0  0  0  0  0  0  0  0  0  0
    4.7131   -3.1007   35.3528 H   0  0  0  0  0  0  0  0  0  0  0  0
    3.0317   -6.0614   34.7619 H   0  0  0  0  0  0  0  0  0  0  0  0
  1  2  1  0
  2  3  1  0
  3  4  2  0
  3  5  1  0
  5  6  1  0
  6  7  2  0
  7  8  1  0
  8  9  2  0
  9 10  1  0
 10 11  1  0
 11 12  2  0
 12 13  1  0
 13 14  2  0
 14 15  1  0
 15 16  1  0
 16 17  1  0
 17 18  1  0
 18 19  1  0
 19 20  1  0
 20 21  2  0
 20 22  1  0
 22 23  1  0
 23 24  1  0
 24 25  2  0
 25 26  1  0
 26 27  2  0
 19 28  1  0
 14 29  1  0
 29 30  2  0
  9 31  1  0
 31 32  2  0
 32 33  1  0
 32  6  1  0
 30 11  1  0
 28 15  1  0
 27 23  1  0
  1 34  1  0
  1 35  1  0
  1 36  1  0
  2 37  1  0
  2 38  1  0
  5 39  1  0
  7 40  1  0
  8 41  1  0
 10 42  1  0
 10 43  1  0
 12 44  1  0
 13 45  1  0
 15 46  1  0
 16 47  1  0
 16 48  1  0
 17 49  1  0
 17 50  1  0
 18 51  1  0
 18 52  1  0
 22 53  1  0
 22 54  1  0
 24 55  1  0
 27 56  1  0
 28 57  1  0
 28 58  1  0
 29 59  1  0
 30 60  1  0
 31 61  1  0
 33 62  1  0
M  END
>  <Energy>  (218) 
126.4947542769973

>  <compound_id>  (218) 
546

>  <target_id>  (218) 
1

>  <reference_id>  (218) 
202

>  <inspiration_ids>  (218) 
[56, 202]

>  <energy_score>  (218) 
42.48980495750425

>  <distance_score>  (218) 
2.4408966318125125

>  <path>  (218) 
/opt/xchem-fragalysis-2/maxwin/BulkDock/SCRATCH/505733/C546-P202/C546-P202.minimised.mol

>  <scratch_subdir>  (218) 
/opt/xchem-fragalysis-2/maxwin/BulkDock/SCRATCH/505733/C546-P202

>  <fragmenstein_runtime>  (218) 
10.963745832443237

>  <fragmenstein_outcome>  (218) 
too moved

>  <fragmenstein_mode>  (218) 
expansion

>  <fragmenstein_error>  (218) 


$$$$
C546-P57
     RDKit          3D

 62 65  0  0  0  0  0  0  0  0999 V2000
    4.7687    4.3969   29.5875 C   0  0  0  0  0  0  0  0  0  0  0  0
    4.3141    5.5304   28.6887 C   0  0  0  0  0  0  0  0  0  0  0  0
    3.5480    4.9958   27.4851 C   0  0  0  0  0  0  0  0  0  0  0  0
    4.1161    4.8666   26.4372 O   0  0  0  0  0  0  0  0  0  0  0  0
    2.1954    4.6873   27.8647 N   0  0  0  0  0  0  0  0  0  0  0  0
    1.1088    4.2305   27.1075 C   0  0  0  0  0  0  0  0  0  0  0  0
   -0.0917    4.0436   27.8114 C   0  0  0  0  0  0  0  0  0  0  0  0
   -1.2527    3.6124   27.1612 C   0  0  0  0  0  0  0  0  0  0  0  0
   -1.2376    3.3667   25.7864 C   0  0  0  0  0  0  0  0  0  0  0  0
   -2.4816    2.9523   25.0567 C   0  0  0  0  0  0  0  0  0  0  0  0
   -2.3661    1.6113   24.3875 C   0  0  0  0  0  0  0  0  0  0  0  0
   -2.4545    1.4666   22.5443 C   0  0  0  0  0  0  0  0  0  0  0  0
   -2.9049   -0.2596   21.8032 C   0  0  0  0  0  0  0  0  0  0  0  0
   -2.9888   -1.9396   22.7184 C   0  0  0  0  0  0  0  0  0  0  0  0
   -4.5823   -3.1923   22.1828 C   0  0  0  0  0  0  0  0  0  0  0  0
   -4.4873   -3.1019   23.6788 C   0  0  0  0  0  0  0  0  0  0  0  0
   -6.2480   -2.5336   24.4017 C   0  0  0  0  0  0  0  0  0  0  0  0
   -7.6843   -2.8073   24.1434 C   0  0  0  0  0  0  0  0  0  0  0  0
   -8.2316   -2.2066   22.9662 N   0  0  0  0  0  0  0  0  0  0  0  0
   -9.6195   -2.3838   22.9404 C   0  0  0  0  0  0  0  0  0  0  0  0
  -10.2624   -3.2329   22.4818 O   0  0  0  0  0  0  0  0  0  0  0  0
  -10.4624   -1.3645   23.4108 C   0  0  0  0  0  0  0  0  0  0  0  0
  -11.5063   -1.5899   21.9624 N   0  0  0  0  0  0  0  0  0  0  0  0
  -11.2216   -1.9956   20.6329 C   0  0  0  0  0  0  0  0  0  0  0  0
  -12.2043   -2.6396   20.0528 N   0  0  0  0  0  0  0  0  0  0  0  0
  -12.6524   -3.3769   21.0627 N   0  0  0  0  0  0  0  0  0  0  0  0
  -12.2391   -2.7501   22.1378 C   0  0  0  0  0  0  0  0  0  0  0  0
   -6.7041   -3.2494   22.0815 C   0  0  0  0  0  0  0  0  0  0  0  0
   -2.7573   -1.6055   24.6272 C   0  0  0  0  0  0  0  0  0  0  0  0
   -2.4760    0.0835   25.3617 C   0  0  0  0  0  0  0  0  0  0  0  0
   -0.0446    3.5605   25.0819 C   0  0  0  0  0  0  0  0  0  0  0  0
    1.1194    3.9715   25.7324 C   0  0  0  0  0  0  0  0  0  0  0  0
    2.1986    4.0874   24.9058 O   0  0  0  0  0  0  0  0  0  0  0  0
    5.3606    4.7862   30.4215 H   0  0  0  0  0  0  0  0  0  0  0  0
    3.9169    3.8484   30.0022 H   0  0  0  0  0  0  0  0  0  0  0  0
    5.3856    3.6816   29.0335 H   0  0  0  0  0  0  0  0  0  0  0  0
    5.1813    6.0916   28.3220 H   0  0  0  0  0  0  0  0  0  0  0  0
    3.6914    6.2413   29.2432 H   0  0  0  0  0  0  0  0  0  0  0  0
    2.0855    4.8512   28.8577 H   0  0  0  0  0  0  0  0  0  0  0  0
   -0.1524    4.2495   28.8777 H   0  0  0  0  0  0  0  0  0  0  0  0
   -2.1718    3.4969   27.7337 H   0  0  0  0  0  0  0  0  0  0  0  0
   -3.3432    2.9177   25.7340 H   0  0  0  0  0  0  0  0  0  0  0  0
   -2.7202    3.7125   24.3036 H   0  0  0  0  0  0  0  0  0  0  0  0
   -2.7442    2.4221   22.0932 H   0  0  0  0  0  0  0  0  0  0  0  0
   -3.8605   -0.2005   21.2585 H   0  0  0  0  0  0  0  0  0  0  0  0
   -4.2361   -4.0994   21.6856 H   0  0  0  0  0  0  0  0  0  0  0  0
   -3.5717   -3.7056   24.0198 H   0  0  0  0  0  0  0  0  0  0  0  0
   -4.1264   -2.4616   24.3405 H   0  0  0  0  0  0  0  0  0  0  0  0
   -6.6164   -1.4726   24.6698 H   0  0  0  0  0  0  0  0  0  0  0  0
   -5.8122   -2.3020   25.4505 H   0  0  0  0  0  0  0  0  0  0  0  0
   -8.1738   -2.2123   24.8997 H   0  0  0  0  0  0  0  0  0  0  0  0
   -8.0880   -3.7943   24.4019 H   0  0  0  0  0  0  0  0  0  0  0  0
  -10.2429   -0.3559   23.1376 H   0  0  0  0  0  0  0  0  0  0  0  0
  -11.1332   -1.6589   24.1959 H   0  0  0  0  0  0  0  0  0  0  0  0
  -10.2535   -2.0553   20.1675 H   0  0  0  0  0  0  0  0  0  0  0  0
  -12.1250   -3.0744   23.1375 H   0  0  0  0  0  0  0  0  0  0  0  0
   -6.9756   -3.0140   21.0491 H   0  0  0  0  0  0  0  0  0  0  0  0
   -6.7785   -4.3476   21.9743 H   0  0  0  0  0  0  0  0  0  0  0  0
   -2.8740   -2.3308   25.4479 H   0  0  0  0  0  0  0  0  0  0  0  0
   -2.4280    0.1508   26.4483 H   0  0  0  0  0  0  0  0  0  0  0  0
   -0.0107    3.4009   24.0060 H   0  0  0  0  0  0  0  0  0  0  0  0
    2.9846    4.3628   25.4186 H   0  0  0  0  0  0  0  0  0  0  0  0
  1  2  1  0
  2  3  1  0
  3  4  2  0
  3  5  1  0
  5  6  1  0
  6  7  2  0
  7  8  1  0
  8  9  2  0
  9 10  1  0
 10 11  1  0
 11 12  2  0
 12 13  1  0
 13 14  2  0
 14 15  1  0
 15 16  1  0
 16 17  1  0
 17 18  1  0
 18 19  1  0
 19 20  1  0
 20 21  2  0
 20 22  1  0
 22 23  1  0
 23 24  1  0
 24 25  2  0
 25 26  1  0
 26 27  2  0
 19 28  1  0
 14 29  1  0
 29 30  2  0
  9 31  1  0
 31 32  2  0
 32 33  1  0
 32  6  1  0
 30 11  1  0
 28 15  1  0
 27 23  1  0
  1 34  1  0
  1 35  1  0
  1 36  1  0
  2 37  1  0
  2 38  1  0
  5 39  1  0
  7 40  1  0
  8 41  1  0
 10 42  1  0
 10 43  1  0
 12 44  1  0
 13 45  1  0
 15 46  1  0
 16 47  1  0
 16 48  1  0
 17 49  1  0
 17 50  1  0
 18 51  1  0
 18 52  1  0
 22 53  1  0
 22 54  1  0
 24 55  1  0
 27 56  1  0
 28 57  1  0
 28 58  1  0
 29 59  1  0
 30 60  1  0
 31 61  1  0
 33 62  1  0
M  END
>  <Energy>  (219) 
1175.6150612095996

>  <compound_id>  (219) 
546

>  <target_id>  (219) 
1

>  <reference_id>  (219) 
57

>  <inspiration_ids>  (219) 
[57, 13]

>  <energy_score>  (219) 
1061.235062951722

>  <distance_score>  (219) 
1.305501408468066

>  <path>  (219) 
/opt/xchem-fragalysis-2/maxwin/BulkDock/SCRATCH/505733/C546-P57/C546-P57.minimised.mol

>  <scratch_subdir>  (219) 
/opt/xchem-fragalysis-2/maxwin/BulkDock/SCRATCH/505733/C546-P57

>  <fragmenstein_runtime>  (219) 
25.197519540786743

>  <fragmenstein_outcome>  (219) 
too moved

>  <fragmenstein_mode>  (219) 
expansion

>  <fragmenstein_error>  (219) 


$$$$
C546-P13
     RDKit          3D

 62 65  0  0  0  0  0  0  0  0999 V2000
    4.9798    5.4026   28.8557 C   0  0  0  0  0  0  0  0  0  0  0  0
    5.0544    4.1318   28.0309 C   0  0  0  0  0  0  0  0  0  0  0  0
    4.0435    4.1466   26.8896 C   0  0  0  0  0  0  0  0  0  0  0  0
    4.4179    4.3696   25.7718 O   0  0  0  0  0  0  0  0  0  0  0  0
    2.7236    3.8927   27.4064 N   0  0  0  0  0  0  0  0  0  0  0  0
    1.4932    3.7381   26.7530 C   0  0  0  0  0  0  0  0  0  0  0  0
    0.3912    3.4647   27.5803 C   0  0  0  0  0  0  0  0  0  0  0  0
   -0.8785    3.2291   27.0425 C   0  0  0  0  0  0  0  0  0  0  0  0
   -1.0726    3.2745   25.6608 C   0  0  0  0  0  0  0  0  0  0  0  0
   -2.4006    2.9402   25.0453 C   0  0  0  0  0  0  0  0  0  0  0  0
   -2.3952    1.5816   24.3927 C   0  0  0  0  0  0  0  0  0  0  0  0
   -2.4740    1.4271   22.5726 C   0  0  0  0  0  0  0  0  0  0  0  0
   -2.9457   -0.2798   21.8273 C   0  0  0  0  0  0  0  0  0  0  0  0
   -3.0488   -1.9438   22.7766 C   0  0  0  0  0  0  0  0  0  0  0  0
   -4.5751   -3.1880   22.1845 C   0  0  0  0  0  0  0  0  0  0  0  0
   -4.3783   -3.1321   23.6617 C   0  0  0  0  0  0  0  0  0  0  0  0
   -6.1659   -2.6338   24.4028 C   0  0  0  0  0  0  0  0  0  0  0  0
   -7.6690   -3.0551   24.1336 C   0  0  0  0  0  0  0  0  0  0  0  0
   -8.2137   -2.2991   23.0789 N   0  0  0  0  0  0  0  0  0  0  0  0
   -9.6126   -2.4696   23.0126 C   0  0  0  0  0  0  0  0  0  0  0  0
  -10.2181   -3.2376   22.4208 O   0  0  0  0  0  0  0  0  0  0  0  0
  -10.5097   -1.5487   23.6293 C   0  0  0  0  0  0  0  0  0  0  0  0
  -11.7351   -1.8788   22.4002 N   0  0  0  0  0  0  0  0  0  0  0  0
  -11.7283   -1.4771   21.1330 C   0  0  0  0  0  0  0  0  0  0  0  0
  -12.1547   -2.2767   20.1955 N   0  0  0  0  0  0  0  0  0  0  0  0
  -12.4614   -3.3981   20.8404 N   0  0  0  0  0  0  0  0  0  0  0  0
  -12.1994   -3.1238   22.0892 C   0  0  0  0  0  0  0  0  0  0  0  0
   -6.6885   -3.2028   22.0608 C   0  0  0  0  0  0  0  0  0  0  0  0
   -2.8959   -1.5720   24.7137 C   0  0  0  0  0  0  0  0  0  0  0  0
   -2.5690    0.1074   25.3972 C   0  0  0  0  0  0  0  0  0  0  0  0
    0.0118    3.5962   24.8378 C   0  0  0  0  0  0  0  0  0  0  0  0
    1.2822    3.8136   25.3725 C   0  0  0  0  0  0  0  0  0  0  0  0
    2.2363    4.0762   24.4344 O   0  0  0  0  0  0  0  0  0  0  0  0
    5.7559    5.4009   29.6272 H   0  0  0  0  0  0  0  0  0  0  0  0
    5.1244    6.2861   28.2252 H   0  0  0  0  0  0  0  0  0  0  0  0
    4.0097    5.5050   29.3521 H   0  0  0  0  0  0  0  0  0  0  0  0
    4.8864    3.2501   28.6595 H   0  0  0  0  0  0  0  0  0  0  0  0
    6.0563    4.0249   27.5991 H   0  0  0  0  0  0  0  0  0  0  0  0
    2.7709    3.8278   28.4152 H   0  0  0  0  0  0  0  0  0  0  0  0
    0.5042    3.4185   28.6604 H   0  0  0  0  0  0  0  0  0  0  0  0
   -1.7104    3.0060   27.7078 H   0  0  0  0  0  0  0  0  0  0  0  0
   -3.2006    2.9654   25.7946 H   0  0  0  0  0  0  0  0  0  0  0  0
   -2.6623    3.7016   24.3013 H   0  0  0  0  0  0  0  0  0  0  0  0
   -2.7020    2.3941   22.1126 H   0  0  0  0  0  0  0  0  0  0  0  0
   -3.8969   -0.2022   21.2697 H   0  0  0  0  0  0  0  0  0  0  0  0
   -4.2350   -4.0818   21.6581 H   0  0  0  0  0  0  0  0  0  0  0  0
   -3.5877   -3.9305   23.9238 H   0  0  0  0  0  0  0  0  0  0  0  0
   -3.5578   -3.0266   24.2758 H   0  0  0  0  0  0  0  0  0  0  0  0
   -5.7483   -2.4051   25.4579 H   0  0  0  0  0  0  0  0  0  0  0  0
   -6.6773   -1.6346   24.6762 H   0  0  0  0  0  0  0  0  0  0  0  0
   -8.2418   -2.6177   24.9471 H   0  0  0  0  0  0  0  0  0  0  0  0
   -7.9603   -4.0949   24.2965 H   0  0  0  0  0  0  0  0  0  0  0  0
  -10.3936   -0.5260   23.3172 H   0  0  0  0  0  0  0  0  0  0  0  0
  -11.1460   -1.8935   24.4200 H   0  0  0  0  0  0  0  0  0  0  0  0
  -11.4630   -0.5098   21.0544 H   0  0  0  0  0  0  0  0  0  0  0  0
  -11.9907   -3.7756   22.8836 H   0  0  0  0  0  0  0  0  0  0  0  0
   -7.0055   -2.9247   21.0563 H   0  0  0  0  0  0  0  0  0  0  0  0
   -6.7694   -4.2894   21.8705 H   0  0  0  0  0  0  0  0  0  0  0  0
   -3.0437   -2.2286   25.5870 H   0  0  0  0  0  0  0  0  0  0  0  0
   -2.5257    0.2053   26.4813 H   0  0  0  0  0  0  0  0  0  0  0  0
   -0.1177    3.6551   23.7584 H   0  0  0  0  0  0  0  0  0  0  0  0
    3.1034    4.1992   24.8682 H   0  0  0  0  0  0  0  0  0  0  0  0
  1  2  1  0
  2  3  1  0
  3  4  2  0
  3  5  1  0
  5  6  1  0
  6  7  2  0
  7  8  1  0
  8  9  2  0
  9 10  1  0
 10 11  1  0
 11 12  2  0
 12 13  1  0
 13 14  2  0
 14 15  1  0
 15 16  1  0
 16 17  1  0
 17 18  1  0
 18 19  1  0
 19 20  1  0
 20 21  2  0
 20 22  1  0
 22 23  1  0
 23 24  1  0
 24 25  2  0
 25 26  1  0
 26 27  2  0
 19 28  1  0
 14 29  1  0
 29 30  2  0
  9 31  1  0
 31 32  2  0
 32 33  1  0
 32  6  1  0
 30 11  1  0
 28 15  1  0
 27 23  1  0
  1 34  1  0
  1 35  1  0
  1 36  1  0
  2 37  1  0
  2 38  1  0
  5 39  1  0
  7 40  1  0
  8 41  1  0
 10 42  1  0
 10 43  1  0
 12 44  1  0
 13 45  1  0
 15 46  1  0
 16 47  1  0
 16 48  1  0
 17 49  1  0
 17 50  1  0
 18 51  1  0
 18 52  1  0
 22 53  1  0
 22 54  1  0
 24 55  1  0
 27 56  1  0
 28 57  1  0
 28 58  1  0
 29 59  1  0
 30 60  1  0
 31 61  1  0
 33 62  1  0
M  END
>  <Energy>  (220) 
1183.2204562110612

>  <compound_id>  (220) 
546

>  <target_id>  (220) 
1

>  <reference_id>  (220) 
13

>  <inspiration_ids>  (220) 
[57, 13]

>  <energy_score>  (220) 
1068.8404579532057

>  <distance_score>  (220) 
1.496579998939367

>  <path>  (220) 
/opt/xchem-fragalysis-2/maxwin/BulkDock/SCRATCH/505733/C546-P13/C546-P13.minimised.mol

>  <scratch_subdir>  (220) 
/opt/xchem-fragalysis-2/maxwin/BulkDock/SCRATCH/505733/C546-P13

>  <fragmenstein_runtime>  (220) 
21.72393250465393

>  <fragmenstein_outcome>  (220) 
too moved

>  <fragmenstein_mode>  (220) 
expansion

>  <fragmenstein_error>  (220) 


$$$$
C549-P57
     RDKit          3D

 63 67  0  0  0  0  0  0  0  0999 V2000
    2.7148   -3.9943   30.0906 C   0  0  0  0  0  0  0  0  0  0  0  0
    1.7293   -4.4886   29.3290 C   0  0  0  0  0  0  0  0  0  0  0  0
    1.4516   -4.0668   27.9090 C   0  0  0  0  0  0  0  0  0  0  0  0
    0.0658   -3.5933   27.6177 N   0  0  0  0  0  0  0  0  0  0  0  0
   -1.1294   -4.3745   27.1896 C   0  0  0  0  0  0  0  0  0  0  0  0
   -1.6020   -5.5774   25.2862 S   0  0  0  0  0  0  0  0  0  0  0  0
   -3.0481   -6.0934   23.7343 C   0  0  0  0  0  0  0  0  0  0  0  0
   -2.8999   -4.9163   23.3811 C   0  0  0  0  0  0  0  0  0  0  0  0
   -3.9294   -4.5763   21.7568 C   0  0  0  0  0  0  0  0  0  0  0  0
   -5.1624   -4.8180   21.3241 C   0  0  0  0  0  0  0  0  0  0  0  0
   -5.7412   -5.7982   22.0979 C   0  0  0  0  0  0  0  0  0  0  0  0
   -7.0317   -5.8694   22.5225 N   0  0  0  0  0  0  0  0  0  0  0  0
   -7.1788   -6.0334   24.1914 N   0  0  0  0  0  0  0  0  0  0  0  0
   -6.1618   -6.8094   24.5334 C   0  0  0  0  0  0  0  0  0  0  0  0
   -4.7521   -6.7112   23.2837 N   0  0  0  0  0  0  0  0  0  0  0  0
   -1.4022   -4.7247   28.4789 N   0  0  0  0  0  0  0  0  0  0  0  0
   -1.2436   -3.5807   29.2865 N   0  0  0  0  0  0  0  0  0  0  0  0
   -0.5035   -2.7539   28.5811 C   0  0  0  0  0  0  0  0  0  0  0  0
   -0.2161   -1.3437   28.7759 C   0  0  0  0  0  0  0  0  0  0  0  0
    0.8042   -0.6994   28.0844 C   0  0  0  0  0  0  0  0  0  0  0  0
    0.9417    0.6776   28.1545 C   0  0  0  0  0  0  0  0  0  0  0  0
    0.0456    1.4122   28.9186 C   0  0  0  0  0  0  0  0  0  0  0  0
    0.0456    2.8327   28.8112 N   0  0  0  0  0  0  0  0  0  0  0  0
   -0.1540    3.3952   27.4977 C   0  0  0  0  0  0  0  0  0  0  0  0
   -1.4364    3.3346   26.9234 C   0  0  0  0  0  0  0  0  0  0  0  0
   -1.6215    3.6461   25.5760 C   0  0  0  0  0  0  0  0  0  0  0  0
   -2.9813    3.6041   24.9495 C   0  0  0  0  0  0  0  0  0  0  0  0
   -0.5160    4.0305   24.8114 C   0  0  0  0  0  0  0  0  0  0  0  0
    0.7629    4.0976   25.3707 C   0  0  0  0  0  0  0  0  0  0  0  0
    1.7391    4.4511   24.4855 O   0  0  0  0  0  0  0  0  0  0  0  0
    0.9619    3.7931   26.7204 C   0  0  0  0  0  0  0  0  0  0  0  0
    2.1872    3.8211   27.4018 N   0  0  0  0  0  0  0  0  0  0  0  0
    3.5168    4.1041   26.9409 C   0  0  0  0  0  0  0  0  0  0  0  0
    3.9133    4.4669   25.8697 O   0  0  0  0  0  0  0  0  0  0  0  0
    4.5116    3.9035   28.0785 C   0  0  0  0  0  0  0  0  0  0  0  0
    4.4922    5.0743   29.0423 C   0  0  0  0  0  0  0  0  0  0  0  0
   -0.8819    0.8143   29.6960 N   0  0  0  0  0  0  0  0  0  0  0  0
   -1.0038   -0.5411   29.5917 C   0  0  0  0  0  0  0  0  0  0  0  0
    2.8476   -4.3380   31.1126 H   0  0  0  0  0  0  0  0  0  0  0  0
    3.4025   -3.2367   29.7273 H   0  0  0  0  0  0  0  0  0  0  0  0
    1.0651   -5.2398   29.7536 H   0  0  0  0  0  0  0  0  0  0  0  0
    1.7197   -4.8849   27.2430 H   0  0  0  0  0  0  0  0  0  0  0  0
    2.1119   -3.2401   27.6290 H   0  0  0  0  0  0  0  0  0  0  0  0
   -2.8678   -4.0345   24.0903 H   0  0  0  0  0  0  0  0  0  0  0  0
   -3.5211   -5.0174   20.8631 H   0  0  0  0  0  0  0  0  0  0  0  0
   -5.5274   -4.5853   20.3366 H   0  0  0  0  0  0  0  0  0  0  0  0
   -6.3323   -7.6614   25.0711 H   0  0  0  0  0  0  0  0  0  0  0  0
    1.4795   -1.2258   27.4250 H   0  0  0  0  0  0  0  0  0  0  0  0
    1.7006    1.1618   27.5518 H   0  0  0  0  0  0  0  0  0  0  0  0
   -0.7554    3.1112   29.3797 H   0  0  0  0  0  0  0  0  0  0  0  0
   -2.2867    3.0113   27.5220 H   0  0  0  0  0  0  0  0  0  0  0  0
   -2.9156    3.1680   23.9486 H   0  0  0  0  0  0  0  0  0  0  0  0
   -3.6778    2.9969   25.5362 H   0  0  0  0  0  0  0  0  0  0  0  0
   -3.3815    4.6164   24.8545 H   0  0  0  0  0  0  0  0  0  0  0  0
   -0.6435    4.2887   23.7611 H   0  0  0  0  0  0  0  0  0  0  0  0
    2.5971    4.5424   24.9473 H   0  0  0  0  0  0  0  0  0  0  0  0
    2.2175    3.6165   28.3957 H   0  0  0  0  0  0  0  0  0  0  0  0
    4.2910    2.9659   28.6014 H   0  0  0  0  0  0  0  0  0  0  0  0
    5.5116    3.7929   27.6432 H   0  0  0  0  0  0  0  0  0  0  0  0
    5.2512    4.9403   29.8191 H   0  0  0  0  0  0  0  0  0  0  0  0
    4.6981    6.0141   28.5194 H   0  0  0  0  0  0  0  0  0  0  0  0
    3.5187    5.1745   29.5328 H   0  0  0  0  0  0  0  0  0  0  0  0
   -1.8154   -0.9701   30.1746 H   0  0  0  0  0  0  0  0  0  0  0  0
  1  2  2  0
  2  3  1  0
  3  4  1  0
  4  5  1  0
  5  6  1  0
  6  7  1  0
  7  8  2  0
  8  9  1  0
  9 10  2  0
 10 11  1  0
 11 12  2  0
 12 13  1  0
 13 14  2  0
 14 15  1  0
  5 16  2  0
 16 17  1  0
 17 18  2  0
 18 19  1  0
 19 20  2  0
 20 21  1  0
 21 22  2  0
 22 23  1  0
 23 24  1  0
 24 25  2  0
 25 26  1  0
 26 27  1  0
 26 28  2  0
 28 29  1  0
 29 30  1  0
 29 31  2  0
 31 32  1  0
 32 33  1  0
 33 34  2  0
 33 35  1  0
 35 36  1  0
 22 37  1  0
 37 38  2  0
 18  4  1  0
 38 19  1  0
 15  7  1  0
 31 24  1  0
 15 11  1  0
  1 39  1  0
  1 40  1  0
  2 41  1  0
  3 42  1  0
  3 43  1  0
  8 44  1  0
  9 45  1  0
 10 46  1  0
 14 47  1  0
 20 48  1  0
 21 49  1  0
 23 50  1  0
 25 51  1  0
 27 52  1  0
 27 53  1  0
 27 54  1  0
 28 55  1  0
 30 56  1  0
 32 57  1  0
 35 58  1  0
 35 59  1  0
 36 60  1  0
 36 61  1  0
 36 62  1  0
 38 63  1  0
M  END
>  <Energy>  (221) 
728.48882103140591

>  <compound_id>  (221) 
549

>  <target_id>  (221) 
1

>  <reference_id>  (221) 
57

>  <inspiration_ids>  (221) 
[57, 59]

>  <energy_score>  (221) 
593.084631011706

>  <distance_score>  (221) 
1.6962122342423391

>  <path>  (221) 
/opt/xchem-fragalysis-2/maxwin/BulkDock/SCRATCH/505733/C549-P57/C549-P57.minimised.mol

>  <scratch_subdir>  (221) 
/opt/xchem-fragalysis-2/maxwin/BulkDock/SCRATCH/505733/C549-P57

>  <fragmenstein_runtime>  (221) 
17.27858018875122

>  <fragmenstein_outcome>  (221) 
too moved

>  <fragmenstein_mode>  (221) 
expansion

>  <fragmenstein_error>  (221) 


$$$$
C549-P59
     RDKit          3D

 63 67  0  0  0  0  0  0  0  0999 V2000
    2.6150   -4.0936   29.9986 C   0  0  0  0  0  0  0  0  0  0  0  0
    1.6281   -4.5821   29.2349 C   0  0  0  0  0  0  0  0  0  0  0  0
    1.3680   -4.1709   27.8071 C   0  0  0  0  0  0  0  0  0  0  0  0
   -0.0196   -3.6978   27.4867 N   0  0  0  0  0  0  0  0  0  0  0  0
   -1.2543   -4.4908   26.9887 C   0  0  0  0  0  0  0  0  0  0  0  0
   -1.6941   -5.6371   24.9993 S   0  0  0  0  0  0  0  0  0  0  0  0
   -3.8129   -5.8925   24.0482 C   0  0  0  0  0  0  0  0  0  0  0  0
   -3.2809   -4.2192   24.1255 C   0  0  0  0  0  0  0  0  0  0  0  0
   -4.4694   -3.0039   23.7713 C   0  0  0  0  0  0  0  0  0  0  0  0
   -6.1945   -2.8770   24.1680 C   0  0  0  0  0  0  0  0  0  0  0  0
   -7.0389   -4.5898   24.1743 C   0  0  0  0  0  0  0  0  0  0  0  0
   -7.3544   -5.4187   23.2411 N   0  0  0  0  0  0  0  0  0  0  0  0
   -7.4186   -6.2829   24.2391 N   0  0  0  0  0  0  0  0  0  0  0  0
   -6.5995   -6.6975   25.0545 C   0  0  0  0  0  0  0  0  0  0  0  0
   -5.7034   -5.9585   24.8374 N   0  0  0  0  0  0  0  0  0  0  0  0
   -1.5144   -4.8395   28.3021 N   0  0  0  0  0  0  0  0  0  0  0  0
   -1.3206   -3.6996   29.1382 N   0  0  0  0  0  0  0  0  0  0  0  0
   -0.5912   -2.8573   28.4452 C   0  0  0  0  0  0  0  0  0  0  0  0
   -0.2600   -1.4616   28.7008 C   0  0  0  0  0  0  0  0  0  0  0  0
    0.7914   -0.8150   28.0554 C   0  0  0  0  0  0  0  0  0  0  0  0
    0.9817    0.5521   28.1964 C   0  0  0  0  0  0  0  0  0  0  0  0
    0.1075    1.2752   28.9934 C   0  0  0  0  0  0  0  0  0  0  0  0
    0.1582    2.6995   28.9403 N   0  0  0  0  0  0  0  0  0  0  0  0
   -0.0933    3.3103   27.6569 C   0  0  0  0  0  0  0  0  0  0  0  0
   -1.3606    3.1627   27.0642 C   0  0  0  0  0  0  0  0  0  0  0  0
   -1.5738    3.5647   25.7459 C   0  0  0  0  0  0  0  0  0  0  0  0
   -2.9175    3.4292   25.0991 C   0  0  0  0  0  0  0  0  0  0  0  0
   -0.5106    4.1192   25.0273 C   0  0  0  0  0  0  0  0  0  0  0  0
    0.7485    4.2843   25.6109 C   0  0  0  0  0  0  0  0  0  0  0  0
    1.6893    4.8071   24.7718 O   0  0  0  0  0  0  0  0  0  0  0  0
    0.9711    3.9001   26.9367 C   0  0  0  0  0  0  0  0  0  0  0  0
    2.1705    4.0453   27.6471 N   0  0  0  0  0  0  0  0  0  0  0  0
    3.3973    4.7062   27.3018 C   0  0  0  0  0  0  0  0  0  0  0  0
    3.7406    5.2376   26.2836 O   0  0  0  0  0  0  0  0  0  0  0  0
    4.3548    4.6722   28.4876 C   0  0  0  0  0  0  0  0  0  0  0  0
    4.9465    3.2908   28.6857 C   0  0  0  0  0  0  0  0  0  0  0  0
   -0.8511    0.6736   29.7310 N   0  0  0  0  0  0  0  0  0  0  0  0
   -1.0242   -0.6705   29.5508 C   0  0  0  0  0  0  0  0  0  0  0  0
    2.7344   -4.4263   31.0258 H   0  0  0  0  0  0  0  0  0  0  0  0
    3.3175   -3.3515   29.6315 H   0  0  0  0  0  0  0  0  0  0  0  0
    0.9490   -5.3157   29.6660 H   0  0  0  0  0  0  0  0  0  0  0  0
    1.6616   -4.9801   27.1409 H   0  0  0  0  0  0  0  0  0  0  0  0
    2.0286   -3.3395   27.5426 H   0  0  0  0  0  0  0  0  0  0  0  0
   -2.4597   -3.5638   24.2003 H   0  0  0  0  0  0  0  0  0  0  0  0
   -4.2993   -3.3064   22.6423 H   0  0  0  0  0  0  0  0  0  0  0  0
   -6.8795   -2.0804   24.4955 H   0  0  0  0  0  0  0  0  0  0  0  0
   -6.8985   -6.5898   26.0693 H   0  0  0  0  0  0  0  0  0  0  0  0
    1.4584   -1.3297   27.3800 H   0  0  0  0  0  0  0  0  0  0  0  0
    1.7603    1.0503   27.6280 H   0  0  0  0  0  0  0  0  0  0  0  0
   -0.6157    2.9777   29.5414 H   0  0  0  0  0  0  0  0  0  0  0  0
   -2.1751    2.7073   27.6251 H   0  0  0  0  0  0  0  0  0  0  0  0
   -3.3843    4.4112   24.9906 H   0  0  0  0  0  0  0  0  0  0  0  0
   -2.8010    2.9906   24.1042 H   0  0  0  0  0  0  0  0  0  0  0  0
   -3.5841    2.7837   25.6796 H   0  0  0  0  0  0  0  0  0  0  0  0
   -0.6586    4.4411   23.9976 H   0  0  0  0  0  0  0  0  0  0  0  0
    2.5008    5.0238   25.2744 H   0  0  0  0  0  0  0  0  0  0  0  0
    2.1986    3.7860   28.6282 H   0  0  0  0  0  0  0  0  0  0  0  0
    5.1564    5.3965   28.3014 H   0  0  0  0  0  0  0  0  0  0  0  0
    3.8326    5.0056   29.3915 H   0  0  0  0  0  0  0  0  0  0  0  0
    5.6782    3.3033   29.4993 H   0  0  0  0  0  0  0  0  0  0  0  0
    4.1756    2.5548   28.9354 H   0  0  0  0  0  0  0  0  0  0  0  0
    5.4503    2.9473   27.7760 H   0  0  0  0  0  0  0  0  0  0  0  0
   -1.8572   -1.0982   30.1038 H   0  0  0  0  0  0  0  0  0  0  0  0
  1  2  2  0
  2  3  1  0
  3  4  1  0
  4  5  1  0
  5  6  1  0
  6  7  1  0
  7  8  2  0
  8  9  1  0
  9 10  2  0
 10 11  1  0
 11 12  2  0
 12 13  1  0
 13 14  2  0
 14 15  1  0
  5 16  2  0
 16 17  1  0
 17 18  2  0
 18 19  1  0
 19 20  2  0
 20 21  1  0
 21 22  2  0
 22 23  1  0
 23 24  1  0
 24 25  2  0
 25 26  1  0
 26 27  1  0
 26 28  2  0
 28 29  1  0
 29 30  1  0
 29 31  2  0
 31 32  1  0
 32 33  1  0
 33 34  2  0
 33 35  1  0
 35 36  1  0
 22 37  1  0
 37 38  2  0
 18  4  1  0
 38 19  1  0
 15  7  1  0
 31 24  1  0
 15 11  1  0
  1 39  1  0
  1 40  1  0
  2 41  1  0
  3 42  1  0
  3 43  1  0
  8 44  1  0
  9 45  1  0
 10 46  1  0
 14 47  1  0
 20 48  1  0
 21 49  1  0
 23 50  1  0
 25 51  1  0
 27 52  1  0
 27 53  1  0
 27 54  1  0
 28 55  1  0
 30 56  1  0
 32 57  1  0
 35 58  1  0
 35 59  1  0
 36 60  1  0
 36 61  1  0
 36 62  1  0
 38 63  1  0
M  END
>  <Energy>  (222) 
1079.6438940392995

>  <compound_id>  (222) 
549

>  <target_id>  (222) 
1

>  <reference_id>  (222) 
59

>  <inspiration_ids>  (222) 
[57, 59]

>  <energy_score>  (222) 
944.2397040196054

>  <distance_score>  (222) 
1.6482656381845762

>  <path>  (222) 
/opt/xchem-fragalysis-2/maxwin/BulkDock/SCRATCH/505733/C549-P59/C549-P59.minimised.mol

>  <scratch_subdir>  (222) 
/opt/xchem-fragalysis-2/maxwin/BulkDock/SCRATCH/505733/C549-P59

>  <fragmenstein_runtime>  (222) 
13.272207498550415

>  <fragmenstein_outcome>  (222) 
too moved

>  <fragmenstein_mode>  (222) 
expansion

>  <fragmenstein_error>  (222) 


$$$$
C550-P57
     RDKit          3D

 58 62  0  0  0  0  0  0  0  0999 V2000
    5.0551    5.5407   28.8775 C   0  0  0  0  0  0  0  0  0  0  0  0
    4.7419    4.1085   28.5139 C   0  0  0  0  0  0  0  0  0  0  0  0
    3.8409    4.0470   27.2937 C   0  0  0  0  0  0  0  0  0  0  0  0
    4.2357    3.7545   26.2338 O   0  0  0  0  0  0  0  0  0  0  0  0
    2.4068    4.4113   27.7684 N   0  0  0  0  0  0  0  0  0  0  0  0
    1.1905    4.3977   27.0775 C   0  0  0  0  0  0  0  0  0  0  0  0
    0.0412    4.6271   27.8504 C   0  0  0  0  0  0  0  0  0  0  0  0
   -1.2311    4.4556   27.3051 C   0  0  0  0  0  0  0  0  0  0  0  0
   -1.3716    4.1293   25.9564 C   0  0  0  0  0  0  0  0  0  0  0  0
   -2.6996    3.8135   25.3334 C   0  0  0  0  0  0  0  0  0  0  0  0
   -2.7349    2.4033   25.0010 N   0  0  0  0  0  0  0  0  0  0  0  0
   -3.1854    1.6425   26.1580 C   0  0  0  0  0  0  0  0  0  0  0  0
   -2.6966    0.3007   26.0793 O   0  0  0  0  0  0  0  0  0  0  0  0
   -1.7652    0.0587   27.0422 C   0  0  0  0  0  0  0  0  0  0  0  0
   -2.0017   -0.9473   27.9761 C   0  0  0  0  0  0  0  0  0  0  0  0
   -1.2560   -1.0404   29.1531 C   0  0  0  0  0  0  0  0  0  0  0  0
   -0.2652   -0.0844   29.3237 C   0  0  0  0  0  0  0  0  0  0  0  0
    0.3795    0.3147   30.4550 N   0  0  0  0  0  0  0  0  0  0  0  0
    0.9729    1.4117   30.0652 C   0  0  0  0  0  0  0  0  0  0  0  0
    1.3750    2.8069   30.9523 S   0  0  0  0  0  0  0  0  0  0  0  0
    1.1643    2.2290   32.5764 C   0  0  0  0  0  0  0  0  0  0  0  0
    0.3422    2.9031   33.4100 C   0  0  0  0  0  0  0  0  0  0  0  0
    0.1800    2.4644   34.7874 C   0  0  0  0  0  0  0  0  0  0  0  0
    0.8675    1.4149   35.2723 C   0  0  0  0  0  0  0  0  0  0  0  0
    1.7725    0.7213   34.4265 C   0  0  0  0  0  0  0  0  0  0  0  0
    2.5946   -0.2796   34.6535 N   0  0  0  0  0  0  0  0  0  0  0  0
    3.2678   -0.5420   33.4850 N   0  0  0  0  0  0  0  0  0  0  0  0
    2.8332    0.3003   32.5740 C   0  0  0  0  0  0  0  0  0  0  0  0
    1.8856    1.1398   33.1031 N   0  0  0  0  0  0  0  0  0  0  0  0
    1.1083    1.4856   28.7215 N   0  0  0  0  0  0  0  0  0  0  0  0
    0.0780    0.7367   28.2598 C   0  0  0  0  0  0  0  0  0  0  0  0
   -0.6214    0.8255   27.0871 C   0  0  0  0  0  0  0  0  0  0  0  0
   -0.2274    3.9754   25.1685 C   0  0  0  0  0  0  0  0  0  0  0  0
    1.0392    4.0690   25.7272 C   0  0  0  0  0  0  0  0  0  0  0  0
    2.0379    3.7687   24.8523 O   0  0  0  0  0  0  0  0  0  0  0  0
    5.5033    6.0718   28.0309 H   0  0  0  0  0  0  0  0  0  0  0  0
    4.1572    6.0916   29.1745 H   0  0  0  0  0  0  0  0  0  0  0  0
    5.7611    5.5748   29.7132 H   0  0  0  0  0  0  0  0  0  0  0  0
    4.2710    3.5827   29.3510 H   0  0  0  0  0  0  0  0  0  0  0  0
    5.6672    3.5692   28.2813 H   0  0  0  0  0  0  0  0  0  0  0  0
    2.4336    4.6946   28.7422 H   0  0  0  0  0  0  0  0  0  0  0  0
    0.1075    4.8923   28.9027 H   0  0  0  0  0  0  0  0  0  0  0  0
   -2.1042    4.5544   27.9445 H   0  0  0  0  0  0  0  0  0  0  0  0
   -2.8062    4.4135   24.4213 H   0  0  0  0  0  0  0  0  0  0  0  0
   -3.5340    4.0715   25.9726 H   0  0  0  0  0  0  0  0  0  0  0  0
   -3.4416    2.2725   24.2684 H   0  0  0  0  0  0  0  0  0  0  0  0
   -4.2803    1.6034   26.1341 H   0  0  0  0  0  0  0  0  0  0  0  0
   -2.9398    2.1093   27.1225 H   0  0  0  0  0  0  0  0  0  0  0  0
   -2.8145   -1.6398   27.7956 H   0  0  0  0  0  0  0  0  0  0  0  0
   -1.5157   -1.7480   29.9297 H   0  0  0  0  0  0  0  0  0  0  0  0
   -0.2097    3.7845   33.0958 H   0  0  0  0  0  0  0  0  0  0  0  0
   -0.5102    3.0143   35.4205 H   0  0  0  0  0  0  0  0  0  0  0  0
    0.7591    1.0841   36.2993 H   0  0  0  0  0  0  0  0  0  0  0  0
    3.1660    0.3387   31.5483 H   0  0  0  0  0  0  0  0  0  0  0  0
    1.5372    2.2430   28.2162 H   0  0  0  0  0  0  0  0  0  0  0  0
   -0.3823    1.5487   26.3270 H   0  0  0  0  0  0  0  0  0  0  0  0
   -0.3265    3.7055   24.1182 H   0  0  0  0  0  0  0  0  0  0  0  0
    2.9121    3.8550   25.2791 H   0  0  0  0  0  0  0  0  0  0  0  0
  1  2  1  0
  2  3  1  0
  3  4  2  0
  3  5  1  0
  5  6  1  0
  6  7  2  0
  7  8  1  0
  8  9  2  0
  9 10  1  0
 10 11  1  0
 11 12  1  0
 12 13  1  0
 13 14  1  0
 14 15  2  0
 15 16  1  0
 16 17  2  0
 17 18  1  0
 18 19  2  0
 19 20  1  0
 20 21  1  0
 21 22  2  0
 22 23  1  0
 23 24  2  0
 24 25  1  0
 25 26  2  0
 26 27  1  0
 27 28  2  0
 28 29  1  0
 19 30  1  0
 30 31  1  0
 31 32  2  0
  9 33  1  0
 33 34  2  0
 34 35  1  0
 34  6  1  0
 32 14  1  0
 31 17  1  0
 29 21  1  0
 29 25  1  0
  1 36  1  0
  1 37  1  0
  1 38  1  0
  2 39  1  0
  2 40  1  0
  5 41  1  0
  7 42  1  0
  8 43  1  0
 10 44  1  0
 10 45  1  0
 11 46  1  0
 12 47  1  0
 12 48  1  0
 15 49  1  0
 16 50  1  0
 22 51  1  0
 23 52  1  0
 24 53  1  0
 28 54  1  0
 30 55  1  0
 32 56  1  0
 33 57  1  0
 35 58  1  0
M  END
>  <Energy>  (223) 
41.311048073970618

>  <compound_id>  (223) 
550

>  <target_id>  (223) 
1

>  <reference_id>  (223) 
57

>  <inspiration_ids>  (223) 
[57, 70]

>  <energy_score>  (223) 
-43.493784604371825

>  <distance_score>  (223) 
2.2469662990707944

>  <path>  (223) 
/opt/xchem-fragalysis-2/maxwin/BulkDock/SCRATCH/505733/C550-P57/C550-P57.minimised.mol

>  <scratch_subdir>  (223) 
/opt/xchem-fragalysis-2/maxwin/BulkDock/SCRATCH/505733/C550-P57

>  <fragmenstein_runtime>  (223) 
7.782799959182739

>  <fragmenstein_outcome>  (223) 
too moved

>  <fragmenstein_mode>  (223) 
expansion

>  <fragmenstein_error>  (223) 


$$$$
C550-P70
     RDKit          3D

 58 62  0  0  0  0  0  0  0  0999 V2000
    5.3734    5.3142   28.8860 C   0  0  0  0  0  0  0  0  0  0  0  0
    5.5348    6.1904   27.6559 C   0  0  0  0  0  0  0  0  0  0  0  0
    4.7749    5.6140   26.4667 C   0  0  0  0  0  0  0  0  0  0  0  0
    5.3809    5.0831   25.5788 O   0  0  0  0  0  0  0  0  0  0  0  0
    3.3633    5.8097   26.6538 N   0  0  0  0  0  0  0  0  0  0  0  0
    2.2652    5.3623   25.9073 C   0  0  0  0  0  0  0  0  0  0  0  0
    1.0121    5.7482   26.3964 C   0  0  0  0  0  0  0  0  0  0  0  0
   -0.1588    5.3330   25.7638 C   0  0  0  0  0  0  0  0  0  0  0  0
   -0.1083    4.4816   24.6492 C   0  0  0  0  0  0  0  0  0  0  0  0
   -1.3837    3.9375   24.0547 C   0  0  0  0  0  0  0  0  0  0  0  0
   -1.7613    2.5554   24.4531 N   0  0  0  0  0  0  0  0  0  0  0  0
   -1.6106    2.3788   25.9118 C   0  0  0  0  0  0  0  0  0  0  0  0
   -0.4649    1.5676   26.3087 O   0  0  0  0  0  0  0  0  0  0  0  0
   -0.7082    0.3930   27.0084 C   0  0  0  0  0  0  0  0  0  0  0  0
   -1.9176   -0.2807   26.8799 C   0  0  0  0  0  0  0  0  0  0  0  0
   -2.2287   -1.4015   27.6386 C   0  0  0  0  0  0  0  0  0  0  0  0
   -1.4754   -1.6049   28.7750 C   0  0  0  0  0  0  0  0  0  0  0  0
   -1.9648   -2.0831   29.9494 N   0  0  0  0  0  0  0  0  0  0  0  0
   -1.3865   -1.2676   30.7833 C   0  0  0  0  0  0  0  0  0  0  0  0
   -2.1978   -0.4367   32.0687 S   0  0  0  0  0  0  0  0  0  0  0  0
   -3.5872    0.4847   31.2339 C   0  0  0  0  0  0  0  0  0  0  0  0
   -4.9007    0.8160   32.4074 C   0  0  0  0  0  0  0  0  0  0  0  0
   -5.3972    2.8056   32.2412 C   0  0  0  0  0  0  0  0  0  0  0  0
   -4.9999    3.9533   30.8430 C   0  0  0  0  0  0  0  0  0  0  0  0
   -3.2552    3.5180   29.6778 C   0  0  0  0  0  0  0  0  0  0  0  0
   -2.5536    3.8072   28.5713 N   0  0  0  0  0  0  0  0  0  0  0  0
   -1.5512    2.8356   28.4812 N   0  0  0  0  0  0  0  0  0  0  0  0
   -1.7539    1.7161   29.1635 C   0  0  0  0  0  0  0  0  0  0  0  0
   -2.9715    1.6112   29.8277 N   0  0  0  0  0  0  0  0  0  0  0  0
   -0.1076   -0.9722   30.3237 N   0  0  0  0  0  0  0  0  0  0  0  0
   -0.2646   -0.9354   28.9293 C   0  0  0  0  0  0  0  0  0  0  0  0
    0.2649   -0.0701   27.9345 C   0  0  0  0  0  0  0  0  0  0  0  0
    1.1390    4.1144   24.1446 C   0  0  0  0  0  0  0  0  0  0  0  0
    2.3136    4.5614   24.7575 C   0  0  0  0  0  0  0  0  0  0  0  0
    3.4606    4.1556   24.1381 O   0  0  0  0  0  0  0  0  0  0  0  0
    5.9815    5.7010   29.7095 H   0  0  0  0  0  0  0  0  0  0  0  0
    4.3323    5.2790   29.2221 H   0  0  0  0  0  0  0  0  0  0  0  0
    5.6903    4.2868   28.6780 H   0  0  0  0  0  0  0  0  0  0  0  0
    5.1903    7.2112   27.8554 H   0  0  0  0  0  0  0  0  0  0  0  0
    6.5946    6.2604   27.3851 H   0  0  0  0  0  0  0  0  0  0  0  0
    3.2151    6.3737   27.4815 H   0  0  0  0  0  0  0  0  0  0  0  0
    0.9182    6.3665   27.2854 H   0  0  0  0  0  0  0  0  0  0  0  0
   -1.1186    5.6369   26.1830 H   0  0  0  0  0  0  0  0  0  0  0  0
   -2.2114    4.6161   24.3035 H   0  0  0  0  0  0  0  0  0  0  0  0
   -1.3054    3.9644   22.9614 H   0  0  0  0  0  0  0  0  0  0  0  0
   -2.7811    2.5820   24.2952 H   0  0  0  0  0  0  0  0  0  0  0  0
   -2.5620    2.0043   26.3016 H   0  0  0  0  0  0  0  0  0  0  0  0
   -1.5060    3.3500   26.3788 H   0  0  0  0  0  0  0  0  0  0  0  0
   -2.6442    0.0226   26.1421 H   0  0  0  0  0  0  0  0  0  0  0  0
   -3.1620   -1.9244   27.5000 H   0  0  0  0  0  0  0  0  0  0  0  0
   -4.9454    0.4093   33.4163 H   0  0  0  0  0  0  0  0  0  0  0  0
   -5.7814    3.2299   33.1809 H   0  0  0  0  0  0  0  0  0  0  0  0
   -5.9606    4.4682   30.6056 H   0  0  0  0  0  0  0  0  0  0  0  0
   -0.9439    1.1349   29.5088 H   0  0  0  0  0  0  0  0  0  0  0  0
    0.5476   -0.3882   30.8187 H   0  0  0  0  0  0  0  0  0  0  0  0
    1.1732    0.5051   28.0902 H   0  0  0  0  0  0  0  0  0  0  0  0
    1.2089    3.4718   23.2703 H   0  0  0  0  0  0  0  0  0  0  0  0
    4.2276    4.5020   24.6351 H   0  0  0  0  0  0  0  0  0  0  0  0
  1  2  1  0
  2  3  1  0
  3  4  2  0
  3  5  1  0
  5  6  1  0
  6  7  2  0
  7  8  1  0
  8  9  2  0
  9 10  1  0
 10 11  1  0
 11 12  1  0
 12 13  1  0
 13 14  1  0
 14 15  2  0
 15 16  1  0
 16 17  2  0
 17 18  1  0
 18 19  2  0
 19 20  1  0
 20 21  1  0
 21 22  2  0
 22 23  1  0
 23 24  2  0
 24 25  1  0
 25 26  2  0
 26 27  1  0
 27 28  2  0
 28 29  1  0
 19 30  1  0
 30 31  1  0
 31 32  2  0
  9 33  1  0
 33 34  2  0
 34 35  1  0
 34  6  1  0
 32 14  1  0
 31 17  1  0
 29 21  1  0
 29 25  1  0
  1 36  1  0
  1 37  1  0
  1 38  1  0
  2 39  1  0
  2 40  1  0
  5 41  1  0
  7 42  1  0
  8 43  1  0
 10 44  1  0
 10 45  1  0
 11 46  1  0
 12 47  1  0
 12 48  1  0
 15 49  1  0
 16 50  1  0
 22 51  1  0
 23 52  1  0
 24 53  1  0
 28 54  1  0
 30 55  1  0
 32 56  1  0
 33 57  1  0
 35 58  1  0
M  END
>  <Energy>  (224) 
788.54130839846255

>  <compound_id>  (224) 
550

>  <target_id>  (224) 
1

>  <reference_id>  (224) 
70

>  <inspiration_ids>  (224) 
[57, 70]

>  <energy_score>  (224) 
707.357331504771

>  <distance_score>  (224) 
2.9866837008977702

>  <path>  (224) 
/opt/xchem-fragalysis-2/maxwin/BulkDock/SCRATCH/505733/C550-P70/C550-P70.minimised.mol

>  <scratch_subdir>  (224) 
/opt/xchem-fragalysis-2/maxwin/BulkDock/SCRATCH/505733/C550-P70

>  <fragmenstein_runtime>  (224) 
8.854053497314453

>  <fragmenstein_outcome>  (224) 
too moved

>  <fragmenstein_mode>  (224) 
expansion

>  <fragmenstein_error>  (224) 


$$$$
C551-P57
     RDKit          3D

 55 57  0  0  0  0  0  0  0  0999 V2000
    5.3027    4.3806   28.4157 C   0  0  0  0  0  0  0  0  0  0  0  0
    4.1959    5.4089   28.3345 C   0  0  0  0  0  0  0  0  0  0  0  0
    3.1115    4.9840   27.3570 C   0  0  0  0  0  0  0  0  0  0  0  0
    2.9498    5.5092   26.3254 O   0  0  0  0  0  0  0  0  0  0  0  0
    2.3313    3.8185   28.0266 N   0  0  0  0  0  0  0  0  0  0  0  0
    1.1725    3.1474   27.6181 C   0  0  0  0  0  0  0  0  0  0  0  0
    0.6289    2.2268   28.5354 C   0  0  0  0  0  0  0  0  0  0  0  0
   -0.5925    1.5549   28.3096 C   0  0  0  0  0  0  0  0  0  0  0  0
   -1.0065    0.5697   29.2899 N   0  0  0  0  0  0  0  0  0  0  0  0
   -0.7003   -0.7774   29.1696 C   0  0  0  0  0  0  0  0  0  0  0  0
   -1.2000   -1.6755   28.2582 C   0  0  0  0  0  0  0  0  0  0  0  0
   -0.7083   -3.0012   28.4421 C   0  0  0  0  0  0  0  0  0  0  0  0
    0.1092   -3.1757   29.5273 C   0  0  0  0  0  0  0  0  0  0  0  0
    0.8799   -4.7084   30.1390 S   0  0  0  0  0  0  0  0  0  0  0  0
    1.7354   -5.1666   29.0643 O   0  0  0  0  0  0  0  0  0  0  0  0
    1.4290   -4.4169   31.4387 O   0  0  0  0  0  0  0  0  0  0  0  0
   -0.3710   -5.9460   30.2986 N   0  0  0  0  0  0  0  0  0  0  0  0
    0.0228   -7.1620   31.0973 C   0  0  0  0  0  0  0  0  0  0  0  0
   -0.6747   -7.2147   32.4505 C   0  0  0  0  0  0  0  0  0  0  0  0
   -0.5365   -5.8763   33.1124 C   0  0  0  0  0  0  0  0  0  0  0  0
    0.2355   -5.6691   34.1256 N   0  0  0  0  0  0  0  0  0  0  0  0
    0.3020   -4.3632   34.5528 C   0  0  0  0  0  0  0  0  0  0  0  0
   -0.3458   -3.3233   34.0101 C   0  0  0  0  0  0  0  0  0  0  0  0
   -1.2116   -3.5875   32.8624 C   0  0  0  0  0  0  0  0  0  0  0  0
   -1.8364   -2.7338   32.2486 O   0  0  0  0  0  0  0  0  0  0  0  0
   -1.2609   -4.8887   32.4968 N   0  0  0  0  0  0  0  0  0  0  0  0
    0.3727   -1.6362   30.2635 S   0  0  0  0  0  0  0  0  0  0  0  0
   -1.2947    1.8797   27.1304 C   0  0  0  0  0  0  0  0  0  0  0  0
   -2.6938    1.4518   26.8298 C   0  0  0  0  0  0  0  0  0  0  0  0
   -0.7225    2.7628   26.1924 C   0  0  0  0  0  0  0  0  0  0  0  0
    0.5140    3.3557   26.4086 C   0  0  0  0  0  0  0  0  0  0  0  0
    0.9706    4.1021   25.3630 O   0  0  0  0  0  0  0  0  0  0  0  0
    4.9477    3.4311   28.8282 H   0  0  0  0  0  0  0  0  0  0  0  0
    6.1115    4.7432   29.0578 H   0  0  0  0  0  0  0  0  0  0  0  0
    5.7196    4.1749   27.4241 H   0  0  0  0  0  0  0  0  0  0  0  0
    3.7518    5.5868   29.3200 H   0  0  0  0  0  0  0  0  0  0  0  0
    4.6042    6.3668   27.9919 H   0  0  0  0  0  0  0  0  0  0  0  0
    2.6883    3.6652   28.9613 H   0  0  0  0  0  0  0  0  0  0  0  0
    1.1717    2.0165   29.4538 H   0  0  0  0  0  0  0  0  0  0  0  0
   -0.6726    0.9141   30.1885 H   0  0  0  0  0  0  0  0  0  0  0  0
   -1.8816   -1.4112   27.4618 H   0  0  0  0  0  0  0  0  0  0  0  0
   -0.9619   -3.8272   27.8071 H   0  0  0  0  0  0  0  0  0  0  0  0
   -0.6606   -6.1735   29.3399 H   0  0  0  0  0  0  0  0  0  0  0  0
   -0.2239   -8.0517   30.5088 H   0  0  0  0  0  0  0  0  0  0  0  0
    1.1052   -7.1539   31.2395 H   0  0  0  0  0  0  0  0  0  0  0  0
   -0.2415   -7.9931   33.0832 H   0  0  0  0  0  0  0  0  0  0  0  0
   -1.7362   -7.4422   32.3144 H   0  0  0  0  0  0  0  0  0  0  0  0
    0.9492   -4.1939   35.4095 H   0  0  0  0  0  0  0  0  0  0  0  0
   -0.2656   -2.3114   34.3753 H   0  0  0  0  0  0  0  0  0  0  0  0
   -1.5918   -5.0777   31.5653 H   0  0  0  0  0  0  0  0  0  0  0  0
   -2.8398    0.4301   27.1601 H   0  0  0  0  0  0  0  0  0  0  0  0
   -2.8985    1.4648   25.7555 H   0  0  0  0  0  0  0  0  0  0  0  0
   -3.4037    2.1212   27.3184 H   0  0  0  0  0  0  0  0  0  0  0  0
   -1.2614    3.0121   25.2790 H   0  0  0  0  0  0  0  0  0  0  0  0
    1.7221    4.6566   25.6511 H   0  0  0  0  0  0  0  0  0  0  0  0
  1  2  1  0
  2  3  1  0
  3  4  2  0
  3  5  1  0
  5  6  1  0
  6  7  2  0
  7  8  1  0
  8  9  1  0
  9 10  1  0
 10 11  2  0
 11 12  1  0
 12 13  2  0
 13 14  1  0
 14 15  2  0
 14 16  2  0
 14 17  1  0
 17 18  1  0
 18 19  1  0
 19 20  1  0
 20 21  2  0
 21 22  1  0
 22 23  2  0
 23 24  1  0
 24 25  2  0
 24 26  1  0
 13 27  1  0
  8 28  2  0
 28 29  1  0
 28 30  1  0
 30 31  2  0
 31 32  1  0
 31  6  1  0
 27 10  1  0
 26 20  1  0
  1 33  1  0
  1 34  1  0
  1 35  1  0
  2 36  1  0
  2 37  1  0
  5 38  1  0
  7 39  1  0
  9 40  1  0
 11 41  1  0
 12 42  1  0
 17 43  1  0
 18 44  1  0
 18 45  1  0
 19 46  1  0
 19 47  1  0
 22 48  1  0
 23 49  1  0
 26 50  1  0
 29 51  1  0
 29 52  1  0
 29 53  1  0
 30 54  1  0
 32 55  1  0
M  END
>  <Energy>  (225) 
-64.733471901611068

>  <compound_id>  (225) 
551

>  <target_id>  (225) 
1

>  <reference_id>  (225) 
57

>  <inspiration_ids>  (225) 
[57, 130]

>  <energy_score>  (225) 
-61.94668470786152

>  <distance_score>  (225) 
1.6412118876171815

>  <path>  (225) 
/opt/xchem-fragalysis-2/maxwin/BulkDock/SCRATCH/505733/C551-P57/C551-P57.minimised.mol

>  <scratch_subdir>  (225) 
/opt/xchem-fragalysis-2/maxwin/BulkDock/SCRATCH/505733/C551-P57

>  <fragmenstein_runtime>  (225) 
9.289422988891602

>  <fragmenstein_outcome>  (225) 
too moved

>  <fragmenstein_mode>  (225) 
expansion

>  <fragmenstein_error>  (225) 


$$$$
C551-P130
     RDKit          3D

 55 57  0  0  0  0  0  0  0  0999 V2000
    5.3849    4.2774   28.5064 C   0  0  0  0  0  0  0  0  0  0  0  0
    4.2866    5.3078   28.3755 C   0  0  0  0  0  0  0  0  0  0  0  0
    3.2335    4.8619   27.3750 C   0  0  0  0  0  0  0  0  0  0  0  0
    3.1508    5.3149   26.3004 O   0  0  0  0  0  0  0  0  0  0  0  0
    2.3658    3.7837   28.0828 N   0  0  0  0  0  0  0  0  0  0  0  0
    1.2003    3.1341   27.6603 C   0  0  0  0  0  0  0  0  0  0  0  0
    0.6391    2.2073   28.5627 C   0  0  0  0  0  0  0  0  0  0  0  0
   -0.6028    1.5744   28.3342 C   0  0  0  0  0  0  0  0  0  0  0  0
   -1.0512    0.5920   29.3055 N   0  0  0  0  0  0  0  0  0  0  0  0
   -0.7648   -0.7637   29.1955 C   0  0  0  0  0  0  0  0  0  0  0  0
   -1.4039   -1.6875   28.4012 C   0  0  0  0  0  0  0  0  0  0  0  0
   -0.9128   -3.0151   28.5737 C   0  0  0  0  0  0  0  0  0  0  0  0
    0.0453   -3.1670   29.5393 C   0  0  0  0  0  0  0  0  0  0  0  0
    0.8653   -4.7043   30.0755 S   0  0  0  0  0  0  0  0  0  0  0  0
    1.6885   -5.1088   28.9552 O   0  0  0  0  0  0  0  0  0  0  0  0
    1.4476   -4.4434   31.3673 O   0  0  0  0  0  0  0  0  0  0  0  0
   -0.3525   -5.9715   30.2211 N   0  0  0  0  0  0  0  0  0  0  0  0
    0.0164   -7.1432   31.0895 C   0  0  0  0  0  0  0  0  0  0  0  0
   -0.7654   -7.1679   32.3941 C   0  0  0  0  0  0  0  0  0  0  0  0
   -0.6056   -5.8260   33.0395 C   0  0  0  0  0  0  0  0  0  0  0  0
    0.1951   -5.6198   34.0313 N   0  0  0  0  0  0  0  0  0  0  0  0
    0.2968   -4.3098   34.4373 C   0  0  0  0  0  0  0  0  0  0  0  0
   -0.3484   -3.2672   33.8968 C   0  0  0  0  0  0  0  0  0  0  0  0
   -1.2579   -3.5334   32.7823 C   0  0  0  0  0  0  0  0  0  0  0  0
   -1.9061   -2.6775   32.1960 O   0  0  0  0  0  0  0  0  0  0  0  0
   -1.3175   -4.8336   32.4185 N   0  0  0  0  0  0  0  0  0  0  0  0
    0.4204   -1.6112   30.1864 S   0  0  0  0  0  0  0  0  0  0  0  0
   -1.3081    1.9545   27.1725 C   0  0  0  0  0  0  0  0  0  0  0  0
   -2.7053    1.5362   26.8541 C   0  0  0  0  0  0  0  0  0  0  0  0
   -0.7151    2.8342   26.2444 C   0  0  0  0  0  0  0  0  0  0  0  0
    0.5400    3.3842   26.4597 C   0  0  0  0  0  0  0  0  0  0  0  0
    1.0049    4.1368   25.4225 O   0  0  0  0  0  0  0  0  0  0  0  0
    5.0106    3.3322   28.9119 H   0  0  0  0  0  0  0  0  0  0  0  0
    6.1708    4.6421   29.1751 H   0  0  0  0  0  0  0  0  0  0  0  0
    5.8380    4.0618   27.5328 H   0  0  0  0  0  0  0  0  0  0  0  0
    3.8155    5.5048   29.3447 H   0  0  0  0  0  0  0  0  0  0  0  0
    4.7052    6.2590   28.0271 H   0  0  0  0  0  0  0  0  0  0  0  0
    2.7667    3.5664   28.9864 H   0  0  0  0  0  0  0  0  0  0  0  0
    1.1814    1.9666   29.4740 H   0  0  0  0  0  0  0  0  0  0  0  0
   -0.7023    0.9312   30.2013 H   0  0  0  0  0  0  0  0  0  0  0  0
   -2.1813   -1.4331   27.6945 H   0  0  0  0  0  0  0  0  0  0  0  0
   -1.2323   -3.8705   28.0133 H   0  0  0  0  0  0  0  0  0  0  0  0
   -0.5591   -6.2516   29.2545 H   0  0  0  0  0  0  0  0  0  0  0  0
   -0.1631   -8.0609   30.5201 H   0  0  0  0  0  0  0  0  0  0  0  0
    1.0830   -7.0902   31.3094 H   0  0  0  0  0  0  0  0  0  0  0  0
   -0.3951   -7.9505   33.0602 H   0  0  0  0  0  0  0  0  0  0  0  0
   -1.8227   -7.3614   32.1951 H   0  0  0  0  0  0  0  0  0  0  0  0
    0.9718   -4.1395   35.2719 H   0  0  0  0  0  0  0  0  0  0  0  0
   -0.2417   -2.2520   34.2456 H   0  0  0  0  0  0  0  0  0  0  0  0
   -1.7553   -5.0409   31.5404 H   0  0  0  0  0  0  0  0  0  0  0  0
   -3.0696    1.9700   25.9175 H   0  0  0  0  0  0  0  0  0  0  0  0
   -3.3768    1.8776   27.6374 H   0  0  0  0  0  0  0  0  0  0  0  0
   -2.7281    0.4567   26.7378 H   0  0  0  0  0  0  0  0  0  0  0  0
   -1.2476    3.1123   25.3355 H   0  0  0  0  0  0  0  0  0  0  0  0
    1.8254    4.5982   25.6832 H   0  0  0  0  0  0  0  0  0  0  0  0
  1  2  1  0
  2  3  1  0
  3  4  2  0
  3  5  1  0
  5  6  1  0
  6  7  2  0
  7  8  1  0
  8  9  1  0
  9 10  1  0
 10 11  2  0
 11 12  1  0
 12 13  2  0
 13 14  1  0
 14 15  2  0
 14 16  2  0
 14 17  1  0
 17 18  1  0
 18 19  1  0
 19 20  1  0
 20 21  2  0
 21 22  1  0
 22 23  2  0
 23 24  1  0
 24 25  2  0
 24 26  1  0
 13 27  1  0
  8 28  2  0
 28 29  1  0
 28 30  1  0
 30 31  2  0
 31 32  1  0
 31  6  1  0
 27 10  1  0
 26 20  1  0
  1 33  1  0
  1 34  1  0
  1 35  1  0
  2 36  1  0
  2 37  1  0
  5 38  1  0
  7 39  1  0
  9 40  1  0
 11 41  1  0
 12 42  1  0
 17 43  1  0
 18 44  1  0
 18 45  1  0
 19 46  1  0
 19 47  1  0
 22 48  1  0
 23 49  1  0
 26 50  1  0
 29 51  1  0
 29 52  1  0
 29 53  1  0
 30 54  1  0
 32 55  1  0
M  END
>  <Energy>  (226) 
-64.358719697945872

>  <compound_id>  (226) 
551

>  <target_id>  (226) 
1

>  <reference_id>  (226) 
130

>  <inspiration_ids>  (226) 
[57, 130]

>  <energy_score>  (226) 
-61.57193250419675

>  <distance_score>  (226) 
1.6303265419513002

>  <path>  (226) 
/opt/xchem-fragalysis-2/maxwin/BulkDock/SCRATCH/505733/C551-P130/C551-P130.minimised.mol

>  <scratch_subdir>  (226) 
/opt/xchem-fragalysis-2/maxwin/BulkDock/SCRATCH/505733/C551-P130

>  <fragmenstein_runtime>  (226) 
10.6078519821167

>  <fragmenstein_outcome>  (226) 
too moved

>  <fragmenstein_mode>  (226) 
expansion

>  <fragmenstein_error>  (226) 


$$$$
C552-P57
     RDKit          3D

 56 58  0  0  0  0  0  0  0  0999 V2000
   -1.2675   -8.1115   32.4675 C   0  0  0  0  0  0  0  0  0  0  0  0
   -0.2485   -7.4610   33.4063 C   0  0  0  0  0  0  0  0  0  0  0  0
   -0.5296   -5.9811   33.4956 C   0  0  0  0  0  0  0  0  0  0  0  0
   -0.9823   -5.4476   34.4274 O   0  0  0  0  0  0  0  0  0  0  0  0
   -0.1845   -5.4264   32.0888 N   0  0  0  0  0  0  0  0  0  0  0  0
   -0.4052   -4.1821   31.5387 C   0  0  0  0  0  0  0  0  0  0  0  0
   -1.1128   -3.1861   32.1874 C   0  0  0  0  0  0  0  0  0  0  0  0
   -1.5536   -2.0914   31.4453 C   0  0  0  0  0  0  0  0  0  0  0  0
   -1.2792   -1.9782   30.0763 C   0  0  0  0  0  0  0  0  0  0  0  0
   -1.7386   -0.7681   29.3006 C   0  0  0  0  0  0  0  0  0  0  0  0
   -0.6445    0.2619   29.1915 C   0  0  0  0  0  0  0  0  0  0  0  0
   -0.1892    0.9112   30.3482 C   0  0  0  0  0  0  0  0  0  0  0  0
    0.9284    1.7376   30.3078 C   0  0  0  0  0  0  0  0  0  0  0  0
    1.6233    1.8975   29.1089 C   0  0  0  0  0  0  0  0  0  0  0  0
    3.2516    2.6289   29.2038 S   0  0  0  0  0  0  0  0  0  0  0  0
    4.1826    1.5199   29.2316 O   0  0  0  0  0  0  0  0  0  0  0  0
    3.2558    3.6349   30.2432 O   0  0  0  0  0  0  0  0  0  0  0  0
    3.5511    3.3988   27.7456 N   0  0  0  0  0  0  0  0  0  0  0  0
    3.3525    4.8454   27.5647 C   0  0  0  0  0  0  0  0  0  0  0  0
    1.9655    5.3657   27.9219 C   0  0  0  0  0  0  0  0  0  0  0  0
    0.8393    4.6855   27.2028 C   0  0  0  0  0  0  0  0  0  0  0  0
   -0.3212    4.5176   27.8654 N   0  0  0  0  0  0  0  0  0  0  0  0
   -1.3300    3.9059   27.2042 C   0  0  0  0  0  0  0  0  0  0  0  0
   -1.2189    3.4706   25.9112 C   0  0  0  0  0  0  0  0  0  0  0  0
    0.0011    3.7150   25.3473 C   0  0  0  0  0  0  0  0  0  0  0  0
    0.2706    3.3405   24.0772 O   0  0  0  0  0  0  0  0  0  0  0  0
    1.0392    4.3128   25.9332 N   0  0  0  0  0  0  0  0  0  0  0  0
    1.1414    1.3137   27.9320 C   0  0  0  0  0  0  0  0  0  0  0  0
   -0.0036    0.5071   27.9728 C   0  0  0  0  0  0  0  0  0  0  0  0
   -0.5096   -2.9602   29.4558 C   0  0  0  0  0  0  0  0  0  0  0  0
   -0.0756   -4.0501   30.1917 C   0  0  0  0  0  0  0  0  0  0  0  0
    0.6287   -5.0616   29.5930 O   0  0  0  0  0  0  0  0  0  0  0  0
   -2.1652   -8.3787   33.0252 H   0  0  0  0  0  0  0  0  0  0  0  0
   -1.5876   -7.4680   31.6437 H   0  0  0  0  0  0  0  0  0  0  0  0
   -0.8671   -9.0164   32.0151 H   0  0  0  0  0  0  0  0  0  0  0  0
    0.7705   -7.5893   33.0352 H   0  0  0  0  0  0  0  0  0  0  0  0
   -0.2943   -7.8986   34.4078 H   0  0  0  0  0  0  0  0  0  0  0  0
    0.1194   -6.1855   31.4903 H   0  0  0  0  0  0  0  0  0  0  0  0
   -1.3869   -3.2734   33.2360 H   0  0  0  0  0  0  0  0  0  0  0  0
   -2.1351   -1.3242   31.9526 H   0  0  0  0  0  0  0  0  0  0  0  0
   -2.5878   -0.2966   29.8068 H   0  0  0  0  0  0  0  0  0  0  0  0
   -2.0975   -1.0715   28.3094 H   0  0  0  0  0  0  0  0  0  0  0  0
   -0.6689    0.7319   31.3068 H   0  0  0  0  0  0  0  0  0  0  0  0
    1.3020    2.1815   31.2280 H   0  0  0  0  0  0  0  0  0  0  0  0
    4.3725    2.9991   27.2923 H   0  0  0  0  0  0  0  0  0  0  0  0
    4.1144    5.3781   28.1455 H   0  0  0  0  0  0  0  0  0  0  0  0
    3.5676    5.0683   26.5120 H   0  0  0  0  0  0  0  0  0  0  0  0
    1.9168    6.4345   27.6809 H   0  0  0  0  0  0  0  0  0  0  0  0
    1.7943    5.2886   29.0007 H   0  0  0  0  0  0  0  0  0  0  0  0
   -2.2504    3.7809   27.7689 H   0  0  0  0  0  0  0  0  0  0  0  0
   -2.0312    2.9935   25.3844 H   0  0  0  0  0  0  0  0  0  0  0  0
    1.1470    3.7501   23.9600 H   0  0  0  0  0  0  0  0  0  0  0  0
    1.6896    1.4277   27.0013 H   0  0  0  0  0  0  0  0  0  0  0  0
   -0.3456    0.0130   27.0664 H   0  0  0  0  0  0  0  0  0  0  0  0
   -0.2725   -2.8635   28.4002 H   0  0  0  0  0  0  0  0  0  0  0  0
    0.5199   -4.9425   28.6310 H   0  0  0  0  0  0  0  0  0  0  0  0
  1  2  1  0
  2  3  1  0
  3  4  2  0
  3  5  1  0
  5  6  1  0
  6  7  2  0
  7  8  1  0
  8  9  2  0
  9 10  1  0
 10 11  1  0
 11 12  2  0
 12 13  1  0
 13 14  2  0
 14 15  1  0
 15 16  2  0
 15 17  2  0
 15 18  1  0
 18 19  1  0
 19 20  1  0
 20 21  1  0
 21 22  2  0
 22 23  1  0
 23 24  2  0
 24 25  1  0
 25 26  1  0
 25 27  2  0
 14 28  1  0
 28 29  2  0
  9 30  1  0
 30 31  2  0
 31 32  1  0
 31  6  1  0
 29 11  1  0
 27 21  1  0
  1 33  1  0
  1 34  1  0
  1 35  1  0
  2 36  1  0
  2 37  1  0
  5 38  1  0
  7 39  1  0
  8 40  1  0
 10 41  1  0
 10 42  1  0
 12 43  1  0
 13 44  1  0
 18 45  1  0
 19 46  1  0
 19 47  1  0
 20 48  1  0
 20 49  1  0
 23 50  1  0
 24 51  1  0
 26 52  1  0
 28 53  1  0
 29 54  1  0
 30 55  1  0
 32 56  1  0
M  END
>  <Energy>  (227) 
-46.14391784819783

>  <compound_id>  (227) 
552

>  <target_id>  (227) 
1

>  <reference_id>  (227) 
57

>  <inspiration_ids>  (227) 
[57, 131]

>  <energy_score>  (227) 
-61.88358187921676

>  <distance_score>  (227) 
1.8962126473729228

>  <path>  (227) 
/opt/xchem-fragalysis-2/maxwin/BulkDock/SCRATCH/505733/C552-P57/C552-P57.minimised.mol

>  <scratch_subdir>  (227) 
/opt/xchem-fragalysis-2/maxwin/BulkDock/SCRATCH/505733/C552-P57

>  <fragmenstein_runtime>  (227) 
10.54433798789978

>  <fragmenstein_outcome>  (227) 
too moved

>  <fragmenstein_mode>  (227) 
expansion

>  <fragmenstein_error>  (227) 


$$$$
C552-P131
     RDKit          3D

 56 58  0  0  0  0  0  0  0  0999 V2000
   -1.3521   -8.1323   32.5424 C   0  0  0  0  0  0  0  0  0  0  0  0
   -0.2283   -7.4968   33.3534 C   0  0  0  0  0  0  0  0  0  0  0  0
   -0.3999   -6.0022   33.4441 C   0  0  0  0  0  0  0  0  0  0  0  0
   -0.6701   -5.4328   34.4253 O   0  0  0  0  0  0  0  0  0  0  0  0
   -0.2444   -5.4822   31.9906 N   0  0  0  0  0  0  0  0  0  0  0  0
   -0.4737   -4.2244   31.4554 C   0  0  0  0  0  0  0  0  0  0  0  0
   -0.2221   -4.0893   30.0828 C   0  0  0  0  0  0  0  0  0  0  0  0
   -0.6384   -2.9550   29.3917 C   0  0  0  0  0  0  0  0  0  0  0  0
   -1.3208   -1.9490   30.0715 C   0  0  0  0  0  0  0  0  0  0  0  0
   -1.7972   -0.7089   29.3655 C   0  0  0  0  0  0  0  0  0  0  0  0
   -0.6893    0.2982   29.1956 C   0  0  0  0  0  0  0  0  0  0  0  0
   -0.0377    0.8413   30.3142 C   0  0  0  0  0  0  0  0  0  0  0  0
    1.1295    1.5909   30.1656 C   0  0  0  0  0  0  0  0  0  0  0  0
    1.6507    1.8111   28.8909 C   0  0  0  0  0  0  0  0  0  0  0  0
    3.3731    2.2878   28.7312 S   0  0  0  0  0  0  0  0  0  0  0  0
    3.8620    1.8621   27.4370 O   0  0  0  0  0  0  0  0  0  0  0  0
    4.0415    1.8645   29.9455 O   0  0  0  0  0  0  0  0  0  0  0  0
    3.4125    3.9599   28.7837 N   0  0  0  0  0  0  0  0  0  0  0  0
    3.3647    4.7634   27.5579 C   0  0  0  0  0  0  0  0  0  0  0  0
    2.1071    5.6215   27.5360 C   0  0  0  0  0  0  0  0  0  0  0  0
    0.9141    4.8547   27.0472 C   0  0  0  0  0  0  0  0  0  0  0  0
   -0.1834    4.7835   27.8215 N   0  0  0  0  0  0  0  0  0  0  0  0
   -1.2575    4.1370   27.3073 C   0  0  0  0  0  0  0  0  0  0  0  0
   -1.2729    3.5850   26.0533 C   0  0  0  0  0  0  0  0  0  0  0  0
   -0.1000    3.7323   25.3702 C   0  0  0  0  0  0  0  0  0  0  0  0
    0.0513    3.2376   24.1227 O   0  0  0  0  0  0  0  0  0  0  0  0
    1.0002    4.3406   25.8136 N   0  0  0  0  0  0  0  0  0  0  0  0
    0.9508    1.3583   27.7710 C   0  0  0  0  0  0  0  0  0  0  0  0
   -0.2251    0.6170   27.9199 C   0  0  0  0  0  0  0  0  0  0  0  0
   -1.4996   -2.0575   31.4521 C   0  0  0  0  0  0  0  0  0  0  0  0
   -1.0610   -3.1722   32.1482 C   0  0  0  0  0  0  0  0  0  0  0  0
   -1.3072   -3.1013   33.4840 O   0  0  0  0  0  0  0  0  0  0  0  0
   -1.7704   -7.4761   31.7763 H   0  0  0  0  0  0  0  0  0  0  0  0
   -2.1652   -8.4152   33.2127 H   0  0  0  0  0  0  0  0  0  0  0  0
   -1.0071   -9.0293   32.0289 H   0  0  0  0  0  0  0  0  0  0  0  0
    0.7415   -7.6777   32.8885 H   0  0  0  0  0  0  0  0  0  0  0  0
   -0.1938   -7.9120   34.3656 H   0  0  0  0  0  0  0  0  0  0  0  0
    0.0783   -6.2335   31.3954 H   0  0  0  0  0  0  0  0  0  0  0  0
    0.2597   -4.8831   29.5210 H   0  0  0  0  0  0  0  0  0  0  0  0
   -0.4621   -2.8693   28.3230 H   0  0  0  0  0  0  0  0  0  0  0  0
   -2.5931   -0.2360   29.9507 H   0  0  0  0  0  0  0  0  0  0  0  0
   -2.2382   -0.9847   28.3999 H   0  0  0  0  0  0  0  0  0  0  0  0
   -0.3833    0.6140   31.3197 H   0  0  0  0  0  0  0  0  0  0  0  0
    1.6762    1.9106   31.0496 H   0  0  0  0  0  0  0  0  0  0  0  0
    3.9086    4.3285   29.5934 H   0  0  0  0  0  0  0  0  0  0  0  0
    4.2431    5.4197   27.5785 H   0  0  0  0  0  0  0  0  0  0  0  0
    3.4580    4.1529   26.6554 H   0  0  0  0  0  0  0  0  0  0  0  0
    2.2575    6.4651   26.8516 H   0  0  0  0  0  0  0  0  0  0  0  0
    1.9035    6.0439   28.5272 H   0  0  0  0  0  0  0  0  0  0  0  0
   -2.1263    4.0847   27.9587 H   0  0  0  0  0  0  0  0  0  0  0  0
   -2.1380    3.0839   25.6456 H   0  0  0  0  0  0  0  0  0  0  0  0
    0.9376    3.5791   23.9046 H   0  0  0  0  0  0  0  0  0  0  0  0
    1.3735    1.5185   26.7860 H   0  0  0  0  0  0  0  0  0  0  0  0
   -0.7265    0.2153   27.0434 H   0  0  0  0  0  0  0  0  0  0  0  0
   -1.9892   -1.2593   32.0058 H   0  0  0  0  0  0  0  0  0  0  0  0
   -1.2690   -3.9815   33.9157 H   0  0  0  0  0  0  0  0  0  0  0  0
  1  2  1  0
  2  3  1  0
  3  4  2  0
  3  5  1  0
  5  6  1  0
  6  7  2  0
  7  8  1  0
  8  9  2  0
  9 10  1  0
 10 11  1  0
 11 12  2  0
 12 13  1  0
 13 14  2  0
 14 15  1  0
 15 16  2  0
 15 17  2  0
 15 18  1  0
 18 19  1  0
 19 20  1  0
 20 21  1  0
 21 22  2  0
 22 23  1  0
 23 24  2  0
 24 25  1  0
 25 26  1  0
 25 27  2  0
 14 28  1  0
 28 29  2  0
  9 30  1  0
 30 31  2  0
 31 32  1  0
 31  6  1  0
 29 11  1  0
 27 21  1  0
  1 33  1  0
  1 34  1  0
  1 35  1  0
  2 36  1  0
  2 37  1  0
  5 38  1  0
  7 39  1  0
  8 40  1  0
 10 41  1  0
 10 42  1  0
 12 43  1  0
 13 44  1  0
 18 45  1  0
 19 46  1  0
 19 47  1  0
 20 48  1  0
 20 49  1  0
 23 50  1  0
 24 51  1  0
 26 52  1  0
 28 53  1  0
 29 54  1  0
 30 55  1  0
 32 56  1  0
M  END
>  <Energy>  (228) 
-49.986612883579078

>  <compound_id>  (228) 
552

>  <target_id>  (228) 
1

>  <reference_id>  (228) 
131

>  <inspiration_ids>  (228) 
[57, 131]

>  <energy_score>  (228) 
-65.72627691459667

>  <distance_score>  (228) 
1.7380494093119896

>  <path>  (228) 
/opt/xchem-fragalysis-2/maxwin/BulkDock/SCRATCH/505733/C552-P131/C552-P131.minimised.mol

>  <scratch_subdir>  (228) 
/opt/xchem-fragalysis-2/maxwin/BulkDock/SCRATCH/505733/C552-P131

>  <fragmenstein_runtime>  (228) 
14.904880285263062

>  <fragmenstein_outcome>  (228) 
too moved

>  <fragmenstein_mode>  (228) 
expansion

>  <fragmenstein_error>  (228) 


$$$$
C553-P57
     RDKit          3D

 59 61  0  0  0  0  0  0  0  0999 V2000
    0.8074    3.6531   26.4368 C   0  0  0  0  0  0  0  0  0  0  0  0
    1.5551    2.5784   27.2066 C   0  0  0  0  0  0  0  0  0  0  0  0
    1.1401    2.5041   28.6758 C   0  0  0  0  0  0  0  0  0  0  0  0
    0.3902    3.3094   29.1475 O   0  0  0  0  0  0  0  0  0  0  0  0
    1.8025    1.3697   29.2737 N   0  0  0  0  0  0  0  0  0  0  0  0
    1.6989    0.8195   30.5466 C   0  0  0  0  0  0  0  0  0  0  0  0
    0.9267    1.4031   31.5485 C   0  0  0  0  0  0  0  0  0  0  0  0
    0.8348    0.7996   32.8064 C   0  0  0  0  0  0  0  0  0  0  0  0
    1.5450   -0.3744   33.0877 C   0  0  0  0  0  0  0  0  0  0  0  0
    1.4955   -0.9950   34.4657 C   0  0  0  0  0  0  0  0  0  0  0  0
    0.3971   -1.9497   34.6007 N   0  0  0  0  0  0  0  0  0  0  0  0
    0.9546   -3.0891   35.3506 O   0  0  0  0  0  0  0  0  0  0  0  0
    0.8764   -4.2150   34.5650 C   0  0  0  0  0  0  0  0  0  0  0  0
    1.9560   -4.5304   33.7384 C   0  0  0  0  0  0  0  0  0  0  0  0
    1.7518   -5.3899   32.6698 C   0  0  0  0  0  0  0  0  0  0  0  0
    0.4709   -5.9104   32.4770 C   0  0  0  0  0  0  0  0  0  0  0  0
   -0.0230   -6.3171   30.8276 S   0  0  0  0  0  0  0  0  0  0  0  0
   -1.2059   -7.1472   30.9006 O   0  0  0  0  0  0  0  0  0  0  0  0
    1.1441   -6.6857   30.0644 O   0  0  0  0  0  0  0  0  0  0  0  0
   -0.5070   -4.7683   30.3408 N   0  0  0  0  0  0  0  0  0  0  0  0
    0.5008   -3.7261   30.0174 C   0  0  0  0  0  0  0  0  0  0  0  0
    0.1397   -3.0032   28.7190 C   0  0  0  0  0  0  0  0  0  0  0  0
   -0.5964   -1.7017   28.7987 C   0  0  0  0  0  0  0  0  0  0  0  0
   -1.0514   -1.2296   29.9676 N   0  0  0  0  0  0  0  0  0  0  0  0
   -1.6338   -0.0112   29.9094 C   0  0  0  0  0  0  0  0  0  0  0  0
   -1.8031    0.7213   28.7580 C   0  0  0  0  0  0  0  0  0  0  0  0
   -1.3645    0.0976   27.6394 C   0  0  0  0  0  0  0  0  0  0  0  0
   -1.6242    0.5700   26.4015 O   0  0  0  0  0  0  0  0  0  0  0  0
   -0.7365   -1.0691   27.6267 N   0  0  0  0  0  0  0  0  0  0  0  0
   -0.5367   -5.7737   33.4362 C   0  0  0  0  0  0  0  0  0  0  0  0
   -0.3337   -4.8995   34.4911 C   0  0  0  0  0  0  0  0  0  0  0  0
    2.3179   -0.9600   32.0726 C   0  0  0  0  0  0  0  0  0  0  0  0
    2.3875   -0.3644   30.8146 C   0  0  0  0  0  0  0  0  0  0  0  0
    3.1416   -0.9319   29.8200 O   0  0  0  0  0  0  0  0  0  0  0  0
   -0.2732    3.4788   26.4687 H   0  0  0  0  0  0  0  0  0  0  0  0
    1.1220    3.6587   25.3886 H   0  0  0  0  0  0  0  0  0  0  0  0
    1.0003    4.6453   26.8576 H   0  0  0  0  0  0  0  0  0  0  0  0
    2.6315    2.7778   27.1608 H   0  0  0  0  0  0  0  0  0  0  0  0
    1.3613    1.6076   26.7400 H   0  0  0  0  0  0  0  0  0  0  0  0
    2.3013    0.8588   28.5526 H   0  0  0  0  0  0  0  0  0  0  0  0
    0.3914    2.3313   31.3682 H   0  0  0  0  0  0  0  0  0  0  0  0
    0.2272    1.2695   33.5770 H   0  0  0  0  0  0  0  0  0  0  0  0
    1.3773   -0.2075   35.2195 H   0  0  0  0  0  0  0  0  0  0  0  0
    2.4718   -1.4558   34.6668 H   0  0  0  0  0  0  0  0  0  0  0  0
    0.1698   -2.3257   33.6798 H   0  0  0  0  0  0  0  0  0  0  0  0
    2.9015   -4.0084   33.8531 H   0  0  0  0  0  0  0  0  0  0  0  0
    2.5297   -5.5218   31.9218 H   0  0  0  0  0  0  0  0  0  0  0  0
   -1.2724   -4.3873   30.8930 H   0  0  0  0  0  0  0  0  0  0  0  0
    0.5946   -3.0437   30.8660 H   0  0  0  0  0  0  0  0  0  0  0  0
    1.4754   -4.2020   29.8673 H   0  0  0  0  0  0  0  0  0  0  0  0
    1.0832   -2.7850   28.2014 H   0  0  0  0  0  0  0  0  0  0  0  0
   -0.4337   -3.6704   28.0713 H   0  0  0  0  0  0  0  0  0  0  0  0
   -1.9815    0.3590   30.8661 H   0  0  0  0  0  0  0  0  0  0  0  0
   -2.2953    1.6805   28.7130 H   0  0  0  0  0  0  0  0  0  0  0  0
   -1.4883   -0.2775   25.9163 H   0  0  0  0  0  0  0  0  0  0  0  0
   -1.5129   -6.2237   33.2902 H   0  0  0  0  0  0  0  0  0  0  0  0
   -1.1438   -4.6517   35.1728 H   0  0  0  0  0  0  0  0  0  0  0  0
    2.8666   -1.8736   32.2763 H   0  0  0  0  0  0  0  0  0  0  0  0
    3.7698   -1.5506   30.2272 H   0  0  0  0  0  0  0  0  0  0  0  0
  1  2  1  0
  2  3  1  0
  3  4  2  0
  3  5  1  0
  5  6  1  0
  6  7  2  0
  7  8  1  0
  8  9  2  0
  9 10  1  0
 10 11  1  0
 11 12  1  0
 12 13  1  0
 13 14  2  0
 14 15  1  0
 15 16  2  0
 16 17  1  0
 17 18  2  0
 17 19  2  0
 17 20  1  0
 20 21  1  0
 21 22  1  0
 22 23  1  0
 23 24  2  0
 24 25  1  0
 25 26  2  0
 26 27  1  0
 27 28  1  0
 27 29  2  0
 16 30  1  0
 30 31  2  0
  9 32  1  0
 32 33  2  0
 33 34  1  0
 33  6  1  0
 31 13  1  0
 29 23  1  0
  1 35  1  0
  1 36  1  0
  1 37  1  0
  2 38  1  0
  2 39  1  0
  5 40  1  0
  7 41  1  0
  8 42  1  0
 10 43  1  0
 10 44  1  0
 11 45  1  0
 14 46  1  0
 15 47  1  0
 20 48  1  0
 21 49  1  0
 21 50  1  0
 22 51  1  0
 22 52  1  0
 25 53  1  0
 26 54  1  0
 28 55  1  0
 30 56  1  0
 31 57  1  0
 32 58  1  0
 34 59  1  0
M  END
>  <Energy>  (229) 
-53.339166348557299

>  <compound_id>  (229) 
553

>  <target_id>  (229) 
1

>  <reference_id>  (229) 
57

>  <inspiration_ids>  (229) 
[57, 134]

>  <energy_score>  (229) 
-77.99244964479396

>  <distance_score>  (229) 
3.9381665805180153

>  <path>  (229) 
/opt/xchem-fragalysis-2/maxwin/BulkDock/SCRATCH/505733/C553-P57/C553-P57.minimised.mol

>  <scratch_subdir>  (229) 
/opt/xchem-fragalysis-2/maxwin/BulkDock/SCRATCH/505733/C553-P57

>  <fragmenstein_runtime>  (229) 
18.113142490386963

>  <fragmenstein_outcome>  (229) 
too moved

>  <fragmenstein_mode>  (229) 
expansion

>  <fragmenstein_error>  (229) 


$$$$
C553-P134
     RDKit          3D

 59 61  0  0  0  0  0  0  0  0999 V2000
    5.2054    3.9017   28.0088 C   0  0  0  0  0  0  0  0  0  0  0  0
    5.1978    3.0629   29.2758 C   0  0  0  0  0  0  0  0  0  0  0  0
    3.7831    2.7463   29.7644 C   0  0  0  0  0  0  0  0  0  0  0  0
    2.8237    3.1618   29.1820 O   0  0  0  0  0  0  0  0  0  0  0  0
    3.8856    1.9091   30.9326 N   0  0  0  0  0  0  0  0  0  0  0  0
    2.9065    1.4080   31.7868 C   0  0  0  0  0  0  0  0  0  0  0  0
    1.5434    1.3998   31.4949 C   0  0  0  0  0  0  0  0  0  0  0  0
    0.6256    0.9303   32.4484 C   0  0  0  0  0  0  0  0  0  0  0  0
    1.0630    0.5121   33.7160 C   0  0  0  0  0  0  0  0  0  0  0  0
    0.0970    0.1360   34.8160 C   0  0  0  0  0  0  0  0  0  0  0  0
   -0.1977   -1.2882   34.9286 N   0  0  0  0  0  0  0  0  0  0  0  0
    1.0500   -1.9950   35.2724 O   0  0  0  0  0  0  0  0  0  0  0  0
    1.1444   -3.0996   34.4498 C   0  0  0  0  0  0  0  0  0  0  0  0
    2.0079   -3.0118   33.3554 C   0  0  0  0  0  0  0  0  0  0  0  0
    1.6977   -3.7209   32.2082 C   0  0  0  0  0  0  0  0  0  0  0  0
    0.5358   -4.4844   32.2232 C   0  0  0  0  0  0  0  0  0  0  0  0
   -0.4530   -4.5775   30.7705 S   0  0  0  0  0  0  0  0  0  0  0  0
   -1.7439   -4.0488   31.1644 O   0  0  0  0  0  0  0  0  0  0  0  0
   -0.2705   -5.9134   30.2505 O   0  0  0  0  0  0  0  0  0  0  0  0
    0.1756   -3.5090   29.6599 N   0  0  0  0  0  0  0  0  0  0  0  0
    0.0596   -2.0312   29.7994 C   0  0  0  0  0  0  0  0  0  0  0  0
   -0.9394   -1.3961   28.8118 C   0  0  0  0  0  0  0  0  0  0  0  0
   -0.5560    0.0059   28.3899 C   0  0  0  0  0  0  0  0  0  0  0  0
    0.7257    0.2000   28.0227 N   0  0  0  0  0  0  0  0  0  0  0  0
    1.0535    1.4250   27.5680 C   0  0  0  0  0  0  0  0  0  0  0  0
    0.1614    2.4532   27.4512 C   0  0  0  0  0  0  0  0  0  0  0  0
   -1.1066    2.1468   27.8530 C   0  0  0  0  0  0  0  0  0  0  0  0
   -2.0569    3.1154   27.7566 O   0  0  0  0  0  0  0  0  0  0  0  0
   -1.5077    0.9607   28.3399 N   0  0  0  0  0  0  0  0  0  0  0  0
   -0.1410   -4.7979   33.4117 C   0  0  0  0  0  0  0  0  0  0  0  0
    0.1715   -4.0912   34.5536 C   0  0  0  0  0  0  0  0  0  0  0  0
    2.4383    0.4947   33.9838 C   0  0  0  0  0  0  0  0  0  0  0  0
    3.3442    0.9179   33.0185 C   0  0  0  0  0  0  0  0  0  0  0  0
    4.6917    0.9086   33.2815 O   0  0  0  0  0  0  0  0  0  0  0  0
    4.7115    4.8652   28.1725 H   0  0  0  0  0  0  0  0  0  0  0  0
    6.2328    4.0945   27.6851 H   0  0  0  0  0  0  0  0  0  0  0  0
    4.6804    3.3898   27.1956 H   0  0  0  0  0  0  0  0  0  0  0  0
    5.7284    3.6021   30.0688 H   0  0  0  0  0  0  0  0  0  0  0  0
    5.7210    2.1190   29.0844 H   0  0  0  0  0  0  0  0  0  0  0  0
    4.8620    1.8263   31.1968 H   0  0  0  0  0  0  0  0  0  0  0  0
    1.1782    1.7714   30.5415 H   0  0  0  0  0  0  0  0  0  0  0  0
   -0.4342    0.9424   32.2064 H   0  0  0  0  0  0  0  0  0  0  0  0
   -0.8483    0.6661   34.6457 H   0  0  0  0  0  0  0  0  0  0  0  0
    0.4659    0.5143   35.7779 H   0  0  0  0  0  0  0  0  0  0  0  0
   -0.4495   -1.6312   33.9997 H   0  0  0  0  0  0  0  0  0  0  0  0
    2.7865   -2.2560   33.3249 H   0  0  0  0  0  0  0  0  0  0  0  0
    2.2308   -3.5080   31.2858 H   0  0  0  0  0  0  0  0  0  0  0  0
    0.3182   -3.8891   28.7241 H   0  0  0  0  0  0  0  0  0  0  0  0
    1.0739   -1.6460   29.6449 H   0  0  0  0  0  0  0  0  0  0  0  0
   -0.2115   -1.7603   30.8259 H   0  0  0  0  0  0  0  0  0  0  0  0
   -1.0229   -2.0056   27.9099 H   0  0  0  0  0  0  0  0  0  0  0  0
   -1.9288   -1.3793   29.2773 H   0  0  0  0  0  0  0  0  0  0  0  0
    2.0933    1.5542   27.2838 H   0  0  0  0  0  0  0  0  0  0  0  0
    0.4371    3.4314   27.0883 H   0  0  0  0  0  0  0  0  0  0  0  0
   -2.8555    2.7250   28.1662 H   0  0  0  0  0  0  0  0  0  0  0  0
   -1.0420   -5.4094   33.4015 H   0  0  0  0  0  0  0  0  0  0  0  0
   -0.4755   -4.1477   35.4261 H   0  0  0  0  0  0  0  0  0  0  0  0
    2.7862    0.1632   34.9588 H   0  0  0  0  0  0  0  0  0  0  0  0
    4.8229    0.6284   34.2031 H   0  0  0  0  0  0  0  0  0  0  0  0
  1  2  1  0
  2  3  1  0
  3  4  2  0
  3  5  1  0
  5  6  1  0
  6  7  2  0
  7  8  1  0
  8  9  2  0
  9 10  1  0
 10 11  1  0
 11 12  1  0
 12 13  1  0
 13 14  2  0
 14 15  1  0
 15 16  2  0
 16 17  1  0
 17 18  2  0
 17 19  2  0
 17 20  1  0
 20 21  1  0
 21 22  1  0
 22 23  1  0
 23 24  2  0
 24 25  1  0
 25 26  2  0
 26 27  1  0
 27 28  1  0
 27 29  2  0
 16 30  1  0
 30 31  2  0
  9 32  1  0
 32 33  2  0
 33 34  1  0
 33  6  1  0
 31 13  1  0
 29 23  1  0
  1 35  1  0
  1 36  1  0
  1 37  1  0
  2 38  1  0
  2 39  1  0
  5 40  1  0
  7 41  1  0
  8 42  1  0
 10 43  1  0
 10 44  1  0
 11 45  1  0
 14 46  1  0
 15 47  1  0
 20 48  1  0
 21 49  1  0
 21 50  1  0
 22 51  1  0
 22 52  1  0
 25 53  1  0
 26 54  1  0
 28 55  1  0
 30 56  1  0
 31 57  1  0
 32 58  1  0
 34 59  1  0
M  END
>  <Energy>  (230) 
-46.845064013221666

>  <compound_id>  (230) 
553

>  <target_id>  (230) 
1

>  <reference_id>  (230) 
134

>  <inspiration_ids>  (230) 
[57, 134]

>  <energy_score>  (230) 
-71.49834730945895

>  <distance_score>  (230) 
3.8903459964479956

>  <path>  (230) 
/opt/xchem-fragalysis-2/maxwin/BulkDock/SCRATCH/505733/C553-P134/C553-P134.minimised.mol

>  <scratch_subdir>  (230) 
/opt/xchem-fragalysis-2/maxwin/BulkDock/SCRATCH/505733/C553-P134

>  <fragmenstein_runtime>  (230) 
25.7073016166687

>  <fragmenstein_outcome>  (230) 
too moved

>  <fragmenstein_mode>  (230) 
expansion

>  <fragmenstein_error>  (230) 


$$$$
C556-P57
     RDKit          3D

 61 63  0  0  0  0  0  0  0  0999 V2000
    4.4888    5.2902   27.7565 C   0  0  0  0  0  0  0  0  0  0  0  0
    3.4522    6.1923   27.0950 C   0  0  0  0  0  0  0  0  0  0  0  0
    2.3376    5.3882   26.4314 C   0  0  0  0  0  0  0  0  0  0  0  0
    2.2045    5.3086   25.2739 O   0  0  0  0  0  0  0  0  0  0  0  0
    1.5572    4.7013   27.5819 N   0  0  0  0  0  0  0  0  0  0  0  0
    0.5502    3.7359   27.5441 C   0  0  0  0  0  0  0  0  0  0  0  0
    0.2112    3.2059   28.7886 C   0  0  0  0  0  0  0  0  0  0  0  0
   -0.5464    2.0385   28.8801 C   0  0  0  0  0  0  0  0  0  0  0  0
   -1.0865    1.4296   27.7512 C   0  0  0  0  0  0  0  0  0  0  0  0
   -1.6546    0.0142   27.7899 C   0  0  0  0  0  0  0  0  0  0  0  0
   -1.5525   -0.6359   29.1252 N   0  0  0  0  0  0  0  0  0  0  0  0
   -1.3816   -2.1149   29.1440 C   0  0  0  0  0  0  0  0  0  0  0  0
   -0.3112   -2.4208   30.1019 N   0  0  0  0  0  0  0  0  0  0  0  0
   -0.4196   -2.6832   31.4453 C   0  0  0  0  0  0  0  0  0  0  0  0
    0.6879   -2.0807   32.0119 C   0  0  0  0  0  0  0  0  0  0  0  0
    1.4007   -1.5779   30.9065 C   0  0  0  0  0  0  0  0  0  0  0  0
    2.5144   -0.2470   30.9606 S   0  0  0  0  0  0  0  0  0  0  0  0
    3.4723   -0.6297   31.9752 O   0  0  0  0  0  0  0  0  0  0  0  0
    1.6580    0.9125   31.0957 O   0  0  0  0  0  0  0  0  0  0  0  0
    3.3204   -0.1785   29.4876 N   0  0  0  0  0  0  0  0  0  0  0  0
    2.5045    0.1475   28.2740 C   0  0  0  0  0  0  0  0  0  0  0  0
    3.4602    0.0994   27.0676 C   0  0  0  0  0  0  0  0  0  0  0  0
    4.0816   -1.2610   26.8596 C   0  0  0  0  0  0  0  0  0  0  0  0
    5.1783   -1.3481   26.0860 N   0  0  0  0  0  0  0  0  0  0  0  0
    5.7132   -2.5766   25.8981 C   0  0  0  0  0  0  0  0  0  0  0  0
    6.9258   -2.6705   25.0225 C   0  0  0  0  0  0  0  0  0  0  0  0
    5.1667   -3.7140   26.4530 C   0  0  0  0  0  0  0  0  0  0  0  0
    4.0639   -3.5020   27.2288 C   0  0  0  0  0  0  0  0  0  0  0  0
    3.4164   -4.5289   27.8325 O   0  0  0  0  0  0  0  0  0  0  0  0
    3.5068   -2.3168   27.4648 N   0  0  0  0  0  0  0  0  0  0  0  0
    0.9548   -2.1227   29.7629 N   0  0  0  0  0  0  0  0  0  0  0  0
   -0.9216    2.0973   26.5300 C   0  0  0  0  0  0  0  0  0  0  0  0
   -0.0390    3.1824   26.4058 C   0  0  0  0  0  0  0  0  0  0  0  0
    0.2355    3.5577   25.1205 O   0  0  0  0  0  0  0  0  0  0  0  0
    4.0717    4.7423   28.6069 H   0  0  0  0  0  0  0  0  0  0  0  0
    4.8754    4.5545   27.0434 H   0  0  0  0  0  0  0  0  0  0  0  0
    5.3288    5.8883   28.1231 H   0  0  0  0  0  0  0  0  0  0  0  0
    3.9342    6.8012   26.3215 H   0  0  0  0  0  0  0  0  0  0  0  0
    3.0166    6.8849   27.8235 H   0  0  0  0  0  0  0  0  0  0  0  0
    1.8825    5.0586   28.4721 H   0  0  0  0  0  0  0  0  0  0  0  0
    0.6417    3.6025   29.7056 H   0  0  0  0  0  0  0  0  0  0  0  0
   -0.6109    1.5564   29.8519 H   0  0  0  0  0  0  0  0  0  0  0  0
   -1.0480   -0.5660   27.0885 H   0  0  0  0  0  0  0  0  0  0  0  0
   -2.6791    0.0071   27.4265 H   0  0  0  0  0  0  0  0  0  0  0  0
   -2.3394   -0.3562   29.6989 H   0  0  0  0  0  0  0  0  0  0  0  0
   -1.0604   -2.5214   28.1813 H   0  0  0  0  0  0  0  0  0  0  0  0
   -2.2819   -2.6228   29.4898 H   0  0  0  0  0  0  0  0  0  0  0  0
   -1.3267   -3.0716   31.8839 H   0  0  0  0  0  0  0  0  0  0  0  0
    0.8501   -1.8717   33.0602 H   0  0  0  0  0  0  0  0  0  0  0  0
    3.7821   -1.0855   29.3611 H   0  0  0  0  0  0  0  0  0  0  0  0
    1.6728   -0.5372   28.1189 H   0  0  0  0  0  0  0  0  0  0  0  0
    2.1284    1.1658   28.3730 H   0  0  0  0  0  0  0  0  0  0  0  0
    4.2671    0.8289   27.2114 H   0  0  0  0  0  0  0  0  0  0  0  0
    2.9246    0.3825   26.1594 H   0  0  0  0  0  0  0  0  0  0  0  0
    6.6554   -3.0959   24.0514 H   0  0  0  0  0  0  0  0  0  0  0  0
    7.6897   -3.2996   25.4905 H   0  0  0  0  0  0  0  0  0  0  0  0
    7.3637   -1.6808   24.8602 H   0  0  0  0  0  0  0  0  0  0  0  0
    5.5751   -4.7012   26.2955 H   0  0  0  0  0  0  0  0  0  0  0  0
    2.7132   -4.0351   28.3008 H   0  0  0  0  0  0  0  0  0  0  0  0
   -1.4133    1.7142   25.6450 H   0  0  0  0  0  0  0  0  0  0  0  0
    0.8661    4.3063   25.1224 H   0  0  0  0  0  0  0  0  0  0  0  0
  1  2  1  0
  2  3  1  0
  3  4  2  0
  3  5  1  0
  5  6  1  0
  6  7  2  0
  7  8  1  0
  8  9  2  0
  9 10  1  0
 10 11  1  0
 11 12  1  0
 12 13  1  0
 13 14  1  0
 14 15  2  0
 15 16  1  0
 16 17  1  0
 17 18  2  0
 17 19  2  0
 17 20  1  0
 20 21  1  0
 21 22  1  0
 22 23  1  0
 23 24  2  0
 24 25  1  0
 25 26  1  0
 25 27  2  0
 27 28  1  0
 28 29  1  0
 28 30  2  0
 16 31  2  0
  9 32  1  0
 32 33  2  0
 33 34  1  0
 33  6  1  0
 31 13  1  0
 30 23  1  0
  1 35  1  0
  1 36  1  0
  1 37  1  0
  2 38  1  0
  2 39  1  0
  5 40  1  0
  7 41  1  0
  8 42  1  0
 10 43  1  0
 10 44  1  0
 11 45  1  0
 12 46  1  0
 12 47  1  0
 14 48  1  0
 15 49  1  0
 20 50  1  0
 21 51  1  0
 21 52  1  0
 22 53  1  0
 22 54  1  0
 26 55  1  0
 26 56  1  0
 26 57  1  0
 27 58  1  0
 29 59  1  0
 32 60  1  0
 34 61  1  0
M  END
>  <Energy>  (231) 
33.337120285130943

>  <compound_id>  (231) 
556

>  <target_id>  (231) 
1

>  <reference_id>  (231) 
57

>  <inspiration_ids>  (231) 
[57, 142]

>  <energy_score>  (231) 
-44.001661397554074

>  <distance_score>  (231) 
2.516620480836369

>  <path>  (231) 
/opt/xchem-fragalysis-2/maxwin/BulkDock/SCRATCH/505733/C556-P57/C556-P57.minimised.mol

>  <scratch_subdir>  (231) 
/opt/xchem-fragalysis-2/maxwin/BulkDock/SCRATCH/505733/C556-P57

>  <fragmenstein_runtime>  (231) 
12.445947408676147

>  <fragmenstein_outcome>  (231) 
too moved

>  <fragmenstein_mode>  (231) 
expansion

>  <fragmenstein_error>  (231) 


$$$$
C556-P142
     RDKit          3D

 61 63  0  0  0  0  0  0  0  0999 V2000
    5.3248    6.0111   27.0393 C   0  0  0  0  0  0  0  0  0  0  0  0
    4.3006    6.8585   26.2997 C   0  0  0  0  0  0  0  0  0  0  0  0
    3.1383    6.0134   25.7864 C   0  0  0  0  0  0  0  0  0  0  0  0
    3.0164    5.8202   24.6098 O   0  0  0  0  0  0  0  0  0  0  0  0
    2.3612    5.5445   26.8997 N   0  0  0  0  0  0  0  0  0  0  0  0
    1.2869    4.6502   26.9588 C   0  0  0  0  0  0  0  0  0  0  0  0
    0.8607    4.3233   28.2516 C   0  0  0  0  0  0  0  0  0  0  0  0
   -0.1033    3.3379   28.4598 C   0  0  0  0  0  0  0  0  0  0  0  0
   -0.6977    2.6798   27.3789 C   0  0  0  0  0  0  0  0  0  0  0  0
   -1.5923    1.4853   27.6203 C   0  0  0  0  0  0  0  0  0  0  0  0
   -0.7565    0.3405   27.9934 N   0  0  0  0  0  0  0  0  0  0  0  0
   -1.5384   -0.7824   28.5250 C   0  0  0  0  0  0  0  0  0  0  0  0
   -0.6315   -1.5919   29.3463 N   0  0  0  0  0  0  0  0  0  0  0  0
   -0.5016   -2.9514   29.3794 C   0  0  0  0  0  0  0  0  0  0  0  0
    0.5458   -3.2191   30.2302 C   0  0  0  0  0  0  0  0  0  0  0  0
    0.9801   -1.9493   30.6735 C   0  0  0  0  0  0  0  0  0  0  0  0
    2.4690   -1.6613   31.5414 S   0  0  0  0  0  0  0  0  0  0  0  0
    2.6912   -2.8739   32.3018 O   0  0  0  0  0  0  0  0  0  0  0  0
    2.3152   -0.3664   32.1669 O   0  0  0  0  0  0  0  0  0  0  0  0
    3.7013   -1.5726   30.3978 N   0  0  0  0  0  0  0  0  0  0  0  0
    3.5981   -0.5712   29.3096 C   0  0  0  0  0  0  0  0  0  0  0  0
    3.0144   -1.1185   28.0104 C   0  0  0  0  0  0  0  0  0  0  0  0
    3.7158   -2.3602   27.5402 C   0  0  0  0  0  0  0  0  0  0  0  0
    4.8658   -2.2162   26.8593 N   0  0  0  0  0  0  0  0  0  0  0  0
    5.4851   -3.3387   26.4337 C   0  0  0  0  0  0  0  0  0  0  0  0
    6.7417   -3.1710   25.6346 C   0  0  0  0  0  0  0  0  0  0  0  0
    4.9880   -4.5953   26.6976 C   0  0  0  0  0  0  0  0  0  0  0  0
    3.8297   -4.6177   27.4235 C   0  0  0  0  0  0  0  0  0  0  0  0
    3.2370   -5.7976   27.7372 O   0  0  0  0  0  0  0  0  0  0  0  0
    3.1705   -3.5473   27.8724 N   0  0  0  0  0  0  0  0  0  0  0  0
    0.2078   -0.9589   30.1975 N   0  0  0  0  0  0  0  0  0  0  0  0
   -0.3499    3.0825   26.0876 C   0  0  0  0  0  0  0  0  0  0  0  0
    0.6560    4.0308   25.8744 C   0  0  0  0  0  0  0  0  0  0  0  0
    0.9516    4.2464   24.5594 O   0  0  0  0  0  0  0  0  0  0  0  0
    6.1912    6.6204   27.3148 H   0  0  0  0  0  0  0  0  0  0  0  0
    4.9109    5.5816   27.9569 H   0  0  0  0  0  0  0  0  0  0  0  0
    5.6723    5.1835   26.4117 H   0  0  0  0  0  0  0  0  0  0  0  0
    4.7758    7.3451   25.4401 H   0  0  0  0  0  0  0  0  0  0  0  0
    3.9152    7.6556   26.9452 H   0  0  0  0  0  0  0  0  0  0  0  0
    2.7062    5.9758   27.7480 H   0  0  0  0  0  0  0  0  0  0  0  0
    1.3078    4.7908   29.1253 H   0  0  0  0  0  0  0  0  0  0  0  0
   -0.3519    3.0612   29.4795 H   0  0  0  0  0  0  0  0  0  0  0  0
   -2.1798    1.2535   26.7246 H   0  0  0  0  0  0  0  0  0  0  0  0
   -2.2939    1.7441   28.4203 H   0  0  0  0  0  0  0  0  0  0  0  0
   -0.1253    0.6261   28.7479 H   0  0  0  0  0  0  0  0  0  0  0  0
   -1.9619   -1.4080   27.7367 H   0  0  0  0  0  0  0  0  0  0  0  0
   -2.3037   -0.4434   29.2261 H   0  0  0  0  0  0  0  0  0  0  0  0
   -1.1136   -3.5893   28.7579 H   0  0  0  0  0  0  0  0  0  0  0  0
    0.9870   -4.1812   30.4470 H   0  0  0  0  0  0  0  0  0  0  0  0
    4.0433   -2.4943   30.1233 H   0  0  0  0  0  0  0  0  0  0  0  0
    3.0327    0.3061   29.6417 H   0  0  0  0  0  0  0  0  0  0  0  0
    4.6200   -0.2178   29.1218 H   0  0  0  0  0  0  0  0  0  0  0  0
    3.0901   -0.3508   27.2307 H   0  0  0  0  0  0  0  0  0  0  0  0
    1.9509   -1.3365   28.1156 H   0  0  0  0  0  0  0  0  0  0  0  0
    7.5640   -3.7246   26.0985 H   0  0  0  0  0  0  0  0  0  0  0  0
    7.0306   -2.1170   25.5819 H   0  0  0  0  0  0  0  0  0  0  0  0
    6.5915   -3.5367   24.6142 H   0  0  0  0  0  0  0  0  0  0  0  0
    5.4683   -5.5010   26.3570 H   0  0  0  0  0  0  0  0  0  0  0  0
    2.4348   -5.4771   28.1874 H   0  0  0  0  0  0  0  0  0  0  0  0
   -0.8324    2.6333   25.2261 H   0  0  0  0  0  0  0  0  0  0  0  0
    1.6861    4.8879   24.4859 H   0  0  0  0  0  0  0  0  0  0  0  0
  1  2  1  0
  2  3  1  0
  3  4  2  0
  3  5  1  0
  5  6  1  0
  6  7  2  0
  7  8  1  0
  8  9  2  0
  9 10  1  0
 10 11  1  0
 11 12  1  0
 12 13  1  0
 13 14  1  0
 14 15  2  0
 15 16  1  0
 16 17  1  0
 17 18  2  0
 17 19  2  0
 17 20  1  0
 20 21  1  0
 21 22  1  0
 22 23  1  0
 23 24  2  0
 24 25  1  0
 25 26  1  0
 25 27  2  0
 27 28  1  0
 28 29  1  0
 28 30  2  0
 16 31  2  0
  9 32  1  0
 32 33  2  0
 33 34  1  0
 33  6  1  0
 31 13  1  0
 30 23  1  0
  1 35  1  0
  1 36  1  0
  1 37  1  0
  2 38  1  0
  2 39  1  0
  5 40  1  0
  7 41  1  0
  8 42  1  0
 10 43  1  0
 10 44  1  0
 11 45  1  0
 12 46  1  0
 12 47  1  0
 14 48  1  0
 15 49  1  0
 20 50  1  0
 21 51  1  0
 21 52  1  0
 22 53  1  0
 22 54  1  0
 26 55  1  0
 26 56  1  0
 26 57  1  0
 27 58  1  0
 29 59  1  0
 32 60  1  0
 34 61  1  0
M  END
>  <Energy>  (232) 
5.2513697204963838

>  <compound_id>  (232) 
556

>  <target_id>  (232) 
1

>  <reference_id>  (232) 
142

>  <inspiration_ids>  (232) 
[57, 142]

>  <energy_score>  (232) 
-72.09636837445021

>  <distance_score>  (232) 
3.201716186461748

>  <path>  (232) 
/opt/xchem-fragalysis-2/maxwin/BulkDock/SCRATCH/505733/C556-P142/C556-P142.minimised.mol

>  <scratch_subdir>  (232) 
/opt/xchem-fragalysis-2/maxwin/BulkDock/SCRATCH/505733/C556-P142

>  <fragmenstein_runtime>  (232) 
20.658263444900513

>  <fragmenstein_outcome>  (232) 
too moved

>  <fragmenstein_mode>  (232) 
expansion

>  <fragmenstein_error>  (232) 


$$$$
C557-P57
     RDKit          3D

 57 59  0  0  0  0  0  0  0  0999 V2000
    4.9770    4.9040   28.3805 C   0  0  0  0  0  0  0  0  0  0  0  0
    5.0278    4.0386   27.1341 C   0  0  0  0  0  0  0  0  0  0  0  0
    3.7590    4.1705   26.3012 C   0  0  0  0  0  0  0  0  0  0  0  0
    3.7295    4.7114   25.2663 O   0  0  0  0  0  0  0  0  0  0  0  0
    2.6212    3.5078   27.1217 N   0  0  0  0  0  0  0  0  0  0  0  0
    1.2760    3.2983   26.8038 C   0  0  0  0  0  0  0  0  0  0  0  0
    0.5479    2.5707   27.7463 C   0  0  0  0  0  0  0  0  0  0  0  0
   -0.8065    2.2637   27.5584 C   0  0  0  0  0  0  0  0  0  0  0  0
   -1.4267    1.3382   28.4368 N   0  0  0  0  0  0  0  0  0  0  0  0
   -0.9384    0.0700   28.5378 C   0  0  0  0  0  0  0  0  0  0  0  0
    0.2220   -0.3218   29.0288 N   0  0  0  0  0  0  0  0  0  0  0  0
    0.2867   -1.7204   29.0161 C   0  0  0  0  0  0  0  0  0  0  0  0
    1.6484   -2.6594   29.5540 S   0  0  0  0  0  0  0  0  0  0  0  0
    2.3206   -1.8813   30.5684 O   0  0  0  0  0  0  0  0  0  0  0  0
    2.2972   -3.0928   28.3345 O   0  0  0  0  0  0  0  0  0  0  0  0
    1.0570   -4.0917   30.2648 N   0  0  0  0  0  0  0  0  0  0  0  0
    1.0441   -4.1425   31.7482 C   0  0  0  0  0  0  0  0  0  0  0  0
    0.3214   -5.4110   32.1930 C   0  0  0  0  0  0  0  0  0  0  0  0
    0.6348   -5.7536   33.6196 C   0  0  0  0  0  0  0  0  0  0  0  0
    0.0180   -5.0508   34.5855 N   0  0  0  0  0  0  0  0  0  0  0  0
    0.2747   -5.4037   35.8619 C   0  0  0  0  0  0  0  0  0  0  0  0
   -0.4257   -4.6341   36.9415 C   0  0  0  0  0  0  0  0  0  0  0  0
    1.1421   -6.4287   36.1831 C   0  0  0  0  0  0  0  0  0  0  0  0
    1.7240   -7.0698   35.1167 C   0  0  0  0  0  0  0  0  0  0  0  0
    2.5900   -8.1121   35.2927 O   0  0  0  0  0  0  0  0  0  0  0  0
    1.4983   -6.7612   33.8369 N   0  0  0  0  0  0  0  0  0  0  0  0
   -0.8261   -2.3539   28.5202 C   0  0  0  0  0  0  0  0  0  0  0  0
   -1.9483   -1.2004   27.9997 S   0  0  0  0  0  0  0  0  0  0  0  0
   -1.4846    2.7760   26.4349 C   0  0  0  0  0  0  0  0  0  0  0  0
   -2.9474    2.5279   26.1804 C   0  0  0  0  0  0  0  0  0  0  0  0
   -0.7508    3.4980   25.4861 C   0  0  0  0  0  0  0  0  0  0  0  0
    0.6174    3.7323   25.6542 C   0  0  0  0  0  0  0  0  0  0  0  0
    1.2109    4.3707   24.6073 O   0  0  0  0  0  0  0  0  0  0  0  0
    4.2034    4.5706   29.0789 H   0  0  0  0  0  0  0  0  0  0  0  0
    4.7650    5.9470   28.1231 H   0  0  0  0  0  0  0  0  0  0  0  0
    5.9375    4.8689   28.9041 H   0  0  0  0  0  0  0  0  0  0  0  0
    5.8752    4.3444   26.5101 H   0  0  0  0  0  0  0  0  0  0  0  0
    5.1852    2.9859   27.3933 H   0  0  0  0  0  0  0  0  0  0  0  0
    3.0124    3.0577   27.9410 H   0  0  0  0  0  0  0  0  0  0  0  0
    1.0414    2.1877   28.6374 H   0  0  0  0  0  0  0  0  0  0  0  0
   -2.4270    1.3592   28.2643 H   0  0  0  0  0  0  0  0  0  0  0  0
    1.5660   -4.8669   29.8334 H   0  0  0  0  0  0  0  0  0  0  0  0
    2.0814   -4.1509   32.1032 H   0  0  0  0  0  0  0  0  0  0  0  0
    0.5353   -3.2615   32.1544 H   0  0  0  0  0  0  0  0  0  0  0  0
   -0.7617   -5.2895   32.0723 H   0  0  0  0  0  0  0  0  0  0  0  0
    0.6077   -6.2579   31.5558 H   0  0  0  0  0  0  0  0  0  0  0  0
   -1.1206   -3.9048   36.5125 H   0  0  0  0  0  0  0  0  0  0  0  0
   -0.9990   -5.3130   37.5803 H   0  0  0  0  0  0  0  0  0  0  0  0
    0.3034   -4.0944   37.5535 H   0  0  0  0  0  0  0  0  0  0  0  0
    1.3367   -6.7023   37.2101 H   0  0  0  0  0  0  0  0  0  0  0  0
    2.7249   -8.2219   36.2477 H   0  0  0  0  0  0  0  0  0  0  0  0
   -0.9961   -3.4134   28.4067 H   0  0  0  0  0  0  0  0  0  0  0  0
   -3.3135    3.1076   25.3265 H   0  0  0  0  0  0  0  0  0  0  0  0
   -3.1172    1.4685   25.9693 H   0  0  0  0  0  0  0  0  0  0  0  0
   -3.5388    2.8248   27.0483 H   0  0  0  0  0  0  0  0  0  0  0  0
   -1.2385    3.8795   24.5903 H   0  0  0  0  0  0  0  0  0  0  0  0
    2.1463    4.5621   24.8155 H   0  0  0  0  0  0  0  0  0  0  0  0
  1  2  1  0
  2  3  1  0
  3  4  2  0
  3  5  1  0
  5  6  1  0
  6  7  2  0
  7  8  1  0
  8  9  1  0
  9 10  1  0
 10 11  2  0
 11 12  1  0
 12 13  1  0
 13 14  2  0
 13 15  2  0
 13 16  1  0
 16 17  1  0
 17 18  1  0
 18 19  1  0
 19 20  2  0
 20 21  1  0
 21 22  1  0
 21 23  2  0
 23 24  1  0
 24 25  1  0
 24 26  2  0
 12 27  2  0
 27 28  1  0
  8 29  2  0
 29 30  1  0
 29 31  1  0
 31 32  2  0
 32 33  1  0
 32  6  1  0
 28 10  1  0
 26 19  1  0
  1 34  1  0
  1 35  1  0
  1 36  1  0
  2 37  1  0
  2 38  1  0
  5 39  1  0
  7 40  1  0
  9 41  1  0
 16 42  1  0
 17 43  1  0
 17 44  1  0
 18 45  1  0
 18 46  1  0
 22 47  1  0
 22 48  1  0
 22 49  1  0
 23 50  1  0
 25 51  1  0
 27 52  1  0
 30 53  1  0
 30 54  1  0
 30 55  1  0
 31 56  1  0
 33 57  1  0
M  END
>  <Energy>  (233) 
-47.849669465351283

>  <compound_id>  (233) 
557

>  <target_id>  (233) 
1

>  <reference_id>  (233) 
57

>  <inspiration_ids>  (233) 
[57, 147]

>  <energy_score>  (233) 
-105.19955367918178

>  <distance_score>  (233) 
1.0493387428602656

>  <path>  (233) 
/opt/xchem-fragalysis-2/maxwin/BulkDock/SCRATCH/505733/C557-P57/C557-P57.minimised.mol

>  <scratch_subdir>  (233) 
/opt/xchem-fragalysis-2/maxwin/BulkDock/SCRATCH/505733/C557-P57

>  <fragmenstein_runtime>  (233) 
5.65516471862793

>  <fragmenstein_outcome>  (233) 
too moved

>  <fragmenstein_mode>  (233) 
expansion

>  <fragmenstein_error>  (233) 


$$$$
C557-P147
     RDKit          3D

 57 59  0  0  0  0  0  0  0  0999 V2000
    4.9435    4.9655   28.5488 C   0  0  0  0  0  0  0  0  0  0  0  0
    5.0417    4.2247   27.2289 C   0  0  0  0  0  0  0  0  0  0  0  0
    3.7626    4.3656   26.4165 C   0  0  0  0  0  0  0  0  0  0  0  0
    3.6835    5.0425   25.4676 O   0  0  0  0  0  0  0  0  0  0  0  0
    2.7001    3.4630   27.0993 N   0  0  0  0  0  0  0  0  0  0  0  0
    1.3410    3.2883   26.8186 C   0  0  0  0  0  0  0  0  0  0  0  0
    0.6351    2.4938   27.7257 C   0  0  0  0  0  0  0  0  0  0  0  0
   -0.7257    2.2054   27.5548 C   0  0  0  0  0  0  0  0  0  0  0  0
   -1.3487    1.2500   28.3948 N   0  0  0  0  0  0  0  0  0  0  0  0
   -0.8567   -0.0115   28.5525 C   0  0  0  0  0  0  0  0  0  0  0  0
    0.3316   -0.3959   28.9775 N   0  0  0  0  0  0  0  0  0  0  0  0
    0.3692   -1.7959   29.0635 C   0  0  0  0  0  0  0  0  0  0  0  0
    1.7485   -2.7255   29.5673 S   0  0  0  0  0  0  0  0  0  0  0  0
    2.4392   -1.9444   30.5665 O   0  0  0  0  0  0  0  0  0  0  0  0
    2.3705   -3.1654   28.3373 O   0  0  0  0  0  0  0  0  0  0  0  0
    1.1701   -4.1531   30.2984 N   0  0  0  0  0  0  0  0  0  0  0  0
    1.0858   -4.1556   31.7790 C   0  0  0  0  0  0  0  0  0  0  0  0
    0.3088   -5.3896   32.2283 C   0  0  0  0  0  0  0  0  0  0  0  0
    0.6228   -5.7386   33.6526 C   0  0  0  0  0  0  0  0  0  0  0  0
   -0.0348   -5.0826   34.6236 N   0  0  0  0  0  0  0  0  0  0  0  0
    0.2398   -5.4331   35.8976 C   0  0  0  0  0  0  0  0  0  0  0  0
   -0.5046   -4.7161   36.9842 C   0  0  0  0  0  0  0  0  0  0  0  0
    1.1727   -6.4011   36.2103 C   0  0  0  0  0  0  0  0  0  0  0  0
    1.7946   -6.9928   35.1383 C   0  0  0  0  0  0  0  0  0  0  0  0
    2.7351   -7.9675   35.3045 O   0  0  0  0  0  0  0  0  0  0  0  0
    1.5437   -6.6949   33.8606 N   0  0  0  0  0  0  0  0  0  0  0  0
   -0.7899   -2.4423   28.7074 C   0  0  0  0  0  0  0  0  0  0  0  0
   -1.9288   -1.3031   28.2162 S   0  0  0  0  0  0  0  0  0  0  0  0
   -1.4287    2.8005   26.4858 C   0  0  0  0  0  0  0  0  0  0  0  0
   -2.8992    2.5826   26.2462 C   0  0  0  0  0  0  0  0  0  0  0  0
   -0.7179    3.5888   25.5736 C   0  0  0  0  0  0  0  0  0  0  0  0
    0.6541    3.8052   25.7212 C   0  0  0  0  0  0  0  0  0  0  0  0
    1.2218    4.5084   24.7027 O   0  0  0  0  0  0  0  0  0  0  0  0
    4.1767    4.5377   29.2018 H   0  0  0  0  0  0  0  0  0  0  0  0
    4.6906    6.0187   28.3873 H   0  0  0  0  0  0  0  0  0  0  0  0
    5.8995    4.9209   29.0798 H   0  0  0  0  0  0  0  0  0  0  0  0
    5.8675    4.6311   26.6336 H   0  0  0  0  0  0  0  0  0  0  0  0
    5.2588    3.1632   27.3909 H   0  0  0  0  0  0  0  0  0  0  0  0
    3.0826    3.0772   27.9544 H   0  0  0  0  0  0  0  0  0  0  0  0
    1.1544    2.0471   28.5710 H   0  0  0  0  0  0  0  0  0  0  0  0
   -2.3461    1.2639   28.2164 H   0  0  0  0  0  0  0  0  0  0  0  0
    1.7162   -4.9280   29.9147 H   0  0  0  0  0  0  0  0  0  0  0  0
    2.1064   -4.1742   32.1793 H   0  0  0  0  0  0  0  0  0  0  0  0
    0.5813   -3.2511   32.1361 H   0  0  0  0  0  0  0  0  0  0  0  0
   -0.7687   -5.2199   32.1140 H   0  0  0  0  0  0  0  0  0  0  0  0
    0.5524   -6.2522   31.5946 H   0  0  0  0  0  0  0  0  0  0  0  0
   -1.2839   -4.0723   36.5635 H   0  0  0  0  0  0  0  0  0  0  0  0
   -0.9852   -5.4351   37.6545 H   0  0  0  0  0  0  0  0  0  0  0  0
    0.1835   -4.0914   37.5618 H   0  0  0  0  0  0  0  0  0  0  0  0
    1.3868   -6.6709   37.2348 H   0  0  0  0  0  0  0  0  0  0  0  0
    2.9001   -8.0560   36.2581 H   0  0  0  0  0  0  0  0  0  0  0  0
   -0.9911   -3.5030   28.6763 H   0  0  0  0  0  0  0  0  0  0  0  0
   -3.2575    3.1454   25.3779 H   0  0  0  0  0  0  0  0  0  0  0  0
   -3.0970    1.5236   26.0622 H   0  0  0  0  0  0  0  0  0  0  0  0
   -3.4743    2.9179   27.1094 H   0  0  0  0  0  0  0  0  0  0  0  0
   -1.2255    4.0344   24.7193 H   0  0  0  0  0  0  0  0  0  0  0  0
    2.1503    4.7236   24.9163 H   0  0  0  0  0  0  0  0  0  0  0  0
  1  2  1  0
  2  3  1  0
  3  4  2  0
  3  5  1  0
  5  6  1  0
  6  7  2  0
  7  8  1  0
  8  9  1  0
  9 10  1  0
 10 11  2  0
 11 12  1  0
 12 13  1  0
 13 14  2  0
 13 15  2  0
 13 16  1  0
 16 17  1  0
 17 18  1  0
 18 19  1  0
 19 20  2  0
 20 21  1  0
 21 22  1  0
 21 23  2  0
 23 24  1  0
 24 25  1  0
 24 26  2  0
 12 27  2  0
 27 28  1  0
  8 29  2  0
 29 30  1  0
 29 31  1  0
 31 32  2  0
 32 33  1  0
 32  6  1  0
 28 10  1  0
 26 19  1  0
  1 34  1  0
  1 35  1  0
  1 36  1  0
  2 37  1  0
  2 38  1  0
  5 39  1  0
  7 40  1  0
  9 41  1  0
 16 42  1  0
 17 43  1  0
 17 44  1  0
 18 45  1  0
 18 46  1  0
 22 47  1  0
 22 48  1  0
 22 49  1  0
 23 50  1  0
 25 51  1  0
 27 52  1  0
 30 53  1  0
 30 54  1  0
 30 55  1  0
 31 56  1  0
 33 57  1  0
M  END
>  <Energy>  (234) 
-49.113371466535817

>  <compound_id>  (234) 
557

>  <target_id>  (234) 
1

>  <reference_id>  (234) 
147

>  <inspiration_ids>  (234) 
[57, 147]

>  <energy_score>  (234) 
-106.46325568036696

>  <distance_score>  (234) 
1.0328385820345745

>  <path>  (234) 
/opt/xchem-fragalysis-2/maxwin/BulkDock/SCRATCH/505733/C557-P147/C557-P147.minimised.mol

>  <scratch_subdir>  (234) 
/opt/xchem-fragalysis-2/maxwin/BulkDock/SCRATCH/505733/C557-P147

>  <fragmenstein_runtime>  (234) 
3.641784191131592

>  <fragmenstein_outcome>  (234) 
too moved

>  <fragmenstein_mode>  (234) 
expansion

>  <fragmenstein_error>  (234) 


$$$$
C558-P57
     RDKit          3D

 60 62  0  0  0  0  0  0  0  0999 V2000
    4.2108   -5.4721   27.5703 C   0  0  0  0  0  0  0  0  0  0  0  0
    3.3441   -5.4309   28.8177 C   0  0  0  0  0  0  0  0  0  0  0  0
    2.1993   -4.4342   28.6880 C   0  0  0  0  0  0  0  0  0  0  0  0
    1.9665   -3.8359   27.7112 O   0  0  0  0  0  0  0  0  0  0  0  0
    1.4621   -4.4521   30.0606 N   0  0  0  0  0  0  0  0  0  0  0  0
    0.3862   -3.6935   30.5201 C   0  0  0  0  0  0  0  0  0  0  0  0
   -0.2578   -2.7276   29.7455 C   0  0  0  0  0  0  0  0  0  0  0  0
   -1.2291   -1.8660   30.2898 C   0  0  0  0  0  0  0  0  0  0  0  0
   -1.8281   -0.8269   29.5597 N   0  0  0  0  0  0  0  0  0  0  0  0
   -1.3246   -0.4556   28.2256 C   0  0  0  0  0  0  0  0  0  0  0  0
   -0.0513    0.3250   28.2877 C   0  0  0  0  0  0  0  0  0  0  0  0
    0.0848    1.4122   29.0133 N   0  0  0  0  0  0  0  0  0  0  0  0
    1.4312    1.7696   29.0416 C   0  0  0  0  0  0  0  0  0  0  0  0
    2.0697    3.0558   30.0444 S   0  0  0  0  0  0  0  0  0  0  0  0
    2.7749    2.3421   31.0913 O   0  0  0  0  0  0  0  0  0  0  0  0
    0.9518    3.9139   30.3413 O   0  0  0  0  0  0  0  0  0  0  0  0
    3.2838    3.9296   29.2398 N   0  0  0  0  0  0  0  0  0  0  0  0
    3.0920    4.5857   27.9354 C   0  0  0  0  0  0  0  0  0  0  0  0
    1.7742    5.3351   27.7652 C   0  0  0  0  0  0  0  0  0  0  0  0
    0.8070    4.5524   26.9254 C   0  0  0  0  0  0  0  0  0  0  0  0
   -0.4120    4.2248   27.3949 N   0  0  0  0  0  0  0  0  0  0  0  0
   -1.2736    3.6153   26.5427 C   0  0  0  0  0  0  0  0  0  0  0  0
   -2.6328    3.2407   27.0428 C   0  0  0  0  0  0  0  0  0  0  0  0
   -0.9338    3.3315   25.2459 C   0  0  0  0  0  0  0  0  0  0  0  0
    0.3305    3.7044   24.9000 C   0  0  0  0  0  0  0  0  0  0  0  0
    0.7846    3.5175   23.6451 O   0  0  0  0  0  0  0  0  0  0  0  0
    1.2277    4.2892   25.6848 N   0  0  0  0  0  0  0  0  0  0  0  0
    2.2800    0.9880   28.2888 C   0  0  0  0  0  0  0  0  0  0  0  0
    1.3942   -0.2760   27.5920 S   0  0  0  0  0  0  0  0  0  0  0  0
   -1.6536   -2.1162   31.6175 C   0  0  0  0  0  0  0  0  0  0  0  0
   -2.7764   -1.3528   32.2700 C   0  0  0  0  0  0  0  0  0  0  0  0
   -1.0564   -3.1430   32.3732 C   0  0  0  0  0  0  0  0  0  0  0  0
   -0.0212   -3.8935   31.8347 C   0  0  0  0  0  0  0  0  0  0  0  0
    0.6300   -4.8333   32.5916 O   0  0  0  0  0  0  0  0  0  0  0  0
    4.6538   -4.4915   27.3673 H   0  0  0  0  0  0  0  0  0  0  0  0
    3.6236   -5.7620   26.6923 H   0  0  0  0  0  0  0  0  0  0  0  0
    5.0217   -6.1965   27.6936 H   0  0  0  0  0  0  0  0  0  0  0  0
    2.9142   -6.4223   28.9866 H   0  0  0  0  0  0  0  0  0  0  0  0
    3.9599   -5.1560   29.6805 H   0  0  0  0  0  0  0  0  0  0  0  0
    1.8849   -5.1485   30.6637 H   0  0  0  0  0  0  0  0  0  0  0  0
    0.0384   -2.6396   28.7080 H   0  0  0  0  0  0  0  0  0  0  0  0
   -1.8768    0.0199   30.1253 H   0  0  0  0  0  0  0  0  0  0  0  0
   -1.2587   -1.3334   27.5759 H   0  0  0  0  0  0  0  0  0  0  0  0
   -2.0849    0.1763   27.7597 H   0  0  0  0  0  0  0  0  0  0  0  0
    4.2036    3.5295   29.4201 H   0  0  0  0  0  0  0  0  0  0  0  0
    3.9019    5.3239   27.8674 H   0  0  0  0  0  0  0  0  0  0  0  0
    3.2874    3.8523   27.1456 H   0  0  0  0  0  0  0  0  0  0  0  0
    1.9734    6.2640   27.2139 H   0  0  0  0  0  0  0  0  0  0  0  0
    1.3271    5.6478   28.7116 H   0  0  0  0  0  0  0  0  0  0  0  0
   -2.6641    2.1861   27.3137 H   0  0  0  0  0  0  0  0  0  0  0  0
   -3.3925    3.4292   26.2794 H   0  0  0  0  0  0  0  0  0  0  0  0
   -2.8631    3.8383   27.9264 H   0  0  0  0  0  0  0  0  0  0  0  0
   -1.6183    2.8815   24.5431 H   0  0  0  0  0  0  0  0  0  0  0  0
    1.6484    3.9631   23.6939 H   0  0  0  0  0  0  0  0  0  0  0  0
    3.3507    1.0667   28.1724 H   0  0  0  0  0  0  0  0  0  0  0  0
   -2.6552   -1.3348   33.3590 H   0  0  0  0  0  0  0  0  0  0  0  0
   -3.7307   -1.8350   32.0416 H   0  0  0  0  0  0  0  0  0  0  0  0
   -2.8081   -0.3093   31.9504 H   0  0  0  0  0  0  0  0  0  0  0  0
   -1.3932   -3.3193   33.3921 H   0  0  0  0  0  0  0  0  0  0  0  0
    0.3060   -4.7496   33.5055 H   0  0  0  0  0  0  0  0  0  0  0  0
  1  2  1  0
  2  3  1  0
  3  4  2  0
  3  5  1  0
  5  6  1  0
  6  7  2  0
  7  8  1  0
  8  9  1  0
  9 10  1  0
 10 11  1  0
 11 12  2  0
 12 13  1  0
 13 14  1  0
 14 15  2  0
 14 16  2  0
 14 17  1  0
 17 18  1  0
 18 19  1  0
 19 20  1  0
 20 21  2  0
 21 22  1  0
 22 23  1  0
 22 24  2  0
 24 25  1  0
 25 26  1  0
 25 27  2  0
 13 28  2  0
 28 29  1  0
  8 30  2  0
 30 31  1  0
 30 32  1  0
 32 33  2  0
 33 34  1  0
 33  6  1  0
 29 11  1  0
 27 20  1  0
  1 35  1  0
  1 36  1  0
  1 37  1  0
  2 38  1  0
  2 39  1  0
  5 40  1  0
  7 41  1  0
  9 42  1  0
 10 43  1  0
 10 44  1  0
 17 45  1  0
 18 46  1  0
 18 47  1  0
 19 48  1  0
 19 49  1  0
 23 50  1  0
 23 51  1  0
 23 52  1  0
 24 53  1  0
 26 54  1  0
 28 55  1  0
 31 56  1  0
 31 57  1  0
 31 58  1  0
 32 59  1  0
 34 60  1  0
M  END
>  <Energy>  (235) 
-2.0008848616084958

>  <compound_id>  (235) 
558

>  <target_id>  (235) 
1

>  <reference_id>  (235) 
57

>  <inspiration_ids>  (235) 
[57, 162]

>  <energy_score>  (235) 
-65.49392829819385

>  <distance_score>  (235) 
1.8180692145643116

>  <path>  (235) 
/opt/xchem-fragalysis-2/maxwin/BulkDock/SCRATCH/505733/C558-P57/C558-P57.minimised.mol

>  <scratch_subdir>  (235) 
/opt/xchem-fragalysis-2/maxwin/BulkDock/SCRATCH/505733/C558-P57

>  <fragmenstein_runtime>  (235) 
9.095129013061523

>  <fragmenstein_outcome>  (235) 
too moved

>  <fragmenstein_mode>  (235) 
expansion

>  <fragmenstein_error>  (235) 


$$$$
C558-P162
     RDKit          3D

 60 62  0  0  0  0  0  0  0  0999 V2000
    4.1353   -5.2629   27.7327 C   0  0  0  0  0  0  0  0  0  0  0  0
    3.2602   -5.2249   28.9749 C   0  0  0  0  0  0  0  0  0  0  0  0
    2.0641   -4.3102   28.8124 C   0  0  0  0  0  0  0  0  0  0  0  0
    1.8413   -3.7315   27.8253 O   0  0  0  0  0  0  0  0  0  0  0  0
    1.2925   -4.3360   30.1589 N   0  0  0  0  0  0  0  0  0  0  0  0
    0.1820   -3.6064   30.5795 C   0  0  0  0  0  0  0  0  0  0  0  0
   -0.4690   -2.6781   29.7641 C   0  0  0  0  0  0  0  0  0  0  0  0
   -1.4145   -1.7748   30.2806 C   0  0  0  0  0  0  0  0  0  0  0  0
   -1.9864   -0.7384   29.5214 N   0  0  0  0  0  0  0  0  0  0  0  0
   -1.3957   -0.3525   28.2254 C   0  0  0  0  0  0  0  0  0  0  0  0
   -0.0883    0.3626   28.3624 C   0  0  0  0  0  0  0  0  0  0  0  0
    0.0416    1.5010   29.0054 N   0  0  0  0  0  0  0  0  0  0  0  0
    1.3986    1.7891   29.1415 C   0  0  0  0  0  0  0  0  0  0  0  0
    2.0138    3.1311   30.0841 S   0  0  0  0  0  0  0  0  0  0  0  0
    2.7102    2.4808   31.1768 O   0  0  0  0  0  0  0  0  0  0  0  0
    0.8803    3.9881   30.3188 O   0  0  0  0  0  0  0  0  0  0  0  0
    3.2304    3.9706   29.2442 N   0  0  0  0  0  0  0  0  0  0  0  0
    3.0365    4.5189   27.8908 C   0  0  0  0  0  0  0  0  0  0  0  0
    1.7465    5.3083   27.6942 C   0  0  0  0  0  0  0  0  0  0  0  0
    0.7442    4.5317   26.8880 C   0  0  0  0  0  0  0  0  0  0  0  0
   -0.4985    4.3124   27.3620 N   0  0  0  0  0  0  0  0  0  0  0  0
   -1.4066    3.7559   26.5234 C   0  0  0  0  0  0  0  0  0  0  0  0
   -2.7980    3.5222   27.0220 C   0  0  0  0  0  0  0  0  0  0  0  0
   -1.0883    3.4134   25.2367 C   0  0  0  0  0  0  0  0  0  0  0  0
    0.2040    3.6658   24.8860 C   0  0  0  0  0  0  0  0  0  0  0  0
    0.6283    3.4162   23.6303 O   0  0  0  0  0  0  0  0  0  0  0  0
    1.1472    4.1951   25.6576 N   0  0  0  0  0  0  0  0  0  0  0  0
    2.2697    0.9036   28.5466 C   0  0  0  0  0  0  0  0  0  0  0  0
    1.3841   -0.3691   27.8688 S   0  0  0  0  0  0  0  0  0  0  0  0
   -1.8468   -1.9782   31.6119 C   0  0  0  0  0  0  0  0  0  0  0  0
   -2.8717   -1.0865   32.2625 C   0  0  0  0  0  0  0  0  0  0  0  0
   -1.2509   -2.9752   32.4091 C   0  0  0  0  0  0  0  0  0  0  0  0
   -0.2276   -3.7615   31.8977 C   0  0  0  0  0  0  0  0  0  0  0  0
    0.4188   -4.6785   32.6854 O   0  0  0  0  0  0  0  0  0  0  0  0
    3.5698   -5.6154   26.8634 H   0  0  0  0  0  0  0  0  0  0  0  0
    4.9836   -5.9370   27.8854 H   0  0  0  0  0  0  0  0  0  0  0  0
    4.5256   -4.2674   27.4962 H   0  0  0  0  0  0  0  0  0  0  0  0
    2.8825   -6.2288   29.1709 H   0  0  0  0  0  0  0  0  0  0  0  0
    3.8532   -4.8732   29.8248 H   0  0  0  0  0  0  0  0  0  0  0  0
    1.7194   -5.0126   30.7815 H   0  0  0  0  0  0  0  0  0  0  0  0
   -0.1878   -2.6411   28.7187 H   0  0  0  0  0  0  0  0  0  0  0  0
   -2.0827    0.1007   30.0913 H   0  0  0  0  0  0  0  0  0  0  0  0
   -2.1001    0.3352   27.7441 H   0  0  0  0  0  0  0  0  0  0  0  0
   -1.3429   -1.2148   27.5562 H   0  0  0  0  0  0  0  0  0  0  0  0
    4.1490    3.5803   29.4501 H   0  0  0  0  0  0  0  0  0  0  0  0
    3.8758    5.2104   27.7396 H   0  0  0  0  0  0  0  0  0  0  0  0
    3.1777    3.7116   27.1640 H   0  0  0  0  0  0  0  0  0  0  0  0
    1.9764    6.2080   27.1077 H   0  0  0  0  0  0  0  0  0  0  0  0
    1.3144    5.6718   28.6297 H   0  0  0  0  0  0  0  0  0  0  0  0
   -2.8915    2.5079   27.4161 H   0  0  0  0  0  0  0  0  0  0  0  0
   -3.5366    3.6691   26.2277 H   0  0  0  0  0  0  0  0  0  0  0  0
   -3.0132    4.2429   27.8146 H   0  0  0  0  0  0  0  0  0  0  0  0
   -1.8136    3.0241   24.5412 H   0  0  0  0  0  0  0  0  0  0  0  0
    1.5352    3.7669   23.6667 H   0  0  0  0  0  0  0  0  0  0  0  0
    3.3495    0.9187   28.5348 H   0  0  0  0  0  0  0  0  0  0  0  0
   -3.3870   -1.6074   33.0769 H   0  0  0  0  0  0  0  0  0  0  0  0
   -2.3840   -0.1951   32.6695 H   0  0  0  0  0  0  0  0  0  0  0  0
   -3.6411   -0.7754   31.5534 H   0  0  0  0  0  0  0  0  0  0  0  0
   -1.5669   -3.0890   33.4435 H   0  0  0  0  0  0  0  0  0  0  0  0
    0.0247   -4.6311   33.5752 H   0  0  0  0  0  0  0  0  0  0  0  0
  1  2  1  0
  2  3  1  0
  3  4  2  0
  3  5  1  0
  5  6  1  0
  6  7  2  0
  7  8  1  0
  8  9  1  0
  9 10  1  0
 10 11  1  0
 11 12  2  0
 12 13  1  0
 13 14  1  0
 14 15  2  0
 14 16  2  0
 14 17  1  0
 17 18  1  0
 18 19  1  0
 19 20  1  0
 20 21  2  0
 21 22  1  0
 22 23  1  0
 22 24  2  0
 24 25  1  0
 25 26  1  0
 25 27  2  0
 13 28  2  0
 28 29  1  0
  8 30  2  0
 30 31  1  0
 30 32  1  0
 32 33  2  0
 33 34  1  0
 33  6  1  0
 29 11  1  0
 27 20  1  0
  1 35  1  0
  1 36  1  0
  1 37  1  0
  2 38  1  0
  2 39  1  0
  5 40  1  0
  7 41  1  0
  9 42  1  0
 10 43  1  0
 10 44  1  0
 17 45  1  0
 18 46  1  0
 18 47  1  0
 19 48  1  0
 19 49  1  0
 23 50  1  0
 23 51  1  0
 23 52  1  0
 24 53  1  0
 26 54  1  0
 28 55  1  0
 31 56  1  0
 31 57  1  0
 31 58  1  0
 32 59  1  0
 34 60  1  0
M  END
>  <Energy>  (236) 
-1.7745434753768059

>  <compound_id>  (236) 
558

>  <target_id>  (236) 
1

>  <reference_id>  (236) 
162

>  <inspiration_ids>  (236) 
[57, 162]

>  <energy_score>  (236) 
-65.26758691196318

>  <distance_score>  (236) 
1.7998623959791094

>  <path>  (236) 
/opt/xchem-fragalysis-2/maxwin/BulkDock/SCRATCH/505733/C558-P162/C558-P162.minimised.mol

>  <scratch_subdir>  (236) 
/opt/xchem-fragalysis-2/maxwin/BulkDock/SCRATCH/505733/C558-P162

>  <fragmenstein_runtime>  (236) 
11.679712533950806

>  <fragmenstein_outcome>  (236) 
too moved

>  <fragmenstein_mode>  (236) 
expansion

>  <fragmenstein_error>  (236) 


$$$$
C561-P57
     RDKit          3D

 67 69  0  0  0  0  0  0  0  0999 V2000
    4.7188    4.8417   28.1742 C   0  0  0  0  0  0  0  0  0  0  0  0
    4.8199    3.8547   27.0239 C   0  0  0  0  0  0  0  0  0  0  0  0
    3.6081    3.9234   26.0997 C   0  0  0  0  0  0  0  0  0  0  0  0
    3.6475    4.3889   25.0297 O   0  0  0  0  0  0  0  0  0  0  0  0
    2.4244    3.2990   26.8795 N   0  0  0  0  0  0  0  0  0  0  0  0
    1.0671    3.2074   26.5515 C   0  0  0  0  0  0  0  0  0  0  0  0
    0.4869    3.5562   25.3327 C   0  0  0  0  0  0  0  0  0  0  0  0
    1.1820    3.9382   24.2256 O   0  0  0  0  0  0  0  0  0  0  0  0
   -0.8936    3.4596   25.1576 C   0  0  0  0  0  0  0  0  0  0  0  0
   -1.7146    3.0692   26.2147 C   0  0  0  0  0  0  0  0  0  0  0  0
   -3.1845    2.8654   26.0087 C   0  0  0  0  0  0  0  0  0  0  0  0
   -1.1339    2.7549   27.4473 C   0  0  0  0  0  0  0  0  0  0  0  0
    0.2536    2.7337   27.6091 C   0  0  0  0  0  0  0  0  0  0  0  0
    0.9236    2.1250   28.7023 N   0  0  0  0  0  0  0  0  0  0  0  0
    0.2137    1.8919   29.9590 C   0  0  0  0  0  0  0  0  0  0  0  0
   -0.5682    0.5561   30.0740 C   0  0  0  0  0  0  0  0  0  0  0  0
    0.3818   -0.6463   30.0516 C   0  0  0  0  0  0  0  0  0  0  0  0
   -0.4109   -1.8858   30.0324 N   0  0  0  0  0  0  0  0  0  0  0  0
   -0.7669   -2.5854   31.5009 S   0  0  0  0  0  0  0  0  0  0  0  0
   -0.8144   -1.5817   32.5335 O   0  0  0  0  0  0  0  0  0  0  0  0
   -1.7838   -3.6013   31.3701 O   0  0  0  0  0  0  0  0  0  0  0  0
    0.7102   -3.3742   31.6373 N   0  0  0  0  0  0  0  0  0  0  0  0
    1.0176   -4.2862   30.5007 C   0  0  0  0  0  0  0  0  0  0  0  0
    1.9177   -5.4242   30.9325 C   0  0  0  0  0  0  0  0  0  0  0  0
    1.1944   -6.2264   31.9669 C   0  0  0  0  0  0  0  0  0  0  0  0
    0.1789   -6.9899   31.5509 N   0  0  0  0  0  0  0  0  0  0  0  0
   -0.5979   -7.5206   32.5113 C   0  0  0  0  0  0  0  0  0  0  0  0
   -1.7306   -8.3443   32.0313 C   0  0  0  0  0  0  0  0  0  0  0  0
   -0.3813   -7.3248   33.8567 C   0  0  0  0  0  0  0  0  0  0  0  0
    0.7009   -6.5493   34.1635 C   0  0  0  0  0  0  0  0  0  0  0  0
    1.0579   -6.3006   35.4535 O   0  0  0  0  0  0  0  0  0  0  0  0
    1.4955   -5.9831   33.2513 N   0  0  0  0  0  0  0  0  0  0  0  0
   -1.3684   -1.9767   28.9141 C   0  0  0  0  0  0  0  0  0  0  0  0
   -1.5068   -0.6300   28.2008 C   0  0  0  0  0  0  0  0  0  0  0  0
   -1.6684    0.4323   29.1525 O   0  0  0  0  0  0  0  0  0  0  0  0
    3.8894    4.6026   28.8466 H   0  0  0  0  0  0  0  0  0  0  0  0
    4.5602    5.8589   27.8012 H   0  0  0  0  0  0  0  0  0  0  0  0
    5.6413    4.8322   28.7630 H   0  0  0  0  0  0  0  0  0  0  0  0
    5.7128    4.0807   26.4311 H   0  0  0  0  0  0  0  0  0  0  0  0
    4.9354    2.8310   27.3966 H   0  0  0  0  0  0  0  0  0  0  0  0
    2.7236    3.0654   27.8203 H   0  0  0  0  0  0  0  0  0  0  0  0
    2.0979    4.1767   24.4728 H   0  0  0  0  0  0  0  0  0  0  0  0
   -1.3262    3.7049   24.1895 H   0  0  0  0  0  0  0  0  0  0  0  0
   -3.3618    1.8567   25.6282 H   0  0  0  0  0  0  0  0  0  0  0  0
   -3.5903    3.5955   25.3022 H   0  0  0  0  0  0  0  0  0  0  0  0
   -3.7242    2.9632   26.9513 H   0  0  0  0  0  0  0  0  0  0  0  0
   -1.8017    2.4783   28.2532 H   0  0  0  0  0  0  0  0  0  0  0  0
    1.3688    1.2842   28.3380 H   0  0  0  0  0  0  0  0  0  0  0  0
    0.9733    1.8958   30.7512 H   0  0  0  0  0  0  0  0  0  0  0  0
   -0.4084    2.7620   30.1660 H   0  0  0  0  0  0  0  0  0  0  0  0
   -1.0466    0.5779   31.0603 H   0  0  0  0  0  0  0  0  0  0  0  0
    1.0703   -0.6187   30.9037 H   0  0  0  0  0  0  0  0  0  0  0  0
    1.0195   -0.6520   29.1599 H   0  0  0  0  0  0  0  0  0  0  0  0
    0.7468   -3.8239   32.5587 H   0  0  0  0  0  0  0  0  0  0  0  0
    1.5276   -3.7071   29.7224 H   0  0  0  0  0  0  0  0  0  0  0  0
    0.1003   -4.6944   30.0611 H   0  0  0  0  0  0  0  0  0  0  0  0
    2.1549   -6.0524   30.0683 H   0  0  0  0  0  0  0  0  0  0  0  0
    2.8618   -5.0452   31.3399 H   0  0  0  0  0  0  0  0  0  0  0  0
   -1.3566   -9.2354   31.5242 H   0  0  0  0  0  0  0  0  0  0  0  0
   -2.3134   -7.7401   31.3413 H   0  0  0  0  0  0  0  0  0  0  0  0
   -2.3756   -8.6362   32.8554 H   0  0  0  0  0  0  0  0  0  0  0  0
   -1.0112   -7.7739   34.6105 H   0  0  0  0  0  0  0  0  0  0  0  0
    0.4096   -6.7149   36.0426 H   0  0  0  0  0  0  0  0  0  0  0  0
   -2.3360   -2.2867   29.2997 H   0  0  0  0  0  0  0  0  0  0  0  0
   -1.0204   -2.7412   28.2149 H   0  0  0  0  0  0  0  0  0  0  0  0
   -2.3799   -0.6397   27.5434 H   0  0  0  0  0  0  0  0  0  0  0  0
   -0.6360   -0.4170   27.5703 H   0  0  0  0  0  0  0  0  0  0  0  0
  1  2  1  0
  2  3  1  0
  3  4  2  0
  3  5  1  0
  5  6  1  0
  6  7  2  0
  7  8  1  0
  7  9  1  0
  9 10  2  0
 10 11  1  0
 10 12  1  0
 12 13  2  0
 13 14  1  0
 14 15  1  0
 15 16  1  0
 16 17  1  0
 17 18  1  0
 18 19  1  0
 19 20  2  0
 19 21  2  0
 19 22  1  0
 22 23  1  0
 23 24  1  0
 24 25  1  0
 25 26  2  0
 26 27  1  0
 27 28  1  0
 27 29  2  0
 29 30  1  0
 30 31  1  0
 30 32  2  0
 18 33  1  0
 33 34  1  0
 34 35  1  0
 13  6  1  0
 35 16  1  0
 32 25  1  0
  1 36  1  0
  1 37  1  0
  1 38  1  0
  2 39  1  0
  2 40  1  0
  5 41  1  0
  8 42  1  0
  9 43  1  0
 11 44  1  0
 11 45  1  0
 11 46  1  0
 12 47  1  0
 14 48  1  0
 15 49  1  0
 15 50  1  0
 16 51  1  0
 17 52  1  0
 17 53  1  0
 22 54  1  0
 23 55  1  0
 23 56  1  0
 24 57  1  0
 24 58  1  0
 28 59  1  0
 28 60  1  0
 28 61  1  0
 29 62  1  0
 31 63  1  0
 33 64  1  0
 33 65  1  0
 34 66  1  0
 34 67  1  0
M  END
>  <Energy>  (237) 
-107.41092892761991

>  <compound_id>  (237) 
561

>  <target_id>  (237) 
1

>  <reference_id>  (237) 
57

>  <inspiration_ids>  (237) 
[57, 186]

>  <energy_score>  (237) 
-58.14072676842355

>  <distance_score>  (237) 
1.2181127085311414

>  <path>  (237) 
/opt/xchem-fragalysis-2/maxwin/BulkDock/SCRATCH/505733/C561-P57/C561-P57.minimised.mol

>  <scratch_subdir>  (237) 
/opt/xchem-fragalysis-2/maxwin/BulkDock/SCRATCH/505733/C561-P57

>  <fragmenstein_runtime>  (237) 
6.632487058639526

>  <fragmenstein_outcome>  (237) 
too moved

>  <fragmenstein_mode>  (237) 
expansion

>  <fragmenstein_error>  (237) 


$$$$
C561-P186
     RDKit          3D

 67 69  0  0  0  0  0  0  0  0999 V2000
    6.3236    3.9646   28.8505 C   0  0  0  0  0  0  0  0  0  0  0  0
    6.0100    2.9536   27.7564 C   0  0  0  0  0  0  0  0  0  0  0  0
    4.8365    3.4834   26.9617 C   0  0  0  0  0  0  0  0  0  0  0  0
    4.9461    3.9929   25.9165 O   0  0  0  0  0  0  0  0  0  0  0  0
    3.5881    3.2924   27.8598 N   0  0  0  0  0  0  0  0  0  0  0  0
    2.2821    3.7563   27.7061 C   0  0  0  0  0  0  0  0  0  0  0  0
    1.8954    4.6619   26.7165 C   0  0  0  0  0  0  0  0  0  0  0  0
    2.5384    4.8841   25.5365 O   0  0  0  0  0  0  0  0  0  0  0  0
    0.7550    5.4218   26.8988 C   0  0  0  0  0  0  0  0  0  0  0  0
   -0.1139    5.1414   27.9588 C   0  0  0  0  0  0  0  0  0  0  0  0
   -1.4764    5.7632   27.9675 C   0  0  0  0  0  0  0  0  0  0  0  0
    0.2228    4.1543   28.8880 C   0  0  0  0  0  0  0  0  0  0  0  0
    1.4059    3.4295   28.7769 C   0  0  0  0  0  0  0  0  0  0  0  0
    1.8213    2.4318   29.6983 N   0  0  0  0  0  0  0  0  0  0  0  0
    0.9804    2.0461   30.8428 C   0  0  0  0  0  0  0  0  0  0  0  0
   -0.0461    0.9228   30.5574 C   0  0  0  0  0  0  0  0  0  0  0  0
    0.6204   -0.4588   30.4295 C   0  0  0  0  0  0  0  0  0  0  0  0
   -0.4173   -1.5254   30.2670 N   0  0  0  0  0  0  0  0  0  0  0  0
   -0.7756   -2.4241   31.6364 S   0  0  0  0  0  0  0  0  0  0  0  0
   -0.7802   -1.5498   32.7813 O   0  0  0  0  0  0  0  0  0  0  0  0
   -1.8622   -3.3374   31.3649 O   0  0  0  0  0  0  0  0  0  0  0  0
    0.6476   -3.3009   31.6431 N   0  0  0  0  0  0  0  0  0  0  0  0
    0.8427   -4.1588   30.4401 C   0  0  0  0  0  0  0  0  0  0  0  0
    1.7251   -5.3460   30.7665 C   0  0  0  0  0  0  0  0  0  0  0  0
    1.0485   -6.1622   31.8248 C   0  0  0  0  0  0  0  0  0  0  0  0
    0.0530   -6.9691   31.4438 N   0  0  0  0  0  0  0  0  0  0  0  0
   -0.6746   -7.5223   32.4300 C   0  0  0  0  0  0  0  0  0  0  0  0
   -1.7676   -8.4235   31.9962 C   0  0  0  0  0  0  0  0  0  0  0  0
   -0.4378   -7.2963   33.7689 C   0  0  0  0  0  0  0  0  0  0  0  0
    0.6182   -6.4735   34.0400 C   0  0  0  0  0  0  0  0  0  0  0  0
    0.9954   -6.1922   35.3171 O   0  0  0  0  0  0  0  0  0  0  0  0
    1.3724   -5.8956   33.1010 N   0  0  0  0  0  0  0  0  0  0  0  0
   -1.5870   -1.0664   29.5023 C   0  0  0  0  0  0  0  0  0  0  0  0
   -1.2224    0.1275   28.6380 C   0  0  0  0  0  0  0  0  0  0  0  0
   -0.8618    1.2602   29.4265 O   0  0  0  0  0  0  0  0  0  0  0  0
    6.4881    4.9628   28.4306 H   0  0  0  0  0  0  0  0  0  0  0  0
    7.2328    3.6670   29.3827 H   0  0  0  0  0  0  0  0  0  0  0  0
    5.5193    4.0421   29.5885 H   0  0  0  0  0  0  0  0  0  0  0  0
    6.8673    2.8396   27.0845 H   0  0  0  0  0  0  0  0  0  0  0  0
    5.7816    1.9669   28.1718 H   0  0  0  0  0  0  0  0  0  0  0  0
    3.8657    2.8786   28.7421 H   0  0  0  0  0  0  0  0  0  0  0  0
    3.3509    4.3447   25.5121 H   0  0  0  0  0  0  0  0  0  0  0  0
    0.4879    6.1540   26.1394 H   0  0  0  0  0  0  0  0  0  0  0  0
   -1.5039    6.5893   28.6825 H   0  0  0  0  0  0  0  0  0  0  0  0
   -2.2410    5.0170   28.2002 H   0  0  0  0  0  0  0  0  0  0  0  0
   -1.7033    6.1995   26.9894 H   0  0  0  0  0  0  0  0  0  0  0  0
   -0.4741    3.9497   29.6806 H   0  0  0  0  0  0  0  0  0  0  0  0
    2.1257    1.6326   29.1425 H   0  0  0  0  0  0  0  0  0  0  0  0
    1.6544    1.7035   31.6376 H   0  0  0  0  0  0  0  0  0  0  0  0
    0.4753    2.9224   31.2631 H   0  0  0  0  0  0  0  0  0  0  0  0
   -0.7226    0.8896   31.4213 H   0  0  0  0  0  0  0  0  0  0  0  0
    1.2609   -0.6607   31.2948 H   0  0  0  0  0  0  0  0  0  0  0  0
    1.2716   -0.5024   29.5479 H   0  0  0  0  0  0  0  0  0  0  0  0
    0.7071   -3.8128   32.5313 H   0  0  0  0  0  0  0  0  0  0  0  0
    1.3199   -3.5576   29.6584 H   0  0  0  0  0  0  0  0  0  0  0  0
   -0.1151   -4.5171   30.0465 H   0  0  0  0  0  0  0  0  0  0  0  0
    1.8847   -5.9494   29.8673 H   0  0  0  0  0  0  0  0  0  0  0  0
    2.7038   -5.0075   31.1236 H   0  0  0  0  0  0  0  0  0  0  0  0
   -1.3559   -9.2858   31.4693 H   0  0  0  0  0  0  0  0  0  0  0  0
   -2.4327   -7.8791   31.3343 H   0  0  0  0  0  0  0  0  0  0  0  0
   -2.3403   -8.7519   32.8601 H   0  0  0  0  0  0  0  0  0  0  0  0
   -1.0284   -7.7637   34.5436 H   0  0  0  0  0  0  0  0  0  0  0  0
    0.3180   -6.5229   35.9268 H   0  0  0  0  0  0  0  0  0  0  0  0
   -2.3603   -0.7545   30.2110 H   0  0  0  0  0  0  0  0  0  0  0  0
   -1.9382   -1.8887   28.8730 H   0  0  0  0  0  0  0  0  0  0  0  0
   -2.0891    0.4130   28.0521 H   0  0  0  0  0  0  0  0  0  0  0  0
   -0.4028   -0.1049   27.9494 H   0  0  0  0  0  0  0  0  0  0  0  0
  1  2  1  0
  2  3  1  0
  3  4  2  0
  3  5  1  0
  5  6  1  0
  6  7  2  0
  7  8  1  0
  7  9  1  0
  9 10  2  0
 10 11  1  0
 10 12  1  0
 12 13  2  0
 13 14  1  0
 14 15  1  0
 15 16  1  0
 16 17  1  0
 17 18  1  0
 18 19  1  0
 19 20  2  0
 19 21  2  0
 19 22  1  0
 22 23  1  0
 23 24  1  0
 24 25  1  0
 25 26  2  0
 26 27  1  0
 27 28  1  0
 27 29  2  0
 29 30  1  0
 30 31  1  0
 30 32  2  0
 18 33  1  0
 33 34  1  0
 34 35  1  0
 13  6  1  0
 35 16  1  0
 32 25  1  0
  1 36  1  0
  1 37  1  0
  1 38  1  0
  2 39  1  0
  2 40  1  0
  5 41  1  0
  8 42  1  0
  9 43  1  0
 11 44  1  0
 11 45  1  0
 11 46  1  0
 12 47  1  0
 14 48  1  0
 15 49  1  0
 15 50  1  0
 16 51  1  0
 17 52  1  0
 17 53  1  0
 22 54  1  0
 23 55  1  0
 23 56  1  0
 24 57  1  0
 24 58  1  0
 28 59  1  0
 28 60  1  0
 28 61  1  0
 29 62  1  0
 31 63  1  0
 33 64  1  0
 33 65  1  0
 34 66  1  0
 34 67  1  0
M  END
>  <Energy>  (238) 
-110.48895142801526

>  <compound_id>  (238) 
561

>  <target_id>  (238) 
1

>  <reference_id>  (238) 
186

>  <inspiration_ids>  (238) 
[57, 186]

>  <energy_score>  (238) 
-61.21874926881659

>  <distance_score>  (238) 
2.0474138185067186

>  <path>  (238) 
/opt/xchem-fragalysis-2/maxwin/BulkDock/SCRATCH/505733/C561-P186/C561-P186.minimised.mol

>  <scratch_subdir>  (238) 
/opt/xchem-fragalysis-2/maxwin/BulkDock/SCRATCH/505733/C561-P186

>  <fragmenstein_runtime>  (238) 
18.000118017196655

>  <fragmenstein_outcome>  (238) 
too moved

>  <fragmenstein_mode>  (238) 
expansion

>  <fragmenstein_error>  (238) 


$$$$
C562-P57
     RDKit          3D

 47 48  0  0  0  0  0  0  0  0999 V2000
    3.3704   -6.3191   27.8283 C   0  0  0  0  0  0  0  0  0  0  0  0
    2.3518   -6.9935   28.5736 O   0  0  0  0  0  0  0  0  0  0  0  0
    1.8598   -6.1523   29.6375 C   0  0  0  0  0  0  0  0  0  0  0  0
    0.6360   -6.7906   30.3286 C   0  0  0  0  0  0  0  0  0  0  0  0
    0.4317   -6.5038   31.7353 N   0  0  0  0  0  0  0  0  0  0  0  0
   -0.2460   -7.3521   32.5864 C   0  0  0  0  0  0  0  0  0  0  0  0
   -0.2465   -6.7697   33.8260 C   0  0  0  0  0  0  0  0  0  0  0  0
   -0.9591   -7.3923   35.4315 Br  0  0  0  0  0  0  0  0  0  0  0  0
    0.3780   -5.5231   33.7291 C   0  0  0  0  0  0  0  0  0  0  0  0
    0.7182   -5.3322   32.4015 C   0  0  0  0  0  0  0  0  0  0  0  0
    1.2323   -4.0824   31.7795 C   0  0  0  0  0  0  0  0  0  0  0  0
    0.2074   -3.4803   30.9377 N   0  0  0  0  0  0  0  0  0  0  0  0
   -0.7342   -2.7279   31.7533 C   0  0  0  0  0  0  0  0  0  0  0  0
   -1.8180   -2.2646   30.9569 O   0  0  0  0  0  0  0  0  0  0  0  0
   -1.6277   -1.0453   30.3881 C   0  0  0  0  0  0  0  0  0  0  0  0
   -2.4612   -0.1562   30.5270 O   0  0  0  0  0  0  0  0  0  0  0  0
   -0.3618   -0.9282   29.5396 C   0  0  0  0  0  0  0  0  0  0  0  0
   -0.4817    0.1978   28.6598 N   0  0  0  0  0  0  0  0  0  0  0  0
    0.1621    1.5939   28.7293 C   0  0  0  0  0  0  0  0  0  0  0  0
    0.9513    2.0251   29.4692 O   0  0  0  0  0  0  0  0  0  0  0  0
   -0.4256    2.3990   27.6540 C   0  0  0  0  0  0  0  0  0  0  0  0
   -1.8085    2.5438   27.3833 C   0  0  0  0  0  0  0  0  0  0  0  0
   -1.8539    3.1657   26.1675 C   0  0  0  0  0  0  0  0  0  0  0  0
   -2.9523    3.5038   25.2512 C   0  0  0  0  0  0  0  0  0  0  0  0
   -0.5876    3.4715   25.7710 O   0  0  0  0  0  0  0  0  0  0  0  0
    0.3179    2.9976   26.7107 N   0  0  0  0  0  0  0  0  0  0  0  0
    3.7046   -6.9853   27.0286 H   0  0  0  0  0  0  0  0  0  0  0  0
    2.9760   -5.4033   27.3778 H   0  0  0  0  0  0  0  0  0  0  0  0
    4.2222   -6.0892   28.4752 H   0  0  0  0  0  0  0  0  0  0  0  0
    1.5820   -5.1815   29.2139 H   0  0  0  0  0  0  0  0  0  0  0  0
    2.6858   -6.0079   30.3390 H   0  0  0  0  0  0  0  0  0  0  0  0
    0.6710   -7.8797   30.2174 H   0  0  0  0  0  0  0  0  0  0  0  0
   -0.2904   -6.4531   29.8547 H   0  0  0  0  0  0  0  0  0  0  0  0
   -0.6481   -8.2975   32.2467 H   0  0  0  0  0  0  0  0  0  0  0  0
    0.5022   -4.7945   34.5218 H   0  0  0  0  0  0  0  0  0  0  0  0
    2.1457   -4.2423   31.2090 H   0  0  0  0  0  0  0  0  0  0  0  0
    1.5449   -3.3779   32.5629 H   0  0  0  0  0  0  0  0  0  0  0  0
   -0.3195   -4.1923   30.4409 H   0  0  0  0  0  0  0  0  0  0  0  0
   -1.1852   -3.3523   32.5313 H   0  0  0  0  0  0  0  0  0  0  0  0
   -0.2463   -1.8832   32.2572 H   0  0  0  0  0  0  0  0  0  0  0  0
   -0.2553   -1.8087   28.9018 H   0  0  0  0  0  0  0  0  0  0  0  0
    0.5090   -0.7744   30.1801 H   0  0  0  0  0  0  0  0  0  0  0  0
   -1.0714    0.1370   27.8345 H   0  0  0  0  0  0  0  0  0  0  0  0
   -2.6450    2.1729   27.9557 H   0  0  0  0  0  0  0  0  0  0  0  0
   -3.0261    4.5858   25.1186 H   0  0  0  0  0  0  0  0  0  0  0  0
   -3.9105    3.1249   25.6175 H   0  0  0  0  0  0  0  0  0  0  0  0
   -2.7660    3.0643   24.2670 H   0  0  0  0  0  0  0  0  0  0  0  0
  1  2  1  0
  2  3  1  0
  3  4  1  0
  4  5  1  0
  5  6  1  0
  6  7  2  0
  7  8  1  0
  7  9  1  0
  9 10  2  0
 10 11  1  0
 11 12  1  0
 12 13  1  0
 13 14  1  0
 14 15  1  0
 15 16  2  0
 15 17  1  0
 17 18  1  0
 18 19  1  0
 19 20  2  0
 19 21  1  0
 21 22  1  0
 22 23  2  0
 23 24  1  0
 23 25  1  0
 25 26  1  0
 10  5  1  0
 26 21  2  0
  1 27  1  0
  1 28  1  0
  1 29  1  0
  3 30  1  0
  3 31  1  0
  4 32  1  0
  4 33  1  0
  6 34  1  0
  9 35  1  0
 11 36  1  0
 11 37  1  0
 12 38  1  0
 13 39  1  0
 13 40  1  0
 17 41  1  0
 17 42  1  0
 18 43  1  0
 22 44  1  0
 24 45  1  0
 24 46  1  0
 24 47  1  0
M  END
>  <Energy>  (239) 
40.296769502094087

>  <compound_id>  (239) 
562

>  <target_id>  (239) 
1

>  <reference_id>  (239) 
57

>  <inspiration_ids>  (239) 
[57, 187]

>  <energy_score>  (239) 
-7.505624570146665

>  <distance_score>  (239) 
1.3181829737147968

>  <path>  (239) 
/opt/xchem-fragalysis-2/maxwin/BulkDock/SCRATCH/505733/C562-P57/C562-P57.minimised.mol

>  <scratch_subdir>  (239) 
/opt/xchem-fragalysis-2/maxwin/BulkDock/SCRATCH/505733/C562-P57

>  <fragmenstein_runtime>  (239) 
6.07015061378479

>  <fragmenstein_outcome>  (239) 
too moved

>  <fragmenstein_mode>  (239) 
expansion

>  <fragmenstein_error>  (239) 


$$$$
C562-P187
     RDKit          3D

 47 48  0  0  0  0  0  0  0  0999 V2000
   -0.2771   -8.7866   30.0854 C   0  0  0  0  0  0  0  0  0  0  0  0
   -0.9639   -7.6457   29.6267 O   0  0  0  0  0  0  0  0  0  0  0  0
   -0.3205   -6.4713   30.1239 C   0  0  0  0  0  0  0  0  0  0  0  0
   -0.8549   -6.1386   31.4983 C   0  0  0  0  0  0  0  0  0  0  0  0
    0.1765   -6.1809   32.4993 N   0  0  0  0  0  0  0  0  0  0  0  0
    0.0749   -6.9548   33.6250 C   0  0  0  0  0  0  0  0  0  0  0  0
    1.1096   -6.5939   34.4384 C   0  0  0  0  0  0  0  0  0  0  0  0
    1.4769   -7.2135   36.1634 Br  0  0  0  0  0  0  0  0  0  0  0  0
    1.8916   -5.6354   33.7686 C   0  0  0  0  0  0  0  0  0  0  0  0
    1.3115   -5.3918   32.5319 C   0  0  0  0  0  0  0  0  0  0  0  0
    1.8081   -4.4929   31.4199 C   0  0  0  0  0  0  0  0  0  0  0  0
    0.7310   -3.7573   30.7706 N   0  0  0  0  0  0  0  0  0  0  0  0
    1.1409   -3.1472   29.5127 C   0  0  0  0  0  0  0  0  0  0  0  0
    1.4130   -1.7568   29.6491 O   0  0  0  0  0  0  0  0  0  0  0  0
    2.7214   -1.3937   29.6604 C   0  0  0  0  0  0  0  0  0  0  0  0
    3.6552   -2.1769   29.8010 O   0  0  0  0  0  0  0  0  0  0  0  0
    2.8950    0.1248   29.5869 C   0  0  0  0  0  0  0  0  0  0  0  0
    1.8636    0.8038   28.8356 N   0  0  0  0  0  0  0  0  0  0  0  0
    0.4380    1.2132   29.2407 C   0  0  0  0  0  0  0  0  0  0  0  0
   -0.1600    1.0009   30.2185 O   0  0  0  0  0  0  0  0  0  0  0  0
   -0.1896    1.9414   28.1178 C   0  0  0  0  0  0  0  0  0  0  0  0
   -1.5717    2.1519   27.9056 C   0  0  0  0  0  0  0  0  0  0  0  0
   -1.6548    2.7682   26.6868 C   0  0  0  0  0  0  0  0  0  0  0  0
   -2.7838    3.1740   25.8322 C   0  0  0  0  0  0  0  0  0  0  0  0
   -0.3971    2.9932   26.2162 O   0  0  0  0  0  0  0  0  0  0  0  0
    0.5306    2.4716   27.1091 N   0  0  0  0  0  0  0  0  0  0  0  0
   -0.7755   -9.6849   29.7380 H   0  0  0  0  0  0  0  0  0  0  0  0
    0.7267   -8.7749   29.6592 H   0  0  0  0  0  0  0  0  0  0  0  0
   -0.2800   -8.8012   31.1755 H   0  0  0  0  0  0  0  0  0  0  0  0
   -0.5631   -5.6511   29.4471 H   0  0  0  0  0  0  0  0  0  0  0  0
    0.7650   -6.6007   30.0703 H   0  0  0  0  0  0  0  0  0  0  0  0
   -1.6420   -6.8388   31.7960 H   0  0  0  0  0  0  0  0  0  0  0  0
   -1.2779   -5.1304   31.5406 H   0  0  0  0  0  0  0  0  0  0  0  0
   -0.7425   -7.6493   33.7814 H   0  0  0  0  0  0  0  0  0  0  0  0
    2.7909   -5.1591   34.1393 H   0  0  0  0  0  0  0  0  0  0  0  0
    2.3447   -5.1269   30.7037 H   0  0  0  0  0  0  0  0  0  0  0  0
    2.5392   -3.7863   31.8310 H   0  0  0  0  0  0  0  0  0  0  0  0
    0.4183   -3.0076   31.3879 H   0  0  0  0  0  0  0  0  0  0  0  0
    1.9465   -3.6907   29.0023 H   0  0  0  0  0  0  0  0  0  0  0  0
    0.2824   -3.2086   28.8347 H   0  0  0  0  0  0  0  0  0  0  0  0
    2.8881    0.5160   30.6080 H   0  0  0  0  0  0  0  0  0  0  0  0
    3.8493    0.3456   29.1010 H   0  0  0  0  0  0  0  0  0  0  0  0
    2.0980    1.2300   27.9402 H   0  0  0  0  0  0  0  0  0  0  0  0
   -2.3916    1.8314   28.5258 H   0  0  0  0  0  0  0  0  0  0  0  0
   -2.7056    2.6885   24.8560 H   0  0  0  0  0  0  0  0  0  0  0  0
   -2.7691    4.2539   25.6689 H   0  0  0  0  0  0  0  0  0  0  0  0
   -3.7427    2.8957   26.2784 H   0  0  0  0  0  0  0  0  0  0  0  0
  1  2  1  0
  2  3  1  0
  3  4  1  0
  4  5  1  0
  5  6  1  0
  6  7  2  0
  7  8  1  0
  7  9  1  0
  9 10  2  0
 10 11  1  0
 11 12  1  0
 12 13  1  0
 13 14  1  0
 14 15  1  0
 15 16  2  0
 15 17  1  0
 17 18  1  0
 18 19  1  0
 19 20  2  0
 19 21  1  0
 21 22  1  0
 22 23  2  0
 23 24  1  0
 23 25  1  0
 25 26  1  0
 10  5  1  0
 26 21  2  0
  1 27  1  0
  1 28  1  0
  1 29  1  0
  3 30  1  0
  3 31  1  0
  4 32  1  0
  4 33  1  0
  6 34  1  0
  9 35  1  0
 11 36  1  0
 11 37  1  0
 12 38  1  0
 13 39  1  0
 13 40  1  0
 17 41  1  0
 17 42  1  0
 18 43  1  0
 22 44  1  0
 24 45  1  0
 24 46  1  0
 24 47  1  0
M  END
>  <Energy>  (240) 
21.767781333151706

>  <compound_id>  (240) 
562

>  <target_id>  (240) 
1

>  <reference_id>  (240) 
187

>  <inspiration_ids>  (240) 
[57, 187]

>  <energy_score>  (240) 
-26.034612739090306

>  <distance_score>  (240) 
2.5805181578448857

>  <path>  (240) 
/opt/xchem-fragalysis-2/maxwin/BulkDock/SCRATCH/505733/C562-P187/C562-P187.minimised.mol

>  <scratch_subdir>  (240) 
/opt/xchem-fragalysis-2/maxwin/BulkDock/SCRATCH/505733/C562-P187

>  <fragmenstein_runtime>  (240) 
10.481709480285645

>  <fragmenstein_outcome>  (240) 
too moved

>  <fragmenstein_mode>  (240) 
expansion

>  <fragmenstein_error>  (240) 


$$$$
C567-P57
     RDKit          3D

 44 45  0  0  0  0  0  0  0  0999 V2000
    3.5480   -4.0606   31.7309 C   0  0  0  0  0  0  0  0  0  0  0  0
    2.4796   -3.5074   30.9658 O   0  0  0  0  0  0  0  0  0  0  0  0
    1.9565   -4.3399   30.0251 C   0  0  0  0  0  0  0  0  0  0  0  0
    2.3561   -5.4826   29.8068 O   0  0  0  0  0  0  0  0  0  0  0  0
    0.8198   -3.6898   29.2404 C   0  0  0  0  0  0  0  0  0  0  0  0
    0.4642   -2.3547   29.6426 N   0  0  0  0  0  0  0  0  0  0  0  0
   -0.6625   -1.8537   30.5731 C   0  0  0  0  0  0  0  0  0  0  0  0
   -1.4306   -2.4495   31.2200 O   0  0  0  0  0  0  0  0  0  0  0  0
   -0.7071   -0.3013   30.4403 C   0  0  0  0  0  0  0  0  0  0  0  0
   -1.8053    0.0914   29.4893 C   0  0  0  0  0  0  0  0  0  0  0  0
   -1.1518    0.8186   28.3131 C   0  0  0  0  0  0  0  0  0  0  0  0
   -1.5927    0.0508   27.0693 C   0  0  0  0  0  0  0  0  0  0  0  0
   -1.4620    2.2683   28.2946 N   0  0  0  0  0  0  0  0  0  0  0  0
   -2.2257    2.8016   27.1572 C   0  0  0  0  0  0  0  0  0  0  0  0
   -1.3820    3.2741   25.9623 C   0  0  0  0  0  0  0  0  0  0  0  0
    0.1161    3.0592   26.1515 C   0  0  0  0  0  0  0  0  0  0  0  0
    0.8567    3.6937   25.1116 O   0  0  0  0  0  0  0  0  0  0  0  0
    0.6167    3.4975   27.5184 C   0  0  0  0  0  0  0  0  0  0  0  0
   -0.3957    3.2168   28.6290 C   0  0  0  0  0  0  0  0  0  0  0  0
    0.2580    0.5466   28.4788 O   0  0  0  0  0  0  0  0  0  0  0  0
    0.5461    0.2295   29.8839 N   0  0  0  0  0  0  0  0  0  0  0  0
    4.3904   -4.3187   31.0817 H   0  0  0  0  0  0  0  0  0  0  0  0
    3.2048   -4.9379   32.2881 H   0  0  0  0  0  0  0  0  0  0  0  0
    3.8813   -3.3042   32.4467 H   0  0  0  0  0  0  0  0  0  0  0  0
    1.1127   -3.6431   28.1894 H   0  0  0  0  0  0  0  0  0  0  0  0
   -0.0695   -4.3122   29.3695 H   0  0  0  0  0  0  0  0  0  0  0  0
    0.8929   -1.5574   29.1657 H   0  0  0  0  0  0  0  0  0  0  0  0
   -0.8627    0.1033   31.4463 H   0  0  0  0  0  0  0  0  0  0  0  0
   -2.5620    0.6961   29.9811 H   0  0  0  0  0  0  0  0  0  0  0  0
   -2.3441   -0.7983   29.1496 H   0  0  0  0  0  0  0  0  0  0  0  0
   -1.2444   -0.9853   27.1275 H   0  0  0  0  0  0  0  0  0  0  0  0
   -1.1622    0.4763   26.1745 H   0  0  0  0  0  0  0  0  0  0  0  0
   -2.6729    0.0312   26.9452 H   0  0  0  0  0  0  0  0  0  0  0  0
   -2.7724    3.6788   27.5270 H   0  0  0  0  0  0  0  0  0  0  0  0
   -3.0302    2.1347   26.8308 H   0  0  0  0  0  0  0  0  0  0  0  0
   -1.5779    4.3390   25.7805 H   0  0  0  0  0  0  0  0  0  0  0  0
   -1.7061    2.7597   25.0491 H   0  0  0  0  0  0  0  0  0  0  0  0
    0.3373    1.9970   26.0583 H   0  0  0  0  0  0  0  0  0  0  0  0
    0.6149    4.6367   25.1120 H   0  0  0  0  0  0  0  0  0  0  0  0
    0.8670    4.5658   27.5099 H   0  0  0  0  0  0  0  0  0  0  0  0
    1.5596    2.9773   27.7292 H   0  0  0  0  0  0  0  0  0  0  0  0
    0.1135    2.9577   29.5610 H   0  0  0  0  0  0  0  0  0  0  0  0
   -0.8740    4.1758   28.8626 H   0  0  0  0  0  0  0  0  0  0  0  0
    0.7227    1.1600   30.2629 H   0  0  0  0  0  0  0  0  0  0  0  0
  1  2  1  0
  2  3  1  0
  3  4  2  0
  3  5  1  0
  5  6  1  0
  6  7  1  0
  7  8  2  0
  7  9  1  0
  9 10  1  0
 10 11  1  0
 11 12  1  0
 11 13  1  0
 13 14  1  0
 14 15  1  0
 15 16  1  0
 16 17  1  0
 16 18  1  0
 18 19  1  0
 11 20  1  0
 20 21  1  0
 21  9  1  0
 19 13  1  0
  1 22  1  0
  1 23  1  0
  1 24  1  0
  5 25  1  0
  5 26  1  0
  6 27  1  0
  9 28  1  0
 10 29  1  0
 10 30  1  0
 12 31  1  0
 12 32  1  0
 12 33  1  0
 14 34  1  0
 14 35  1  0
 15 36  1  0
 15 37  1  0
 16 38  1  0
 17 39  1  0
 18 40  1  0
 18 41  1  0
 19 42  1  0
 19 43  1  0
 21 44  1  0
M  END
>  <Energy>  (241) 
89.733560971772562

>  <compound_id>  (241) 
567

>  <target_id>  (241) 
1

>  <reference_id>  (241) 
57

>  <inspiration_ids>  (241) 
[57, 195]

>  <energy_score>  (241) 
-30.862825551130584

>  <distance_score>  (241) 
1.4834696900749145

>  <path>  (241) 
/opt/xchem-fragalysis-2/maxwin/BulkDock/SCRATCH/505733/C567-P57/C567-P57.minimised.mol

>  <scratch_subdir>  (241) 
/opt/xchem-fragalysis-2/maxwin/BulkDock/SCRATCH/505733/C567-P57

>  <fragmenstein_runtime>  (241) 
5.451626300811768

>  <fragmenstein_outcome>  (241) 
too moved

>  <fragmenstein_mode>  (241) 
expansion

>  <fragmenstein_error>  (241) 


$$$$
C567-P195
     RDKit          3D

 44 45  0  0  0  0  0  0  0  0999 V2000
   -6.5859   -0.5140   35.0585 C   0  0  0  0  0  0  0  0  0  0  0  0
   -5.2371   -0.9805   35.0801 O   0  0  0  0  0  0  0  0  0  0  0  0
   -4.4134   -0.3601   34.1879 C   0  0  0  0  0  0  0  0  0  0  0  0
   -4.7409    0.5690   33.4571 O   0  0  0  0  0  0  0  0  0  0  0  0
   -3.0239   -0.9735   34.2513 C   0  0  0  0  0  0  0  0  0  0  0  0
   -2.3629   -0.9110   32.9680 N   0  0  0  0  0  0  0  0  0  0  0  0
   -1.2636    0.0522   32.4470 C   0  0  0  0  0  0  0  0  0  0  0  0
   -0.7798    0.9893   32.9480 O   0  0  0  0  0  0  0  0  0  0  0  0
   -0.8652   -0.4604   31.0437 C   0  0  0  0  0  0  0  0  0  0  0  0
   -1.7882   -0.0206   29.9287 C   0  0  0  0  0  0  0  0  0  0  0  0
   -0.8842    0.3888   28.7655 C   0  0  0  0  0  0  0  0  0  0  0  0
   -1.2130   -0.5375   27.6089 C   0  0  0  0  0  0  0  0  0  0  0  0
   -0.8521    1.8492   28.3842 N   0  0  0  0  0  0  0  0  0  0  0  0
   -1.8197    2.1996   27.3139 C   0  0  0  0  0  0  0  0  0  0  0  0
   -1.6109    3.5662   26.6544 C   0  0  0  0  0  0  0  0  0  0  0  0
   -0.1805    3.6615   26.1425 C   0  0  0  0  0  0  0  0  0  0  0  0
    0.0873    4.8597   25.4353 O   0  0  0  0  0  0  0  0  0  0  0  0
    0.7290    3.5797   27.3473 C   0  0  0  0  0  0  0  0  0  0  0  0
    0.5356    2.2324   28.0239 C   0  0  0  0  0  0  0  0  0  0  0  0
    0.4247   -0.0571   29.2256 O   0  0  0  0  0  0  0  0  0  0  0  0
    0.4569    0.0338   30.6813 N   0  0  0  0  0  0  0  0  0  0  0  0
   -7.1608   -1.1056   35.7762 H   0  0  0  0  0  0  0  0  0  0  0  0
   -7.0247   -0.6530   34.0656 H   0  0  0  0  0  0  0  0  0  0  0  0
   -6.6299    0.5366   35.3611 H   0  0  0  0  0  0  0  0  0  0  0  0
   -2.4311   -0.4206   34.9847 H   0  0  0  0  0  0  0  0  0  0  0  0
   -3.0854   -2.0251   34.5331 H   0  0  0  0  0  0  0  0  0  0  0  0
   -2.4884   -1.6693   32.3091 H   0  0  0  0  0  0  0  0  0  0  0  0
   -0.8006   -1.5551   31.0768 H   0  0  0  0  0  0  0  0  0  0  0  0
   -2.4738    0.7666   30.2023 H   0  0  0  0  0  0  0  0  0  0  0  0
   -2.4250   -0.8699   29.6643 H   0  0  0  0  0  0  0  0  0  0  0  0
   -1.0339   -1.5849   27.8805 H   0  0  0  0  0  0  0  0  0  0  0  0
   -0.5174   -0.3037   26.8140 H   0  0  0  0  0  0  0  0  0  0  0  0
   -2.2409   -0.4530   27.2519 H   0  0  0  0  0  0  0  0  0  0  0  0
   -2.8331    2.1433   27.7153 H   0  0  0  0  0  0  0  0  0  0  0  0
   -1.7737    1.4912   26.4816 H   0  0  0  0  0  0  0  0  0  0  0  0
   -1.8191    4.3728   27.3677 H   0  0  0  0  0  0  0  0  0  0  0  0
   -2.3196    3.6969   25.8280 H   0  0  0  0  0  0  0  0  0  0  0  0
    0.0272    2.8414   25.4477 H   0  0  0  0  0  0  0  0  0  0  0  0
   -0.7164    5.0996   24.9413 H   0  0  0  0  0  0  0  0  0  0  0  0
    0.5220    4.3997   28.0472 H   0  0  0  0  0  0  0  0  0  0  0  0
    1.7754    3.7023   27.0424 H   0  0  0  0  0  0  0  0  0  0  0  0
    0.9675    1.4793   27.3508 H   0  0  0  0  0  0  0  0  0  0  0  0
    1.1508    2.2478   28.9313 H   0  0  0  0  0  0  0  0  0  0  0  0
    0.4975    1.0490   30.8335 H   0  0  0  0  0  0  0  0  0  0  0  0
  1  2  1  0
  2  3  1  0
  3  4  2  0
  3  5  1  0
  5  6  1  0
  6  7  1  0
  7  8  2  0
  7  9  1  0
  9 10  1  0
 10 11  1  0
 11 12  1  0
 11 13  1  0
 13 14  1  0
 14 15  1  0
 15 16  1  0
 16 17  1  0
 16 18  1  0
 18 19  1  0
 11 20  1  0
 20 21  1  0
 21  9  1  0
 19 13  1  0
  1 22  1  0
  1 23  1  0
  1 24  1  0
  5 25  1  0
  5 26  1  0
  6 27  1  0
  9 28  1  0
 10 29  1  0
 10 30  1  0
 12 31  1  0
 12 32  1  0
 12 33  1  0
 14 34  1  0
 14 35  1  0
 15 36  1  0
 15 37  1  0
 16 38  1  0
 17 39  1  0
 18 40  1  0
 18 41  1  0
 19 42  1  0
 19 43  1  0
 21 44  1  0
M  END
>  <Energy>  (242) 
89.714132776252583

>  <compound_id>  (242) 
567

>  <target_id>  (242) 
1

>  <reference_id>  (242) 
195

>  <inspiration_ids>  (242) 
[57, 195]

>  <energy_score>  (242) 
-30.8822537466487

>  <distance_score>  (242) 
3.68624207287416

>  <path>  (242) 
/opt/xchem-fragalysis-2/maxwin/BulkDock/SCRATCH/505733/C567-P195/C567-P195.minimised.mol

>  <scratch_subdir>  (242) 
/opt/xchem-fragalysis-2/maxwin/BulkDock/SCRATCH/505733/C567-P195

>  <fragmenstein_runtime>  (242) 
4.819689512252808

>  <fragmenstein_outcome>  (242) 
too moved

>  <fragmenstein_mode>  (242) 
expansion

>  <fragmenstein_error>  (242) 


$$$$
C570-P57
     RDKit          3D

 44 46  0  0  0  0  0  0  0  0999 V2000
    0.3334   -6.1179   32.7352 C   0  0  0  0  0  0  0  0  0  0  0  0
   -0.0184   -5.0267   31.8134 C   0  0  0  0  0  0  0  0  0  0  0  0
   -0.7517   -3.8735   31.9173 C   0  0  0  0  0  0  0  0  0  0  0  0
   -0.6401   -3.2274   30.6355 C   0  0  0  0  0  0  0  0  0  0  0  0
   -1.2807   -1.9239   30.2330 C   0  0  0  0  0  0  0  0  0  0  0  0
   -2.0225   -1.4399   30.9981 O   0  0  0  0  0  0  0  0  0  0  0  0
   -0.9020   -1.4939   28.7881 N   0  0  0  0  0  0  0  0  0  0  0  0
   -1.4389   -0.4163   27.9391 C   0  0  0  0  0  0  0  0  0  0  0  0
   -0.8439    1.0266   28.0583 C   0  0  0  0  0  0  0  0  0  0  0  0
   -0.7732    1.3018   29.4559 O   0  0  0  0  0  0  0  0  0  0  0  0
   -1.7645    2.0929   27.4362 C   0  0  0  0  0  0  0  0  0  0  0  0
   -1.1634    3.5055   27.5841 C   0  0  0  0  0  0  0  0  0  0  0  0
    0.2237    3.6369   27.1122 N   0  0  0  0  0  0  0  0  0  0  0  0
    1.0897    4.3246   28.0721 C   0  0  0  0  0  0  0  0  0  0  0  0
    2.3459    4.8330   27.4186 C   0  0  0  0  0  0  0  0  0  0  0  0
    3.6736    4.4653   27.8247 C   0  0  0  0  0  0  0  0  0  0  0  0
    4.6517    5.1012   27.0973 C   0  0  0  0  0  0  0  0  0  0  0  0
    3.9883    6.1286   25.9025 S   0  0  0  0  0  0  0  0  0  0  0  0
    2.3906    5.7438   26.3772 C   0  0  0  0  0  0  0  0  0  0  0  0
    0.7586    2.3962   26.5773 C   0  0  0  0  0  0  0  0  0  0  0  0
    0.5730    1.1639   27.4761 C   0  0  0  0  0  0  0  0  0  0  0  0
    0.0890   -4.0052   29.8112 N   0  0  0  0  0  0  0  0  0  0  0  0
    0.4752   -5.1140   30.5505 O   0  0  0  0  0  0  0  0  0  0  0  0
   -0.0279   -7.0767   32.3504 H   0  0  0  0  0  0  0  0  0  0  0  0
   -0.1133   -5.9586   33.7215 H   0  0  0  0  0  0  0  0  0  0  0  0
    1.4188   -6.1828   32.8586 H   0  0  0  0  0  0  0  0  0  0  0  0
   -1.2779   -3.4998   32.7854 H   0  0  0  0  0  0  0  0  0  0  0  0
   -0.2861   -2.1889   28.3780 H   0  0  0  0  0  0  0  0  0  0  0  0
   -1.4071   -0.7561   26.9055 H   0  0  0  0  0  0  0  0  0  0  0  0
   -2.4890   -0.3648   28.2280 H   0  0  0  0  0  0  0  0  0  0  0  0
   -0.2350    2.1006   29.5807 H   0  0  0  0  0  0  0  0  0  0  0  0
   -1.9475    1.8679   26.3778 H   0  0  0  0  0  0  0  0  0  0  0  0
   -2.7381    2.0861   27.9344 H   0  0  0  0  0  0  0  0  0  0  0  0
   -1.2524    3.8097   28.6325 H   0  0  0  0  0  0  0  0  0  0  0  0
   -1.7837    4.2078   27.0155 H   0  0  0  0  0  0  0  0  0  0  0  0
    0.5710    5.2025   28.4810 H   0  0  0  0  0  0  0  0  0  0  0  0
    1.3308    3.6754   28.9224 H   0  0  0  0  0  0  0  0  0  0  0  0
    3.8960    3.7712   28.6259 H   0  0  0  0  0  0  0  0  0  0  0  0
    5.7238    5.0097   27.2005 H   0  0  0  0  0  0  0  0  0  0  0  0
    1.5496    6.1959   25.8676 H   0  0  0  0  0  0  0  0  0  0  0  0
    1.8154    2.4849   26.3005 H   0  0  0  0  0  0  0  0  0  0  0  0
    0.2415    2.2345   25.6280 H   0  0  0  0  0  0  0  0  0  0  0  0
    0.8274    0.2716   26.8984 H   0  0  0  0  0  0  0  0  0  0  0  0
    1.3130    1.2075   28.2861 H   0  0  0  0  0  0  0  0  0  0  0  0
  1  2  1  0
  2  3  2  0
  3  4  1  0
  4  5  1  0
  5  6  2  0
  5  7  1  0
  7  8  1  0
  8  9  1  0
  9 10  1  0
  9 11  1  0
 11 12  1  0
 12 13  1  0
 13 14  1  0
 14 15  1  0
 15 16  1  0
 16 17  2  0
 17 18  1  0
 18 19  1  0
 13 20  1  0
 20 21  1  0
  4 22  2  0
 22 23  1  0
 23  2  1  0
 21  9  1  0
 19 15  2  0
  1 24  1  0
  1 25  1  0
  1 26  1  0
  3 27  1  0
  7 28  1  0
  8 29  1  0
  8 30  1  0
 10 31  1  0
 11 32  1  0
 11 33  1  0
 12 34  1  0
 12 35  1  0
 14 36  1  0
 14 37  1  0
 16 38  1  0
 17 39  1  0
 19 40  1  0
 20 41  1  0
 20 42  1  0
 21 43  1  0
 21 44  1  0
M  END
>  <Energy>  (243) 
62.434567859527547

>  <compound_id>  (243) 
570

>  <target_id>  (243) 
1

>  <reference_id>  (243) 
57

>  <inspiration_ids>  (243) 
[57, 198]

>  <energy_score>  (243) 
-36.66738765752888

>  <distance_score>  (243) 
2.651383690166167

>  <path>  (243) 
/opt/xchem-fragalysis-2/maxwin/BulkDock/SCRATCH/505733/C570-P57/C570-P57.minimised.mol

>  <scratch_subdir>  (243) 
/opt/xchem-fragalysis-2/maxwin/BulkDock/SCRATCH/505733/C570-P57

>  <fragmenstein_runtime>  (243) 
5.267346382141113

>  <fragmenstein_outcome>  (243) 
too moved

>  <fragmenstein_mode>  (243) 
expansion

>  <fragmenstein_error>  (243) 


$$$$
C570-P198
     RDKit          3D

 44 46  0  0  0  0  0  0  0  0999 V2000
    0.3576   -6.2581   32.7142 C   0  0  0  0  0  0  0  0  0  0  0  0
   -0.0624   -5.0621   31.9698 C   0  0  0  0  0  0  0  0  0  0  0  0
   -0.8057   -3.9531   32.2738 C   0  0  0  0  0  0  0  0  0  0  0  0
   -0.7770   -3.1348   31.0922 C   0  0  0  0  0  0  0  0  0  0  0  0
   -1.4632   -1.8070   30.9204 C   0  0  0  0  0  0  0  0  0  0  0  0
   -2.1853   -1.4782   31.7791 O   0  0  0  0  0  0  0  0  0  0  0  0
   -1.1471   -1.1315   29.5592 N   0  0  0  0  0  0  0  0  0  0  0  0
   -1.7330    0.0509   28.9265 C   0  0  0  0  0  0  0  0  0  0  0  0
   -0.8517    1.0600   28.1364 C   0  0  0  0  0  0  0  0  0  0  0  0
   -0.0834    0.2901   27.2170 O   0  0  0  0  0  0  0  0  0  0  0  0
    0.1203    1.8347   29.0370 C   0  0  0  0  0  0  0  0  0  0  0  0
    0.1520    3.3449   28.7599 C   0  0  0  0  0  0  0  0  0  0  0  0
    0.2232    3.7144   27.3488 N   0  0  0  0  0  0  0  0  0  0  0  0
    1.5579    3.5582   26.7584 C   0  0  0  0  0  0  0  0  0  0  0  0
    2.4961    4.6348   27.2290 C   0  0  0  0  0  0  0  0  0  0  0  0
    3.8172    4.3856   27.7317 C   0  0  0  0  0  0  0  0  0  0  0  0
    4.4790    5.5374   28.0893 C   0  0  0  0  0  0  0  0  0  0  0  0
    3.5348    6.9319   27.7950 S   0  0  0  0  0  0  0  0  0  0  0  0
    2.2375    5.9946   27.1926 C   0  0  0  0  0  0  0  0  0  0  0  0
   -0.8124    3.0546   26.5451 C   0  0  0  0  0  0  0  0  0  0  0  0
   -1.6936    2.0409   27.2971 C   0  0  0  0  0  0  0  0  0  0  0  0
   -0.0934   -3.7750   30.1243 N   0  0  0  0  0  0  0  0  0  0  0  0
    0.3557   -4.9657   30.6803 O   0  0  0  0  0  0  0  0  0  0  0  0
   -0.0792   -6.2712   33.7176 H   0  0  0  0  0  0  0  0  0  0  0  0
    1.4467   -6.2836   32.8165 H   0  0  0  0  0  0  0  0  0  0  0  0
    0.0373   -7.1664   32.1944 H   0  0  0  0  0  0  0  0  0  0  0  0
   -1.2881   -3.7192   33.2133 H   0  0  0  0  0  0  0  0  0  0  0  0
   -0.4056   -1.6471   29.0875 H   0  0  0  0  0  0  0  0  0  0  0  0
   -2.4150   -0.3994   28.1997 H   0  0  0  0  0  0  0  0  0  0  0  0
   -2.3215    0.5704   29.6880 H   0  0  0  0  0  0  0  0  0  0  0  0
   -0.6556   -0.4132   26.8468 H   0  0  0  0  0  0  0  0  0  0  0  0
   -0.1497    1.7015   30.0915 H   0  0  0  0  0  0  0  0  0  0  0  0
    1.1352    1.4305   28.9311 H   0  0  0  0  0  0  0  0  0  0  0  0
    0.9657    3.8018   29.3358 H   0  0  0  0  0  0  0  0  0  0  0  0
   -0.7582    3.7924   29.1710 H   0  0  0  0  0  0  0  0  0  0  0  0
    1.9690    2.5599   26.9505 H   0  0  0  0  0  0  0  0  0  0  0  0
    1.5030    3.6692   25.6663 H   0  0  0  0  0  0  0  0  0  0  0  0
    4.2534    3.3993   27.8346 H   0  0  0  0  0  0  0  0  0  0  0  0
    5.4737    5.6314   28.5014 H   0  0  0  0  0  0  0  0  0  0  0  0
    1.3299    6.4770   26.8540 H   0  0  0  0  0  0  0  0  0  0  0  0
   -0.3791    2.5568   25.6724 H   0  0  0  0  0  0  0  0  0  0  0  0
   -1.4665    3.8347   26.1366 H   0  0  0  0  0  0  0  0  0  0  0  0
   -2.3969    2.5765   27.9444 H   0  0  0  0  0  0  0  0  0  0  0  0
   -2.2921    1.4923   26.5587 H   0  0  0  0  0  0  0  0  0  0  0  0
  1  2  1  0
  2  3  2  0
  3  4  1  0
  4  5  1  0
  5  6  2  0
  5  7  1  0
  7  8  1  0
  8  9  1  0
  9 10  1  0
  9 11  1  0
 11 12  1  0
 12 13  1  0
 13 14  1  0
 14 15  1  0
 15 16  1  0
 16 17  2  0
 17 18  1  0
 18 19  1  0
 13 20  1  0
 20 21  1  0
  4 22  2  0
 22 23  1  0
 23  2  1  0
 21  9  1  0
 19 15  2  0
  1 24  1  0
  1 25  1  0
  1 26  1  0
  3 27  1  0
  7 28  1  0
  8 29  1  0
  8 30  1  0
 10 31  1  0
 11 32  1  0
 11 33  1  0
 12 34  1  0
 12 35  1  0
 14 36  1  0
 14 37  1  0
 16 38  1  0
 17 39  1  0
 19 40  1  0
 20 41  1  0
 20 42  1  0
 21 43  1  0
 21 44  1  0
M  END
>  <Energy>  (244) 
59.639330434404414

>  <compound_id>  (244) 
570

>  <target_id>  (244) 
1

>  <reference_id>  (244) 
198

>  <inspiration_ids>  (244) 
[57, 198]

>  <energy_score>  (244) 
-39.46262508265187

>  <distance_score>  (244) 
2.657949038034547

>  <path>  (244) 
/opt/xchem-fragalysis-2/maxwin/BulkDock/SCRATCH/505733/C570-P198/C570-P198.minimised.mol

>  <scratch_subdir>  (244) 
/opt/xchem-fragalysis-2/maxwin/BulkDock/SCRATCH/505733/C570-P198

>  <fragmenstein_runtime>  (244) 
4.882708787918091

>  <fragmenstein_outcome>  (244) 
too moved

>  <fragmenstein_mode>  (244) 
expansion

>  <fragmenstein_error>  (244) 


$$$$
C571-P57
     RDKit          3D

 65 68  0  0  0  0  0  0  0  0999 V2000
   -0.9077    4.0700   22.8347 C   0  0  0  0  0  0  0  0  0  0  0  0
   -1.5316    3.4204   23.9508 N   0  0  0  0  0  0  0  0  0  0  0  0
   -2.8451    3.5745   24.5185 C   0  0  0  0  0  0  0  0  0  0  0  0
   -3.7806    4.2274   24.1559 O   0  0  0  0  0  0  0  0  0  0  0  0
   -3.0189    2.6703   25.7605 C   0  0  0  0  0  0  0  0  0  0  0  0
   -1.8569    2.6379   26.7244 C   0  0  0  0  0  0  0  0  0  0  0  0
   -1.2425    3.8275   27.1091 C   0  0  0  0  0  0  0  0  0  0  0  0
   -0.1113    3.7912   27.9090 C   0  0  0  0  0  0  0  0  0  0  0  0
    0.3915    2.5735   28.4031 C   0  0  0  0  0  0  0  0  0  0  0  0
    1.6467    2.6596   29.1748 C   0  0  0  0  0  0  0  0  0  0  0  0
    2.9151    2.0752   28.7247 C   0  0  0  0  0  0  0  0  0  0  0  0
    4.0615    2.2355   29.4149 C   0  0  0  0  0  0  0  0  0  0  0  0
    4.0542    2.9958   30.6143 C   0  0  0  0  0  0  0  0  0  0  0  0
    4.9879    3.2962   31.4901 N   0  0  0  0  0  0  0  0  0  0  0  0
    4.4066    4.0655   32.4760 N   0  0  0  0  0  0  0  0  0  0  0  0
    3.1353    4.2268   32.1821 C   0  0  0  0  0  0  0  0  0  0  0  0
    2.2119    4.9228   32.8847 N   0  0  0  0  0  0  0  0  0  0  0  0
    2.8477    3.5503   31.0116 N   0  0  0  0  0  0  0  0  0  0  0  0
    1.6555    3.3840   30.3135 C   0  0  0  0  0  0  0  0  0  0  0  0
   -0.2862    1.3653   28.1182 C   0  0  0  0  0  0  0  0  0  0  0  0
    0.1437    0.0235   28.7054 C   0  0  0  0  0  0  0  0  0  0  0  0
   -1.0016   -0.8491   29.2655 C   0  0  0  0  0  0  0  0  0  0  0  0
   -0.5152   -1.7992   30.3200 C   0  0  0  0  0  0  0  0  0  0  0  0
   -0.4087   -3.1159   29.9715 O   0  0  0  0  0  0  0  0  0  0  0  0
    0.1015   -3.7771   31.0454 C   0  0  0  0  0  0  0  0  0  0  0  0
    0.3459   -5.2226   30.8764 C   0  0  0  0  0  0  0  0  0  0  0  0
    0.2937   -2.9039   32.0918 C   0  0  0  0  0  0  0  0  0  0  0  0
   -0.0944   -1.6092   31.6298 C   0  0  0  0  0  0  0  0  0  0  0  0
   -0.0675   -0.3164   32.3309 C   0  0  0  0  0  0  0  0  0  0  0  0
   -0.9438    0.4669   32.1235 O   0  0  0  0  0  0  0  0  0  0  0  0
    1.0697   -0.2339   33.1788 N   0  0  0  0  0  0  0  0  0  0  0  0
    1.5772    0.8554   33.9837 C   0  0  0  0  0  0  0  0  0  0  0  0
    3.0809    0.7106   34.1461 C   0  0  0  0  0  0  0  0  0  0  0  0
    3.7175   -0.2716   33.7781 O   0  0  0  0  0  0  0  0  0  0  0  0
    3.5907    1.7993   34.7788 O   0  0  0  0  0  0  0  0  0  0  0  0
    5.0160    1.8039   34.8794 C   0  0  0  0  0  0  0  0  0  0  0  0
   -1.3890    1.4180   27.2444 C   0  0  0  0  0  0  0  0  0  0  0  0
   -0.1010    4.7032   23.2109 H   0  0  0  0  0  0  0  0  0  0  0  0
   -1.6424    4.6810   22.3056 H   0  0  0  0  0  0  0  0  0  0  0  0
   -0.4975    3.3104   22.1688 H   0  0  0  0  0  0  0  0  0  0  0  0
   -0.9691    2.8529   24.5707 H   0  0  0  0  0  0  0  0  0  0  0  0
   -3.2169    1.6573   25.4080 H   0  0  0  0  0  0  0  0  0  0  0  0
   -3.9085    2.9922   26.3084 H   0  0  0  0  0  0  0  0  0  0  0  0
   -1.6139    4.7880   26.7542 H   0  0  0  0  0  0  0  0  0  0  0  0
    0.3825    4.7334   28.1410 H   0  0  0  0  0  0  0  0  0  0  0  0
    2.9088    1.5075   27.7978 H   0  0  0  0  0  0  0  0  0  0  0  0
    4.9961    1.8038   29.0753 H   0  0  0  0  0  0  0  0  0  0  0  0
    1.4626    5.3820   32.3740 H   0  0  0  0  0  0  0  0  0  0  0  0
    2.6112    5.5425   33.5867 H   0  0  0  0  0  0  0  0  0  0  0  0
    0.7725    3.8620   30.7214 H   0  0  0  0  0  0  0  0  0  0  0  0
    0.8664    0.2013   29.5087 H   0  0  0  0  0  0  0  0  0  0  0  0
    0.6843   -0.5346   27.9301 H   0  0  0  0  0  0  0  0  0  0  0  0
   -1.7850   -0.2190   29.7042 H   0  0  0  0  0  0  0  0  0  0  0  0
   -1.4749   -1.4088   28.4494 H   0  0  0  0  0  0  0  0  0  0  0  0
    0.9952   -5.4031   30.0146 H   0  0  0  0  0  0  0  0  0  0  0  0
    0.8361   -5.6425   31.7605 H   0  0  0  0  0  0  0  0  0  0  0  0
   -0.5933   -5.7606   30.7245 H   0  0  0  0  0  0  0  0  0  0  0  0
    0.6710   -3.1672   33.0707 H   0  0  0  0  0  0  0  0  0  0  0  0
    1.6468   -1.0585   33.0393 H   0  0  0  0  0  0  0  0  0  0  0  0
    1.0936    0.8025   34.9624 H   0  0  0  0  0  0  0  0  0  0  0  0
    1.3316    1.7963   33.4853 H   0  0  0  0  0  0  0  0  0  0  0  0
    5.3271    2.7873   35.2425 H   0  0  0  0  0  0  0  0  0  0  0  0
    5.3413    1.0469   35.5993 H   0  0  0  0  0  0  0  0  0  0  0  0
    5.4810    1.6322   33.9036 H   0  0  0  0  0  0  0  0  0  0  0  0
   -1.8948    0.4934   26.9632 H   0  0  0  0  0  0  0  0  0  0  0  0
  1  2  1  0
  2  3  1  0
  3  4  2  0
  3  5  1  0
  5  6  1  0
  6  7  2  0
  7  8  1  0
  8  9  2  0
  9 10  1  0
 10 11  1  0
 11 12  2  0
 12 13  1  0
 13 14  2  0
 14 15  1  0
 15 16  2  0
 16 17  1  0
 16 18  1  0
 18 19  1  0
  9 20  1  0
 20 21  1  0
 21 22  1  0
 22 23  1  0
 23 24  1  0
 24 25  1  0
 25 26  1  0
 25 27  2  0
 27 28  1  0
 28 29  1  0
 29 30  2  0
 29 31  1  0
 31 32  1  0
 32 33  1  0
 33 34  2  0
 33 35  1  0
 35 36  1  0
 20 37  2  0
 37  6  1  0
 19 10  2  0
 28 23  2  0
 18 13  1  0
  1 38  1  0
  1 39  1  0
  1 40  1  0
  2 41  1  0
  5 42  1  0
  5 43  1  0
  7 44  1  0
  8 45  1  0
 11 46  1  0
 12 47  1  0
 17 48  1  0
 17 49  1  0
 19 50  1  0
 21 51  1  0
 21 52  1  0
 22 53  1  0
 22 54  1  0
 26 55  1  0
 26 56  1  0
 26 57  1  0
 27 58  1  0
 31 59  1  0
 32 60  1  0
 32 61  1  0
 36 62  1  0
 36 63  1  0
 36 64  1  0
 37 65  1  0
M  END
>  <Energy>  (245) 
65.611648172042521

>  <compound_id>  (245) 
571

>  <target_id>  (245) 
1

>  <reference_id>  (245) 
57

>  <inspiration_ids>  (245) 
[57, 199]

>  <energy_score>  (245) 
-70.41952604065114

>  <distance_score>  (245) 
4.581133496723621

>  <path>  (245) 
/opt/xchem-fragalysis-2/maxwin/BulkDock/SCRATCH/505733/C571-P57/C571-P57.minimised.mol

>  <scratch_subdir>  (245) 
/opt/xchem-fragalysis-2/maxwin/BulkDock/SCRATCH/505733/C571-P57

>  <fragmenstein_runtime>  (245) 
29.441446781158447

>  <fragmenstein_outcome>  (245) 
too moved

>  <fragmenstein_mode>  (245) 
expansion

>  <fragmenstein_error>  (245) 


$$$$
C571-P199
     RDKit          3D

 65 68  0  0  0  0  0  0  0  0999 V2000
   -2.7872    5.3290   23.3026 C   0  0  0  0  0  0  0  0  0  0  0  0
   -2.9332    4.5251   24.4793 N   0  0  0  0  0  0  0  0  0  0  0  0
   -2.4863    3.1890   24.7707 C   0  0  0  0  0  0  0  0  0  0  0  0
   -1.8071    2.4321   24.1312 O   0  0  0  0  0  0  0  0  0  0  0  0
   -2.9906    2.7486   26.1613 C   0  0  0  0  0  0  0  0  0  0  0  0
   -1.8464    2.6566   27.1374 C   0  0  0  0  0  0  0  0  0  0  0  0
   -1.2664    3.8330   27.6128 C   0  0  0  0  0  0  0  0  0  0  0  0
   -0.1023    3.7729   28.3652 C   0  0  0  0  0  0  0  0  0  0  0  0
    0.5006    2.5382   28.6628 C   0  0  0  0  0  0  0  0  0  0  0  0
    1.8390    2.6245   29.2677 C   0  0  0  0  0  0  0  0  0  0  0  0
    2.0933    2.7526   30.7029 C   0  0  0  0  0  0  0  0  0  0  0  0
    3.3372    2.9329   31.1912 C   0  0  0  0  0  0  0  0  0  0  0  0
    4.4377    3.0195   30.2953 C   0  0  0  0  0  0  0  0  0  0  0  0
    5.7293    3.1921   30.4771 N   0  0  0  0  0  0  0  0  0  0  0  0
    6.3268    3.2288   29.2343 N   0  0  0  0  0  0  0  0  0  0  0  0
    5.3910    3.0936   28.3203 C   0  0  0  0  0  0  0  0  0  0  0  0
    5.5487    3.1501   26.9756 N   0  0  0  0  0  0  0  0  0  0  0  0
    4.1664    2.9207   28.9400 N   0  0  0  0  0  0  0  0  0  0  0  0
    2.8888    2.7214   28.4238 C   0  0  0  0  0  0  0  0  0  0  0  0
   -0.1300    1.3329   28.2835 C   0  0  0  0  0  0  0  0  0  0  0  0
    0.4005   -0.0471   28.6586 C   0  0  0  0  0  0  0  0  0  0  0  0
   -0.0099   -0.4828   30.0759 C   0  0  0  0  0  0  0  0  0  0  0  0
    0.5853   -1.7886   30.5232 C   0  0  0  0  0  0  0  0  0  0  0  0
   -0.2910   -2.7404   30.9778 O   0  0  0  0  0  0  0  0  0  0  0  0
    0.4500   -3.7922   31.4226 C   0  0  0  0  0  0  0  0  0  0  0  0
   -0.2818   -4.9146   32.0352 C   0  0  0  0  0  0  0  0  0  0  0  0
    1.7873   -3.5523   31.2198 C   0  0  0  0  0  0  0  0  0  0  0  0
    1.8888   -2.2521   30.6454 C   0  0  0  0  0  0  0  0  0  0  0  0
    3.0934   -1.5089   30.2740 C   0  0  0  0  0  0  0  0  0  0  0  0
    3.1279   -0.3347   30.4703 O   0  0  0  0  0  0  0  0  0  0  0  0
    4.0308   -2.3727   29.6507 N   0  0  0  0  0  0  0  0  0  0  0  0
    5.2731   -2.0913   28.9747 C   0  0  0  0  0  0  0  0  0  0  0  0
    5.0591   -2.4616   27.5167 C   0  0  0  0  0  0  0  0  0  0  0  0
    4.3951   -3.4288   27.1519 O   0  0  0  0  0  0  0  0  0  0  0  0
    5.7016   -1.5870   26.7046 O   0  0  0  0  0  0  0  0  0  0  0  0
    5.4565   -1.7408   25.3059 C   0  0  0  0  0  0  0  0  0  0  0  0
   -1.3008    1.4152   27.5056 C   0  0  0  0  0  0  0  0  0  0  0  0
   -2.5225    6.3448   23.6033 H   0  0  0  0  0  0  0  0  0  0  0  0
   -3.7418    5.3385   22.7712 H   0  0  0  0  0  0  0  0  0  0  0  0
   -2.0121    4.9055   22.6601 H   0  0  0  0  0  0  0  0  0  0  0  0
   -3.5627    4.8310   25.2143 H   0  0  0  0  0  0  0  0  0  0  0  0
   -3.4794    1.7761   26.0517 H   0  0  0  0  0  0  0  0  0  0  0  0
   -3.7587    3.4193   26.5584 H   0  0  0  0  0  0  0  0  0  0  0  0
   -1.6820    4.8041   27.3531 H   0  0  0  0  0  0  0  0  0  0  0  0
    0.3653    4.7044   28.6813 H   0  0  0  0  0  0  0  0  0  0  0  0
    1.2433    2.6913   31.3755 H   0  0  0  0  0  0  0  0  0  0  0  0
    3.5240    3.0141   32.2552 H   0  0  0  0  0  0  0  0  0  0  0  0
    4.7822    3.5304   26.4276 H   0  0  0  0  0  0  0  0  0  0  0  0
    6.4414    3.5518   26.6960 H   0  0  0  0  0  0  0  0  0  0  0  0
    2.7948    2.6656   27.3465 H   0  0  0  0  0  0  0  0  0  0  0  0
    1.4868   -0.0523   28.5267 H   0  0  0  0  0  0  0  0  0  0  0  0
    0.0308   -0.7882   27.9380 H   0  0  0  0  0  0  0  0  0  0  0  0
    0.2783    0.2838   30.8048 H   0  0  0  0  0  0  0  0  0  0  0  0
   -1.1046   -0.5495   30.1261 H   0  0  0  0  0  0  0  0  0  0  0  0
   -0.8147   -5.4843   31.2706 H   0  0  0  0  0  0  0  0  0  0  0  0
   -1.0008   -4.5444   32.7699 H   0  0  0  0  0  0  0  0  0  0  0  0
    0.4033   -5.5967   32.5487 H   0  0  0  0  0  0  0  0  0  0  0  0
    2.5969   -4.2104   31.5017 H   0  0  0  0  0  0  0  0  0  0  0  0
    3.6308   -3.3009   29.5848 H   0  0  0  0  0  0  0  0  0  0  0  0
    6.0675   -2.7081   29.3997 H   0  0  0  0  0  0  0  0  0  0  0  0
    5.5003   -1.0272   29.0804 H   0  0  0  0  0  0  0  0  0  0  0  0
    5.2282   -0.7556   24.8958 H   0  0  0  0  0  0  0  0  0  0  0  0
    6.3593   -2.1360   24.8341 H   0  0  0  0  0  0  0  0  0  0  0  0
    4.6173   -2.4004   25.0802 H   0  0  0  0  0  0  0  0  0  0  0  0
   -1.7669    0.4975   27.1424 H   0  0  0  0  0  0  0  0  0  0  0  0
  1  2  1  0
  2  3  1  0
  3  4  2  0
  3  5  1  0
  5  6  1  0
  6  7  2  0
  7  8  1  0
  8  9  2  0
  9 10  1  0
 10 11  1  0
 11 12  2  0
 12 13  1  0
 13 14  2  0
 14 15  1  0
 15 16  2  0
 16 17  1  0
 16 18  1  0
 18 19  1  0
  9 20  1  0
 20 21  1  0
 21 22  1  0
 22 23  1  0
 23 24  1  0
 24 25  1  0
 25 26  1  0
 25 27  2  0
 27 28  1  0
 28 29  1  0
 29 30  2  0
 29 31  1  0
 31 32  1  0
 32 33  1  0
 33 34  2  0
 33 35  1  0
 35 36  1  0
 20 37  2  0
 37  6  1  0
 19 10  2  0
 28 23  2  0
 18 13  1  0
  1 38  1  0
  1 39  1  0
  1 40  1  0
  2 41  1  0
  5 42  1  0
  5 43  1  0
  7 44  1  0
  8 45  1  0
 11 46  1  0
 12 47  1  0
 17 48  1  0
 17 49  1  0
 19 50  1  0
 21 51  1  0
 21 52  1  0
 22 53  1  0
 22 54  1  0
 26 55  1  0
 26 56  1  0
 26 57  1  0
 27 58  1  0
 31 59  1  0
 32 60  1  0
 32 61  1  0
 36 62  1  0
 36 63  1  0
 36 64  1  0
 37 65  1  0
M  END
>  <Energy>  (246) 
70.833354538009019

>  <compound_id>  (246) 
571

>  <target_id>  (246) 
1

>  <reference_id>  (246) 
199

>  <inspiration_ids>  (246) 
[57, 199]

>  <energy_score>  (246) 
-65.19781967468953

>  <distance_score>  (246) 
4.239288316356563

>  <path>  (246) 
/opt/xchem-fragalysis-2/maxwin/BulkDock/SCRATCH/505733/C571-P199/C571-P199.minimised.mol

>  <scratch_subdir>  (246) 
/opt/xchem-fragalysis-2/maxwin/BulkDock/SCRATCH/505733/C571-P199

>  <fragmenstein_runtime>  (246) 
34.008934020996094

>  <fragmenstein_outcome>  (246) 
too moved

>  <fragmenstein_mode>  (246) 
expansion

>  <fragmenstein_error>  (246) 


$$$$
C573-P59
     RDKit          3D

 54 57  0  0  0  0  0  0  0  0999 V2000
   -3.8166   -1.3180   38.0827 C   0  0  0  0  0  0  0  0  0  0  0  0
   -3.9577   -0.0790   37.3779 O   0  0  0  0  0  0  0  0  0  0  0  0
   -2.9894    0.3642   36.5347 C   0  0  0  0  0  0  0  0  0  0  0  0
   -3.1740    1.3790   35.8589 O   0  0  0  0  0  0  0  0  0  0  0  0
   -1.6637   -0.3951   36.4855 C   0  0  0  0  0  0  0  0  0  0  0  0
   -1.6670   -1.6363   35.6992 N   0  0  0  0  0  0  0  0  0  0  0  0
   -2.2708   -1.6539   34.4698 C   0  0  0  0  0  0  0  0  0  0  0  0
   -3.5333   -1.4044   34.4486 N   0  0  0  0  0  0  0  0  0  0  0  0
   -4.1744   -1.1126   33.1856 C   0  0  0  0  0  0  0  0  0  0  0  0
   -5.6836   -1.2815   33.3400 N   0  0  0  0  0  0  0  0  0  0  0  0
   -6.3098   -0.8279   34.6591 C   0  0  0  0  0  0  0  0  0  0  0  0
   -7.9126   -0.5156   34.7104 C   0  0  0  0  0  0  0  0  0  0  0  0
   -8.6997   -0.8118   35.8957 N   0  0  0  0  0  0  0  0  0  0  0  0
   -9.7344   -1.7047   35.9962 C   0  0  0  0  0  0  0  0  0  0  0  0
  -10.3253   -1.5964   37.1593 N   0  0  0  0  0  0  0  0  0  0  0  0
   -9.7081   -0.5671   37.8208 N   0  0  0  0  0  0  0  0  0  0  0  0
   -8.7570   -0.0904   37.0468 C   0  0  0  0  0  0  0  0  0  0  0  0
   -3.3872   -1.5125   31.8997 N   0  0  0  0  0  0  0  0  0  0  0  0
   -3.2193   -0.3780   30.9964 C   0  0  0  0  0  0  0  0  0  0  0  0
   -2.1082   -1.9765   32.0353 C   0  0  0  0  0  0  0  0  0  0  0  0
   -1.5358   -1.9018   33.2676 C   0  0  0  0  0  0  0  0  0  0  0  0
   -0.1794   -1.9833   33.0949 N   0  0  0  0  0  0  0  0  0  0  0  0
    0.1121   -2.1309   31.7671 C   0  0  0  0  0  0  0  0  0  0  0  0
   -1.0735   -2.1979   31.0565 C   0  0  0  0  0  0  0  0  0  0  0  0
   -1.0489   -2.3933   29.5631 C   0  0  0  0  0  0  0  0  0  0  0  0
    0.3116   -1.9839   28.9716 C   0  0  0  0  0  0  0  0  0  0  0  0
    1.4763   -2.6171   29.7487 C   0  0  0  0  0  0  0  0  0  0  0  0
    1.4966   -2.1701   31.2176 C   0  0  0  0  0  0  0  0  0  0  0  0
   -4.7572   -1.5083   38.6071 H   0  0  0  0  0  0  0  0  0  0  0  0
   -3.6428   -2.1431   37.3912 H   0  0  0  0  0  0  0  0  0  0  0  0
   -3.0208   -1.2450   38.8283 H   0  0  0  0  0  0  0  0  0  0  0  0
   -1.3131   -0.5935   37.5028 H   0  0  0  0  0  0  0  0  0  0  0  0
   -0.9205    0.2856   36.0509 H   0  0  0  0  0  0  0  0  0  0  0  0
   -0.7580   -2.0794   35.7114 H   0  0  0  0  0  0  0  0  0  0  0  0
   -4.1114   -0.0202   33.1774 H   0  0  0  0  0  0  0  0  0  0  0  0
   -6.1185   -0.7789   32.5771 H   0  0  0  0  0  0  0  0  0  0  0  0
   -5.8132    0.0950   34.9805 H   0  0  0  0  0  0  0  0  0  0  0  0
   -6.0971   -1.6022   35.4035 H   0  0  0  0  0  0  0  0  0  0  0  0
   -8.3631   -1.0796   33.8908 H   0  0  0  0  0  0  0  0  0  0  0  0
   -8.0662    0.5444   34.5015 H   0  0  0  0  0  0  0  0  0  0  0  0
  -10.0270   -2.3783   35.2065 H   0  0  0  0  0  0  0  0  0  0  0  0
   -8.1082    0.7450   37.2727 H   0  0  0  0  0  0  0  0  0  0  0  0
   -2.4642    0.3231   31.3690 H   0  0  0  0  0  0  0  0  0  0  0  0
   -4.1596    0.1038   30.9268 H   0  0  0  0  0  0  0  0  0  0  0  0
   -2.9549   -0.6368   29.9754 H   0  0  0  0  0  0  0  0  0  0  0  0
    0.5095   -1.9019   33.8283 H   0  0  0  0  0  0  0  0  0  0  0  0
   -1.1999   -3.4622   29.3710 H   0  0  0  0  0  0  0  0  0  0  0  0
   -1.8415   -1.8725   29.0296 H   0  0  0  0  0  0  0  0  0  0  0  0
    0.3586   -2.2954   27.9250 H   0  0  0  0  0  0  0  0  0  0  0  0
    0.4115   -0.8913   28.9895 H   0  0  0  0  0  0  0  0  0  0  0  0
    2.4298   -2.3599   29.2739 H   0  0  0  0  0  0  0  0  0  0  0  0
    1.3820   -3.7099   29.7011 H   0  0  0  0  0  0  0  0  0  0  0  0
    1.9307   -1.1652   31.2848 H   0  0  0  0  0  0  0  0  0  0  0  0
    2.1312   -2.8445   31.8029 H   0  0  0  0  0  0  0  0  0  0  0  0
  1  2  1  0
  2  3  1  0
  3  4  2  0
  3  5  1  0
  5  6  1  0
  6  7  1  0
  7  8  2  0
  8  9  1  0
  9 10  1  0
 10 11  1  0
 11 12  1  0
 12 13  1  0
 13 14  1  0
 14 15  2  0
 15 16  1  0
 16 17  2  0
  9 18  1  0
 18 19  1  0
 18 20  1  0
 20 21  2  0
 21 22  1  0
 22 23  1  0
 23 24  2  0
 24 25  1  0
 25 26  1  0
 26 27  1  0
 27 28  1  0
 21  7  1  0
 28 23  1  0
 17 13  1  0
 24 20  1  0
  1 29  1  0
  1 30  1  0
  1 31  1  0
  5 32  1  0
  5 33  1  0
  6 34  1  0
  9 35  1  0
 10 36  1  0
 11 37  1  0
 11 38  1  0
 12 39  1  0
 12 40  1  0
 14 41  1  0
 17 42  1  0
 19 43  1  0
 19 44  1  0
 19 45  1  0
 22 46  1  0
 25 47  1  0
 25 48  1  0
 26 49  1  0
 26 50  1  0
 27 51  1  0
 27 52  1  0
 28 53  1  0
 28 54  1  0
M  END
>  <Energy>  (247) 
-79.890471580930324

>  <compound_id>  (247) 
573

>  <target_id>  (247) 
1

>  <reference_id>  (247) 
59

>  <inspiration_ids>  (247) 
[59, 7]

>  <energy_score>  (247) 
11.380114786064517

>  <distance_score>  (247) 
3.2079480559181515

>  <path>  (247) 
/opt/xchem-fragalysis-2/maxwin/BulkDock/SCRATCH/505733/C573-P59/C573-P59.minimised.mol

>  <scratch_subdir>  (247) 
/opt/xchem-fragalysis-2/maxwin/BulkDock/SCRATCH/505733/C573-P59

>  <fragmenstein_runtime>  (247) 
2.772127151489258

>  <fragmenstein_outcome>  (247) 
too moved

>  <fragmenstein_mode>  (247) 
expansion

>  <fragmenstein_error>  (247) 


$$$$
C573-P7
     RDKit          3D

 54 57  0  0  0  0  0  0  0  0999 V2000
   -3.4745   -0.2330   39.0964 C   0  0  0  0  0  0  0  0  0  0  0  0
   -2.5715    0.3536   38.1482 O   0  0  0  0  0  0  0  0  0  0  0  0
   -2.2177   -0.2918   37.0059 C   0  0  0  0  0  0  0  0  0  0  0  0
   -1.3079    0.1434   36.3026 O   0  0  0  0  0  0  0  0  0  0  0  0
   -2.9642   -1.5800   36.6772 C   0  0  0  0  0  0  0  0  0  0  0  0
   -2.7317   -2.0099   35.2910 N   0  0  0  0  0  0  0  0  0  0  0  0
   -3.3926   -1.3759   34.2751 C   0  0  0  0  0  0  0  0  0  0  0  0
   -4.5275   -0.8117   34.5469 N   0  0  0  0  0  0  0  0  0  0  0  0
   -5.0602    0.1165   33.5464 C   0  0  0  0  0  0  0  0  0  0  0  0
   -6.1156    0.9225   34.2581 N   0  0  0  0  0  0  0  0  0  0  0  0
   -7.2618    0.1219   34.7942 C   0  0  0  0  0  0  0  0  0  0  0  0
   -8.4368    0.8769   35.6039 C   0  0  0  0  0  0  0  0  0  0  0  0
   -9.4958    0.0265   36.1371 N   0  0  0  0  0  0  0  0  0  0  0  0
  -10.6631    0.4215   36.7278 C   0  0  0  0  0  0  0  0  0  0  0  0
  -11.4026   -0.6315   36.9989 N   0  0  0  0  0  0  0  0  0  0  0  0
  -10.7049   -1.7428   36.5982 N   0  0  0  0  0  0  0  0  0  0  0  0
   -9.5721   -1.3304   36.0834 C   0  0  0  0  0  0  0  0  0  0  0  0
   -3.9192    0.8255   32.7793 N   0  0  0  0  0  0  0  0  0  0  0  0
   -3.2422    1.7847   33.7003 C   0  0  0  0  0  0  0  0  0  0  0  0
   -3.0232   -0.0945   32.2293 C   0  0  0  0  0  0  0  0  0  0  0  0
   -2.7966   -1.2122   32.9849 C   0  0  0  0  0  0  0  0  0  0  0  0
   -1.8724   -1.9994   32.3664 N   0  0  0  0  0  0  0  0  0  0  0  0
   -1.5025   -1.4041   31.1973 C   0  0  0  0  0  0  0  0  0  0  0  0
   -2.1129   -0.1596   31.1198 C   0  0  0  0  0  0  0  0  0  0  0  0
   -1.7543    0.7646   30.0033 C   0  0  0  0  0  0  0  0  0  0  0  0
   -0.6678    0.2220   29.0536 C   0  0  0  0  0  0  0  0  0  0  0  0
   -0.7246   -1.2971   28.8658 C   0  0  0  0  0  0  0  0  0  0  0  0
   -0.5693   -2.0144   30.2113 C   0  0  0  0  0  0  0  0  0  0  0  0
   -4.4971   -0.1934   38.7118 H   0  0  0  0  0  0  0  0  0  0  0  0
   -3.4274    0.3616   40.0130 H   0  0  0  0  0  0  0  0  0  0  0  0
   -3.1797   -1.2577   39.3388 H   0  0  0  0  0  0  0  0  0  0  0  0
   -4.0361   -1.4583   36.8557 H   0  0  0  0  0  0  0  0  0  0  0  0
   -2.5947   -2.3529   37.3492 H   0  0  0  0  0  0  0  0  0  0  0  0
   -1.7435   -2.1462   35.1023 H   0  0  0  0  0  0  0  0  0  0  0  0
   -5.6082   -0.4642   32.7934 H   0  0  0  0  0  0  0  0  0  0  0  0
   -5.6274    1.3581   35.0330 H   0  0  0  0  0  0  0  0  0  0  0  0
   -7.7282   -0.3991   33.9495 H   0  0  0  0  0  0  0  0  0  0  0  0
   -6.8617   -0.6438   35.4693 H   0  0  0  0  0  0  0  0  0  0  0  0
   -7.9974    1.4014   36.4596 H   0  0  0  0  0  0  0  0  0  0  0  0
   -8.9126    1.6091   34.9421 H   0  0  0  0  0  0  0  0  0  0  0  0
  -10.9203    1.4525   36.9251 H   0  0  0  0  0  0  0  0  0  0  0  0
   -8.8160   -1.9634   35.6447 H   0  0  0  0  0  0  0  0  0  0  0  0
   -3.8424    2.6962   33.7917 H   0  0  0  0  0  0  0  0  0  0  0  0
   -3.1087    1.3770   34.7066 H   0  0  0  0  0  0  0  0  0  0  0  0
   -2.2488    2.0593   33.3324 H   0  0  0  0  0  0  0  0  0  0  0  0
   -1.5421   -2.8886   32.7198 H   0  0  0  0  0  0  0  0  0  0  0  0
   -2.6455    1.0131   29.4285 H   0  0  0  0  0  0  0  0  0  0  0  0
   -1.3508    1.6754   30.4472 H   0  0  0  0  0  0  0  0  0  0  0  0
   -0.7472    0.7264   28.0835 H   0  0  0  0  0  0  0  0  0  0  0  0
    0.3192    0.4847   29.4575 H   0  0  0  0  0  0  0  0  0  0  0  0
    0.0686   -1.6214   28.1833 H   0  0  0  0  0  0  0  0  0  0  0  0
   -1.6825   -1.5684   28.4039 H   0  0  0  0  0  0  0  0  0  0  0  0
    0.4603   -1.9128   30.5738 H   0  0  0  0  0  0  0  0  0  0  0  0
   -0.7776   -3.0828   30.0868 H   0  0  0  0  0  0  0  0  0  0  0  0
  1  2  1  0
  2  3  1  0
  3  4  2  0
  3  5  1  0
  5  6  1  0
  6  7  1  0
  7  8  2  0
  8  9  1  0
  9 10  1  0
 10 11  1  0
 11 12  1  0
 12 13  1  0
 13 14  1  0
 14 15  2  0
 15 16  1  0
 16 17  2  0
  9 18  1  0
 18 19  1  0
 18 20  1  0
 20 21  2  0
 21 22  1  0
 22 23  1  0
 23 24  2  0
 24 25  1  0
 25 26  1  0
 26 27  1  0
 27 28  1  0
 21  7  1  0
 28 23  1  0
 17 13  1  0
 24 20  1  0
  1 29  1  0
  1 30  1  0
  1 31  1  0
  5 32  1  0
  5 33  1  0
  6 34  1  0
  9 35  1  0
 10 36  1  0
 11 37  1  0
 11 38  1  0
 12 39  1  0
 12 40  1  0
 14 41  1  0
 17 42  1  0
 19 43  1  0
 19 44  1  0
 19 45  1  0
 22 46  1  0
 25 47  1  0
 25 48  1  0
 26 49  1  0
 26 50  1  0
 27 51  1  0
 27 52  1  0
 28 53  1  0
 28 54  1  0
M  END
>  <Energy>  (248) 
-105.57910259427618

>  <compound_id>  (248) 
573

>  <target_id>  (248) 
1

>  <reference_id>  (248) 
7

>  <inspiration_ids>  (248) 
[59, 7]

>  <energy_score>  (248) 
-14.308516227279569

>  <distance_score>  (248) 
3.215656159953272

>  <path>  (248) 
/opt/xchem-fragalysis-2/maxwin/BulkDock/SCRATCH/505733/C573-P7/C573-P7.minimised.mol

>  <scratch_subdir>  (248) 
/opt/xchem-fragalysis-2/maxwin/BulkDock/SCRATCH/505733/C573-P7

>  <fragmenstein_runtime>  (248) 
3.1493563652038574

>  <fragmenstein_outcome>  (248) 
too moved

>  <fragmenstein_mode>  (248) 
expansion

>  <fragmenstein_error>  (248) 


$$$$
C574-P59
     RDKit          3D

 45 47  0  0  0  0  0  0  0  0999 V2000
   -1.4135    0.9168   35.9839 C   0  0  0  0  0  0  0  0  0  0  0  0
   -2.5953    1.2184   35.2310 O   0  0  0  0  0  0  0  0  0  0  0  0
   -3.0777    0.3712   34.2844 C   0  0  0  0  0  0  0  0  0  0  0  0
   -4.0596    0.7002   33.6174 O   0  0  0  0  0  0  0  0  0  0  0  0
   -2.4071   -0.9968   34.1567 C   0  0  0  0  0  0  0  0  0  0  0  0
   -2.7720   -1.6554   32.9099 N   0  0  0  0  0  0  0  0  0  0  0  0
   -2.0214   -1.7341   31.7637 C   0  0  0  0  0  0  0  0  0  0  0  0
   -2.2372   -2.6633   30.8755 N   0  0  0  0  0  0  0  0  0  0  0  0
   -1.3845   -2.5622   29.6362 C   0  0  0  0  0  0  0  0  0  0  0  0
   -2.1348   -1.7304   28.7037 N   0  0  0  0  0  0  0  0  0  0  0  0
   -1.4095   -0.8109   27.8221 C   0  0  0  0  0  0  0  0  0  0  0  0
   -1.5197    0.6616   28.2530 C   0  0  0  0  0  0  0  0  0  0  0  0
   -1.5667    1.5529   27.1245 N   0  0  0  0  0  0  0  0  0  0  0  0
   -2.6033    1.6862   26.2625 C   0  0  0  0  0  0  0  0  0  0  0  0
   -2.2293    2.4382   25.2570 N   0  0  0  0  0  0  0  0  0  0  0  0
   -0.9679    2.9044   25.5361 N   0  0  0  0  0  0  0  0  0  0  0  0
   -0.5980    2.3920   26.6871 C   0  0  0  0  0  0  0  0  0  0  0  0
    0.0032   -2.2506   29.9502 N   0  0  0  0  0  0  0  0  0  0  0  0
    1.0725   -2.7978   29.1472 C   0  0  0  0  0  0  0  0  0  0  0  0
    0.0835   -1.1069   30.6455 C   0  0  0  0  0  0  0  0  0  0  0  0
   -0.9290   -0.7886   31.5625 C   0  0  0  0  0  0  0  0  0  0  0  0
   -0.7290    0.4219   32.0951 N   0  0  0  0  0  0  0  0  0  0  0  0
    0.3859    0.9326   31.4146 O   0  0  0  0  0  0  0  0  0  0  0  0
    0.8540    0.0039   30.5245 C   0  0  0  0  0  0  0  0  0  0  0  0
    1.8855    0.4240   29.5633 C   0  0  0  0  0  0  0  0  0  0  0  0
   -0.5401    0.9062   35.3262 H   0  0  0  0  0  0  0  0  0  0  0  0
   -1.2772    1.7112   36.7230 H   0  0  0  0  0  0  0  0  0  0  0  0
   -1.5249   -0.0314   36.5170 H   0  0  0  0  0  0  0  0  0  0  0  0
   -2.7697   -1.6094   34.9896 H   0  0  0  0  0  0  0  0  0  0  0  0
   -1.3212   -0.9308   34.2431 H   0  0  0  0  0  0  0  0  0  0  0  0
   -3.4349   -2.4158   33.0200 H   0  0  0  0  0  0  0  0  0  0  0  0
   -1.3697   -3.5749   29.2226 H   0  0  0  0  0  0  0  0  0  0  0  0
   -2.6533   -2.4000   28.1174 H   0  0  0  0  0  0  0  0  0  0  0  0
   -0.3782   -1.0904   27.6124 H   0  0  0  0  0  0  0  0  0  0  0  0
   -1.9194   -0.9060   26.8569 H   0  0  0  0  0  0  0  0  0  0  0  0
   -2.4397    0.8338   28.8194 H   0  0  0  0  0  0  0  0  0  0  0  0
   -0.6994    0.9873   28.8821 H   0  0  0  0  0  0  0  0  0  0  0  0
   -3.5680    1.2200   26.3796 H   0  0  0  0  0  0  0  0  0  0  0  0
    0.3357    2.5749   27.1983 H   0  0  0  0  0  0  0  0  0  0  0  0
    0.8515   -3.8280   28.8500 H   0  0  0  0  0  0  0  0  0  0  0  0
    1.2598   -2.2180   28.2408 H   0  0  0  0  0  0  0  0  0  0  0  0
    2.0040   -2.8281   29.7238 H   0  0  0  0  0  0  0  0  0  0  0  0
    2.8258   -0.0983   29.7646 H   0  0  0  0  0  0  0  0  0  0  0  0
    1.5885    0.2075   28.5334 H   0  0  0  0  0  0  0  0  0  0  0  0
    2.0762    1.4995   29.6349 H   0  0  0  0  0  0  0  0  0  0  0  0
  1  2  1  0
  2  3  1  0
  3  4  2  0
  3  5  1  0
  5  6  1  0
  6  7  1  0
  7  8  2  0
  8  9  1  0
  9 10  1  0
 10 11  1  0
 11 12  1  0
 12 13  1  0
 13 14  1  0
 14 15  2  0
 15 16  1  0
 16 17  2  0
  9 18  1  0
 18 19  1  0
 18 20  1  0
 20 21  1  0
 21 22  2  0
 22 23  1  0
 23 24  1  0
 24 25  1  0
 21  7  1  0
 17 13  1  0
 24 20  2  0
  1 26  1  0
  1 27  1  0
  1 28  1  0
  5 29  1  0
  5 30  1  0
  6 31  1  0
  9 32  1  0
 10 33  1  0
 11 34  1  0
 11 35  1  0
 12 36  1  0
 12 37  1  0
 14 38  1  0
 17 39  1  0
 19 40  1  0
 19 41  1  0
 19 42  1  0
 25 43  1  0
 25 44  1  0
 25 45  1  0
M  END
>  <Energy>  (249) 
-33.138703268631197

>  <compound_id>  (249) 
574

>  <target_id>  (249) 
1

>  <reference_id>  (249) 
59

>  <inspiration_ids>  (249) 
[59, 13]

>  <energy_score>  (249) 
-12.932590796122838

>  <distance_score>  (249) 
2.373836730557024

>  <path>  (249) 
/opt/xchem-fragalysis-2/maxwin/BulkDock/SCRATCH/505733/C574-P59/C574-P59.minimised.mol

>  <scratch_subdir>  (249) 
/opt/xchem-fragalysis-2/maxwin/BulkDock/SCRATCH/505733/C574-P59

>  <fragmenstein_runtime>  (249) 
4.229928016662598

>  <fragmenstein_outcome>  (249) 
too moved

>  <fragmenstein_mode>  (249) 
expansion

>  <fragmenstein_error>  (249) 


$$$$
C574-P13
     RDKit          3D

 45 47  0  0  0  0  0  0  0  0999 V2000
   -6.9935   -0.4781   34.2989 C   0  0  0  0  0  0  0  0  0  0  0  0
   -5.8632   -1.3380   34.1586 O   0  0  0  0  0  0  0  0  0  0  0  0
   -4.7704   -0.7274   33.6176 C   0  0  0  0  0  0  0  0  0  0  0  0
   -4.6934    0.4582   33.3108 O   0  0  0  0  0  0  0  0  0  0  0  0
   -3.6458   -1.7301   33.4556 C   0  0  0  0  0  0  0  0  0  0  0  0
   -2.4730   -1.0973   32.8947 N   0  0  0  0  0  0  0  0  0  0  0  0
   -1.8582   -1.4703   31.7329 C   0  0  0  0  0  0  0  0  0  0  0  0
   -2.1847   -2.4466   30.9441 N   0  0  0  0  0  0  0  0  0  0  0  0
   -1.3615   -2.5363   29.6827 C   0  0  0  0  0  0  0  0  0  0  0  0
   -2.0835   -1.7946   28.6574 N   0  0  0  0  0  0  0  0  0  0  0  0
   -1.3789   -0.8151   27.8233 C   0  0  0  0  0  0  0  0  0  0  0  0
   -1.4946    0.6457   28.2878 C   0  0  0  0  0  0  0  0  0  0  0  0
   -1.5301    1.5646   27.1799 N   0  0  0  0  0  0  0  0  0  0  0  0
   -2.5548    1.7302   26.3093 C   0  0  0  0  0  0  0  0  0  0  0  0
   -2.1621    2.5105   25.3325 N   0  0  0  0  0  0  0  0  0  0  0  0
   -0.8985    2.9536   25.6361 N   0  0  0  0  0  0  0  0  0  0  0  0
   -0.5473    2.4048   26.7752 C   0  0  0  0  0  0  0  0  0  0  0  0
    0.0585   -2.2905   29.9019 N   0  0  0  0  0  0  0  0  0  0  0  0
    1.0407   -2.9405   29.0657 C   0  0  0  0  0  0  0  0  0  0  0  0
    0.2523   -1.1115   30.5126 C   0  0  0  0  0  0  0  0  0  0  0  0
   -0.6949   -0.6564   31.4336 C   0  0  0  0  0  0  0  0  0  0  0  0
   -0.3958    0.5633   31.8926 N   0  0  0  0  0  0  0  0  0  0  0  0
    0.7271    0.9487   31.1440 O   0  0  0  0  0  0  0  0  0  0  0  0
    1.0868   -0.0624   30.2910 C   0  0  0  0  0  0  0  0  0  0  0  0
    2.0848    0.2378   29.2542 C   0  0  0  0  0  0  0  0  0  0  0  0
   -7.3956   -0.2438   33.3109 H   0  0  0  0  0  0  0  0  0  0  0  0
   -7.7562   -1.0167   34.8678 H   0  0  0  0  0  0  0  0  0  0  0  0
   -6.7341    0.4320   34.8487 H   0  0  0  0  0  0  0  0  0  0  0  0
   -4.0061   -2.5424   32.8184 H   0  0  0  0  0  0  0  0  0  0  0  0
   -3.3904   -2.1009   34.4514 H   0  0  0  0  0  0  0  0  0  0  0  0
   -2.1718   -0.2252   33.3237 H   0  0  0  0  0  0  0  0  0  0  0  0
   -1.4300   -3.5938   29.4084 H   0  0  0  0  0  0  0  0  0  0  0  0
   -2.4953   -2.5091   28.0402 H   0  0  0  0  0  0  0  0  0  0  0  0
   -0.3485   -1.0793   27.5892 H   0  0  0  0  0  0  0  0  0  0  0  0
   -1.8999   -0.8768   26.8616 H   0  0  0  0  0  0  0  0  0  0  0  0
   -2.4141    0.8051   28.8552 H   0  0  0  0  0  0  0  0  0  0  0  0
   -0.6780    0.9602   28.9259 H   0  0  0  0  0  0  0  0  0  0  0  0
   -3.5262    1.2706   26.3967 H   0  0  0  0  0  0  0  0  0  0  0  0
    0.3830    2.5621   27.3008 H   0  0  0  0  0  0  0  0  0  0  0  0
    0.7455   -3.9707   28.8451 H   0  0  0  0  0  0  0  0  0  0  0  0
    1.1938   -2.4208   28.1177 H   0  0  0  0  0  0  0  0  0  0  0  0
    2.0066   -2.9921   29.5808 H   0  0  0  0  0  0  0  0  0  0  0  0
    2.9483   -0.4272   29.3515 H   0  0  0  0  0  0  0  0  0  0  0  0
    1.6675    0.1132   28.2512 H   0  0  0  0  0  0  0  0  0  0  0  0
    2.4449    1.2680   29.3392 H   0  0  0  0  0  0  0  0  0  0  0  0
  1  2  1  0
  2  3  1  0
  3  4  2  0
  3  5  1  0
  5  6  1  0
  6  7  1  0
  7  8  2  0
  8  9  1  0
  9 10  1  0
 10 11  1  0
 11 12  1  0
 12 13  1  0
 13 14  1  0
 14 15  2  0
 15 16  1  0
 16 17  2  0
  9 18  1  0
 18 19  1  0
 18 20  1  0
 20 21  1  0
 21 22  2  0
 22 23  1  0
 23 24  1  0
 24 25  1  0
 21  7  1  0
 17 13  1  0
 24 20  2  0
  1 26  1  0
  1 27  1  0
  1 28  1  0
  5 29  1  0
  5 30  1  0
  6 31  1  0
  9 32  1  0
 10 33  1  0
 11 34  1  0
 11 35  1  0
 12 36  1  0
 12 37  1  0
 14 38  1  0
 17 39  1  0
 19 40  1  0
 19 41  1  0
 19 42  1  0
 25 43  1  0
 25 44  1  0
 25 45  1  0
M  END
>  <Energy>  (250) 
-49.091781037355958

>  <compound_id>  (250) 
574

>  <target_id>  (250) 
1

>  <reference_id>  (250) 
13

>  <inspiration_ids>  (250) 
[59, 13]

>  <energy_score>  (250) 
-28.885668564846412

>  <distance_score>  (250) 
1.7873887563152442

>  <path>  (250) 
/opt/xchem-fragalysis-2/maxwin/BulkDock/SCRATCH/505733/C574-P13/C574-P13.minimised.mol

>  <scratch_subdir>  (250) 
/opt/xchem-fragalysis-2/maxwin/BulkDock/SCRATCH/505733/C574-P13

>  <fragmenstein_runtime>  (250) 
4.968547582626343

>  <fragmenstein_outcome>  (250) 
too moved

>  <fragmenstein_mode>  (250) 
expansion

>  <fragmenstein_error>  (250) 


$$$$
C575-P59
     RDKit          3D

 66 69  0  0  0  0  0  0  0  0999 V2000
   -6.2581   -0.1063   35.3527 C   0  0  0  0  0  0  0  0  0  0  0  0
   -4.8758   -0.4629   35.4601 O   0  0  0  0  0  0  0  0  0  0  0  0
   -4.1491   -0.1513   34.3541 C   0  0  0  0  0  0  0  0  0  0  0  0
   -4.5947    0.3789   33.3381 O   0  0  0  0  0  0  0  0  0  0  0  0
   -2.6785   -0.5237   34.5224 C   0  0  0  0  0  0  0  0  0  0  0  0
   -2.0406   -0.4008   33.2353 N   0  0  0  0  0  0  0  0  0  0  0  0
   -0.7111   -0.7416   32.7971 C   0  0  0  0  0  0  0  0  0  0  0  0
    0.2815   -1.1607   33.4286 N   0  0  0  0  0  0  0  0  0  0  0  0
    0.3861   -1.3017   34.8646 C   0  0  0  0  0  0  0  0  0  0  0  0
    0.0139   -2.7193   35.2668 C   0  0  0  0  0  0  0  0  0  0  0  0
    1.1150   -3.7505   34.9652 C   0  0  0  0  0  0  0  0  0  0  0  0
    0.4681   -5.0917   34.6844 C   0  0  0  0  0  0  0  0  0  0  0  0
    0.2355   -6.0126   35.6646 C   0  0  0  0  0  0  0  0  0  0  0  0
    0.7369   -5.8253   37.0421 C   0  0  0  0  0  0  0  0  0  0  0  0
    1.9967   -6.3290   37.3862 C   0  0  0  0  0  0  0  0  0  0  0  0
    2.5148   -6.1329   38.6698 C   0  0  0  0  0  0  0  0  0  0  0  0
    1.7777   -5.4328   39.6277 C   0  0  0  0  0  0  0  0  0  0  0  0
    2.2016   -5.1762   40.9062 O   0  0  0  0  0  0  0  0  0  0  0  0
    3.5013   -5.6191   41.2698 C   0  0  0  0  0  0  0  0  0  0  0  0
    0.4978   -4.9553   39.2923 C   0  0  0  0  0  0  0  0  0  0  0  0
   -0.1725   -4.2279   40.2462 O   0  0  0  0  0  0  0  0  0  0  0  0
   -1.5498   -4.5652   40.3728 C   0  0  0  0  0  0  0  0  0  0  0  0
   -0.0200   -5.1510   38.0058 C   0  0  0  0  0  0  0  0  0  0  0  0
   -0.5485   -7.2019   35.3377 C   0  0  0  0  0  0  0  0  0  0  0  0
   -1.0282   -7.4187   34.1058 C   0  0  0  0  0  0  0  0  0  0  0  0
   -0.7156   -6.5312   33.0599 C   0  0  0  0  0  0  0  0  0  0  0  0
   -1.0074   -6.5849   31.7827 N   0  0  0  0  0  0  0  0  0  0  0  0
   -0.4458   -5.4912   31.1926 N   0  0  0  0  0  0  0  0  0  0  0  0
    0.1640   -4.7754   32.1144 C   0  0  0  0  0  0  0  0  0  0  0  0
    0.8742   -3.6553   31.8705 N   0  0  0  0  0  0  0  0  0  0  0  0
    0.0192   -5.3884   33.3626 N   0  0  0  0  0  0  0  0  0  0  0  0
   -0.5608   -0.6085   31.3327 C   0  0  0  0  0  0  0  0  0  0  0  0
   -1.5619   -0.6217   30.3216 C   0  0  0  0  0  0  0  0  0  0  0  0
   -0.8789   -0.4461   29.1464 C   0  0  0  0  0  0  0  0  0  0  0  0
   -1.2855   -0.3470   27.7349 C   0  0  0  0  0  0  0  0  0  0  0  0
    0.4475   -0.3580   29.4133 O   0  0  0  0  0  0  0  0  0  0  0  0
    0.6535   -0.4747   30.7721 N   0  0  0  0  0  0  0  0  0  0  0  0
   -6.7260   -0.6287   34.5120 H   0  0  0  0  0  0  0  0  0  0  0  0
   -6.3651    0.9778   35.2473 H   0  0  0  0  0  0  0  0  0  0  0  0
   -6.7587   -0.4170   36.2738 H   0  0  0  0  0  0  0  0  0  0  0  0
   -2.6282   -1.5534   34.8812 H   0  0  0  0  0  0  0  0  0  0  0  0
   -2.2430    0.1721   35.2436 H   0  0  0  0  0  0  0  0  0  0  0  0
   -2.5569   -0.0142   32.4505 H   0  0  0  0  0  0  0  0  0  0  0  0
    1.4173   -1.0856   35.1673 H   0  0  0  0  0  0  0  0  0  0  0  0
   -0.2279   -0.5720   35.3962 H   0  0  0  0  0  0  0  0  0  0  0  0
   -0.1848   -2.7278   36.3450 H   0  0  0  0  0  0  0  0  0  0  0  0
   -0.9253   -3.0018   34.7769 H   0  0  0  0  0  0  0  0  0  0  0  0
    1.7807   -3.4500   34.1544 H   0  0  0  0  0  0  0  0  0  0  0  0
    1.7890   -3.7972   35.8288 H   0  0  0  0  0  0  0  0  0  0  0  0
    2.5932   -6.8655   36.6514 H   0  0  0  0  0  0  0  0  0  0  0  0
    3.4997   -6.5331   38.8864 H   0  0  0  0  0  0  0  0  0  0  0  0
    3.6808   -5.3151   42.3056 H   0  0  0  0  0  0  0  0  0  0  0  0
    3.5721   -6.7109   41.2271 H   0  0  0  0  0  0  0  0  0  0  0  0
    4.2688   -5.1474   40.6473 H   0  0  0  0  0  0  0  0  0  0  0  0
   -1.7089   -5.6479   40.3285 H   0  0  0  0  0  0  0  0  0  0  0  0
   -2.1376   -4.0468   39.6098 H   0  0  0  0  0  0  0  0  0  0  0  0
   -1.8918   -4.2156   41.3516 H   0  0  0  0  0  0  0  0  0  0  0  0
   -0.9907   -4.7475   37.7374 H   0  0  0  0  0  0  0  0  0  0  0  0
   -0.7654   -7.9104   36.1338 H   0  0  0  0  0  0  0  0  0  0  0  0
   -1.6462   -8.2701   33.8682 H   0  0  0  0  0  0  0  0  0  0  0  0
    0.8237   -2.8622   32.5150 H   0  0  0  0  0  0  0  0  0  0  0  0
    0.7962   -3.2882   30.9221 H   0  0  0  0  0  0  0  0  0  0  0  0
   -2.6283   -0.7453   30.4198 H   0  0  0  0  0  0  0  0  0  0  0  0
   -0.4337   -0.1016   27.0960 H   0  0  0  0  0  0  0  0  0  0  0  0
   -1.7198   -1.2924   27.3996 H   0  0  0  0  0  0  0  0  0  0  0  0
   -2.0379    0.4377   27.6080 H   0  0  0  0  0  0  0  0  0  0  0  0
  1  2  1  0
  2  3  1  0
  3  4  2  0
  3  5  1  0
  5  6  1  0
  6  7  1  0
  7  8  2  3
  8  9  1  0
  9 10  1  0
 10 11  1  0
 11 12  1  0
 12 13  2  0
 13 14  1  0
 14 15  2  0
 15 16  1  0
 16 17  2  0
 17 18  1  0
 18 19  1  0
 17 20  1  0
 20 21  1  0
 21 22  1  0
 20 23  2  0
 13 24  1  0
 24 25  2  0
 25 26  1  0
 26 27  2  0
 27 28  1  0
 28 29  2  0
 29 30  1  0
 29 31  1  0
  7 32  1  0
 32 33  1  0
 33 34  2  0
 34 35  1  0
 34 36  1  0
 36 37  1  0
 31 12  1  0
 37 32  2  0
 23 14  1  0
 31 26  1  0
  1 38  1  0
  1 39  1  0
  1 40  1  0
  5 41  1  0
  5 42  1  0
  6 43  1  0
  9 44  1  0
  9 45  1  0
 10 46  1  0
 10 47  1  0
 11 48  1  0
 11 49  1  0
 15 50  1  0
 16 51  1  0
 19 52  1  0
 19 53  1  0
 19 54  1  0
 22 55  1  0
 22 56  1  0
 22 57  1  0
 23 58  1  0
 24 59  1  0
 25 60  1  0
 30 61  1  0
 30 62  1  0
 33 63  1  0
 35 64  1  0
 35 65  1  0
 35 66  1  0
M  END
>  <Energy>  (251) 
112.26892589953445

>  <compound_id>  (251) 
575

>  <target_id>  (251) 
1

>  <reference_id>  (251) 
59

>  <inspiration_ids>  (251) 
[59, 25]

>  <energy_score>  (251) 
-67.57371101836196

>  <distance_score>  (251) 
1.577836292068065

>  <path>  (251) 
/opt/xchem-fragalysis-2/maxwin/BulkDock/SCRATCH/505733/C575-P59/C575-P59.minimised.mol

>  <scratch_subdir>  (251) 
/opt/xchem-fragalysis-2/maxwin/BulkDock/SCRATCH/505733/C575-P59

>  <fragmenstein_runtime>  (251) 
10.21725344657898

>  <fragmenstein_outcome>  (251) 
too moved

>  <fragmenstein_mode>  (251) 
expansion

>  <fragmenstein_error>  (251) 


$$$$
C575-P25
     RDKit          3D

 66 69  0  0  0  0  0  0  0  0999 V2000
   -6.2235   -0.1943   35.0471 C   0  0  0  0  0  0  0  0  0  0  0  0
   -5.2786   -1.2188   34.7306 O   0  0  0  0  0  0  0  0  0  0  0  0
   -4.3401   -0.8364   33.8187 C   0  0  0  0  0  0  0  0  0  0  0  0
   -4.2394    0.2832   33.3252 O   0  0  0  0  0  0  0  0  0  0  0  0
   -3.4375   -2.0054   33.4590 C   0  0  0  0  0  0  0  0  0  0  0  0
   -2.5407   -1.6158   32.4089 N   0  0  0  0  0  0  0  0  0  0  0  0
   -1.0225   -1.9125   32.2072 C   0  0  0  0  0  0  0  0  0  0  0  0
   -0.2672   -2.6047   32.8451 N   0  0  0  0  0  0  0  0  0  0  0  0
    1.1763   -2.5506   32.6245 C   0  0  0  0  0  0  0  0  0  0  0  0
    1.8854   -3.3689   33.6970 C   0  0  0  0  0  0  0  0  0  0  0  0
    1.8958   -4.8831   33.4564 C   0  0  0  0  0  0  0  0  0  0  0  0
    0.7366   -5.7130   33.9898 C   0  0  0  0  0  0  0  0  0  0  0  0
    0.5914   -5.9978   35.3184 C   0  0  0  0  0  0  0  0  0  0  0  0
    1.4699   -5.4228   36.3596 C   0  0  0  0  0  0  0  0  0  0  0  0
    2.6821   -6.0359   36.6859 C   0  0  0  0  0  0  0  0  0  0  0  0
    3.4884   -5.5081   37.6975 C   0  0  0  0  0  0  0  0  0  0  0  0
    3.0870   -4.3661   38.3991 C   0  0  0  0  0  0  0  0  0  0  0  0
    3.8157   -3.7763   39.4019 O   0  0  0  0  0  0  0  0  0  0  0  0
    5.0344   -4.3953   39.7860 C   0  0  0  0  0  0  0  0  0  0  0  0
    1.8593   -3.7499   38.0816 C   0  0  0  0  0  0  0  0  0  0  0  0
    1.5343   -2.6360   38.8162 O   0  0  0  0  0  0  0  0  0  0  0  0
    0.3756   -1.9100   38.4309 C   0  0  0  0  0  0  0  0  0  0  0  0
    1.0534   -4.2920   37.0743 C   0  0  0  0  0  0  0  0  0  0  0  0
   -0.4515   -6.9391   35.7330 C   0  0  0  0  0  0  0  0  0  0  0  0
   -1.2066   -7.6063   34.8504 C   0  0  0  0  0  0  0  0  0  0  0  0
   -1.0315   -7.3722   33.4699 C   0  0  0  0  0  0  0  0  0  0  0  0
   -1.5456   -7.9689   32.4181 N   0  0  0  0  0  0  0  0  0  0  0  0
   -1.0868   -7.3194   31.3074 N   0  0  0  0  0  0  0  0  0  0  0  0
   -0.3268   -6.3210   31.7015 C   0  0  0  0  0  0  0  0  0  0  0  0
    0.1782   -5.3511   30.9068 N   0  0  0  0  0  0  0  0  0  0  0  0
   -0.1367   -6.3786   33.0801 N   0  0  0  0  0  0  0  0  0  0  0  0
   -0.6230   -1.1305   31.0428 C   0  0  0  0  0  0  0  0  0  0  0  0
   -0.8591   -1.4358   29.6826 C   0  0  0  0  0  0  0  0  0  0  0  0
   -0.4230   -0.3216   29.0156 C   0  0  0  0  0  0  0  0  0  0  0  0
   -0.3894    0.0756   27.6035 C   0  0  0  0  0  0  0  0  0  0  0  0
    0.0707    0.5765   29.9054 O   0  0  0  0  0  0  0  0  0  0  0  0
   -0.0816    0.0854   31.1876 N   0  0  0  0  0  0  0  0  0  0  0  0
   -6.8254   -0.5414   35.8917 H   0  0  0  0  0  0  0  0  0  0  0  0
   -6.8881   -0.0296   34.1954 H   0  0  0  0  0  0  0  0  0  0  0  0
   -5.7217    0.7329   35.3414 H   0  0  0  0  0  0  0  0  0  0  0  0
   -4.0698   -2.8196   33.1003 H   0  0  0  0  0  0  0  0  0  0  0  0
   -2.8741   -2.2850   34.3520 H   0  0  0  0  0  0  0  0  0  0  0  0
   -2.8420   -0.9189   31.7299 H   0  0  0  0  0  0  0  0  0  0  0  0
    1.4630   -2.8930   31.6245 H   0  0  0  0  0  0  0  0  0  0  0  0
    1.5265   -1.5162   32.7336 H   0  0  0  0  0  0  0  0  0  0  0  0
    2.9339   -3.0419   33.7065 H   0  0  0  0  0  0  0  0  0  0  0  0
    1.4790   -3.1149   34.6788 H   0  0  0  0  0  0  0  0  0  0  0  0
    2.0884   -5.0834   32.4005 H   0  0  0  0  0  0  0  0  0  0  0  0
    2.8066   -5.2726   33.9339 H   0  0  0  0  0  0  0  0  0  0  0  0
    3.0057   -6.9308   36.1606 H   0  0  0  0  0  0  0  0  0  0  0  0
    4.4231   -6.0129   37.9169 H   0  0  0  0  0  0  0  0  0  0  0  0
    5.4641   -3.8092   40.6041 H   0  0  0  0  0  0  0  0  0  0  0  0
    4.8627   -5.4103   40.1591 H   0  0  0  0  0  0  0  0  0  0  0  0
    5.7550   -4.3925   38.9616 H   0  0  0  0  0  0  0  0  0  0  0  0
   -0.5307   -2.5030   38.5912 H   0  0  0  0  0  0  0  0  0  0  0  0
    0.4473   -1.5674   37.3931 H   0  0  0  0  0  0  0  0  0  0  0  0
    0.3089   -1.0237   39.0691 H   0  0  0  0  0  0  0  0  0  0  0  0
    0.0967   -3.8469   36.8175 H   0  0  0  0  0  0  0  0  0  0  0  0
   -0.5748   -7.1207   36.7982 H   0  0  0  0  0  0  0  0  0  0  0  0
   -1.9410   -8.3358   35.1681 H   0  0  0  0  0  0  0  0  0  0  0  0
    0.0810   -4.4069   31.2751 H   0  0  0  0  0  0  0  0  0  0  0  0
   -0.1609   -5.3827   29.9440 H   0  0  0  0  0  0  0  0  0  0  0  0
   -1.3078   -2.3186   29.2499 H   0  0  0  0  0  0  0  0  0  0  0  0
    0.6231   -0.0388   27.2101 H   0  0  0  0  0  0  0  0  0  0  0  0
   -1.0782   -0.5324   27.0113 H   0  0  0  0  0  0  0  0  0  0  0  0
   -0.6863    1.1226   27.4861 H   0  0  0  0  0  0  0  0  0  0  0  0
  1  2  1  0
  2  3  1  0
  3  4  2  0
  3  5  1  0
  5  6  1  0
  6  7  1  0
  7  8  2  3
  8  9  1  0
  9 10  1  0
 10 11  1  0
 11 12  1  0
 12 13  2  0
 13 14  1  0
 14 15  2  0
 15 16  1  0
 16 17  2  0
 17 18  1  0
 18 19  1  0
 17 20  1  0
 20 21  1  0
 21 22  1  0
 20 23  2  0
 13 24  1  0
 24 25  2  0
 25 26  1  0
 26 27  2  0
 27 28  1  0
 28 29  2  0
 29 30  1  0
 29 31  1  0
  7 32  1  0
 32 33  1  0
 33 34  2  0
 34 35  1  0
 34 36  1  0
 36 37  1  0
 31 12  1  0
 37 32  2  0
 23 14  1  0
 31 26  1  0
  1 38  1  0
  1 39  1  0
  1 40  1  0
  5 41  1  0
  5 42  1  0
  6 43  1  0
  9 44  1  0
  9 45  1  0
 10 46  1  0
 10 47  1  0
 11 48  1  0
 11 49  1  0
 15 50  1  0
 16 51  1  0
 19 52  1  0
 19 53  1  0
 19 54  1  0
 22 55  1  0
 22 56  1  0
 22 57  1  0
 23 58  1  0
 24 59  1  0
 25 60  1  0
 30 61  1  0
 30 62  1  0
 33 63  1  0
 35 64  1  0
 35 65  1  0
 35 66  1  0
M  END
>  <Energy>  (252) 
133.54363085347833

>  <compound_id>  (252) 
575

>  <target_id>  (252) 
1

>  <reference_id>  (252) 
25

>  <inspiration_ids>  (252) 
[59, 25]

>  <energy_score>  (252) 
-59.30385401225675

>  <distance_score>  (252) 
0.9649383834102053

>  <path>  (252) 
/opt/xchem-fragalysis-2/maxwin/BulkDock/SCRATCH/505733/C575-P25/C575-P25.minimised.mol

>  <scratch_subdir>  (252) 
/opt/xchem-fragalysis-2/maxwin/BulkDock/SCRATCH/505733/C575-P25

>  <fragmenstein_runtime>  (252) 
6.279796123504639

>  <fragmenstein_outcome>  (252) 
acceptable

>  <fragmenstein_mode>  (252) 
expansion

>  <fragmenstein_error>  (252) 


$$$$
C575-P59
     RDKit          3D

 66 69  0  0  0  0  0  0  0  0999 V2000
   -6.9497    0.3403   35.2764 C   0  0  0  0  0  0  0  0  0  0  0  0
   -6.0762   -0.7103   34.8501 O   0  0  0  0  0  0  0  0  0  0  0  0
   -5.1049   -0.3524   33.9666 C   0  0  0  0  0  0  0  0  0  0  0  0
   -4.8834    0.7777   33.5429 O   0  0  0  0  0  0  0  0  0  0  0  0
   -4.3006   -1.5689   33.5578 C   0  0  0  0  0  0  0  0  0  0  0  0
   -3.3486   -1.2439   32.5336 N   0  0  0  0  0  0  0  0  0  0  0  0
   -2.3515   -2.0338   31.8950 C   0  0  0  0  0  0  0  0  0  0  0  0
   -2.0852   -3.2451   31.9900 N   0  0  0  0  0  0  0  0  0  0  0  0
   -0.8424   -3.8318   31.5287 C   0  0  0  0  0  0  0  0  0  0  0  0
   -0.0661   -4.2620   32.7755 C   0  0  0  0  0  0  0  0  0  0  0  0
    1.2670   -4.9740   32.5056 C   0  0  0  0  0  0  0  0  0  0  0  0
    1.7733   -4.9617   31.0751 C   0  0  0  0  0  0  0  0  0  0  0  0
    1.6138   -5.9863   30.1721 C   0  0  0  0  0  0  0  0  0  0  0  0
    0.7501   -7.2367   30.3588 C   0  0  0  0  0  0  0  0  0  0  0  0
    0.8330   -8.2794   29.4446 C   0  0  0  0  0  0  0  0  0  0  0  0
   -0.1171   -9.2932   29.3494 C   0  0  0  0  0  0  0  0  0  0  0  0
   -0.7263   -9.7384   30.4999 C   0  0  0  0  0  0  0  0  0  0  0  0
   -0.5201  -11.2745   30.7921 O   0  0  0  0  0  0  0  0  0  0  0  0
    1.1017  -12.2793   30.8683 C   0  0  0  0  0  0  0  0  0  0  0  0
   -0.9118   -8.7090   31.4607 C   0  0  0  0  0  0  0  0  0  0  0  0
   -1.8369   -8.8124   32.4576 O   0  0  0  0  0  0  0  0  0  0  0  0
   -1.6104   -7.9624   33.5986 C   0  0  0  0  0  0  0  0  0  0  0  0
   -0.2563   -7.4477   31.2847 C   0  0  0  0  0  0  0  0  0  0  0  0
    2.3916   -5.8319   28.9063 C   0  0  0  0  0  0  0  0  0  0  0  0
    3.1139   -4.7593   28.5700 C   0  0  0  0  0  0  0  0  0  0  0  0
    3.1830   -3.6846   29.4607 C   0  0  0  0  0  0  0  0  0  0  0  0
    3.8271   -2.5482   29.3731 N   0  0  0  0  0  0  0  0  0  0  0  0
    3.5801   -1.8504   30.5182 N   0  0  0  0  0  0  0  0  0  0  0  0
    2.7556   -2.5524   31.2606 C   0  0  0  0  0  0  0  0  0  0  0  0
    2.1829   -2.1070   32.4037 N   0  0  0  0  0  0  0  0  0  0  0  0
    2.5148   -3.7962   30.6730 N   0  0  0  0  0  0  0  0  0  0  0  0
   -1.5861   -1.1572   30.9920 C   0  0  0  0  0  0  0  0  0  0  0  0
   -1.4443   -1.2627   29.5851 C   0  0  0  0  0  0  0  0  0  0  0  0
   -0.6522   -0.1975   29.2421 C   0  0  0  0  0  0  0  0  0  0  0  0
   -0.1060    0.2976   27.9659 C   0  0  0  0  0  0  0  0  0  0  0  0
   -0.3415    0.5094   30.3615 O   0  0  0  0  0  0  0  0  0  0  0  0
   -0.9438   -0.0765   31.4635 N   0  0  0  0  0  0  0  0  0  0  0  0
   -6.4888    1.3308   35.2214 H   0  0  0  0  0  0  0  0  0  0  0  0
   -7.2170    0.1487   36.3196 H   0  0  0  0  0  0  0  0  0  0  0  0
   -7.8627    0.3047   34.6769 H   0  0  0  0  0  0  0  0  0  0  0  0
   -4.9811   -2.3255   33.1686 H   0  0  0  0  0  0  0  0  0  0  0  0
   -3.7794   -1.9425   34.4433 H   0  0  0  0  0  0  0  0  0  0  0  0
   -3.2110   -0.2666   32.2722 H   0  0  0  0  0  0  0  0  0  0  0  0
   -1.0658   -4.6947   30.9058 H   0  0  0  0  0  0  0  0  0  0  0  0
   -0.2278   -3.1652   30.9243 H   0  0  0  0  0  0  0  0  0  0  0  0
    0.1132   -3.3854   33.4101 H   0  0  0  0  0  0  0  0  0  0  0  0
   -0.6945   -4.9094   33.3993 H   0  0  0  0  0  0  0  0  0  0  0  0
    1.2170   -6.0026   32.8810 H   0  0  0  0  0  0  0  0  0  0  0  0
    2.0351   -4.5532   33.1684 H   0  0  0  0  0  0  0  0  0  0  0  0
    1.5718   -8.2951   28.6559 H   0  0  0  0  0  0  0  0  0  0  0  0
   -0.1228   -9.8809   28.4674 H   0  0  0  0  0  0  0  0  0  0  0  0
    1.4867  -12.3529   29.8689 H   0  0  0  0  0  0  0  0  0  0  0  0
    2.1288  -11.9766   31.1978 H   0  0  0  0  0  0  0  0  0  0  0  0
    0.9918  -12.9154   31.7454 H   0  0  0  0  0  0  0  0  0  0  0  0
   -0.5827   -8.0462   33.9699 H   0  0  0  0  0  0  0  0  0  0  0  0
   -2.2954   -8.2556   34.3998 H   0  0  0  0  0  0  0  0  0  0  0  0
   -1.8474   -6.9213   33.3771 H   0  0  0  0  0  0  0  0  0  0  0  0
   -0.5451   -6.6300   31.9161 H   0  0  0  0  0  0  0  0  0  0  0  0
    2.4239   -6.6260   28.1758 H   0  0  0  0  0  0  0  0  0  0  0  0
    3.6676   -4.6999   27.6392 H   0  0  0  0  0  0  0  0  0  0  0  0
    1.2117   -1.8185   32.2729 H   0  0  0  0  0  0  0  0  0  0  0  0
    2.6394   -1.2438   32.7067 H   0  0  0  0  0  0  0  0  0  0  0  0
   -1.8625   -2.0066   28.9211 H   0  0  0  0  0  0  0  0  0  0  0  0
    0.1257    1.3656   28.0222 H   0  0  0  0  0  0  0  0  0  0  0  0
    0.8123   -0.2404   27.7121 H   0  0  0  0  0  0  0  0  0  0  0  0
   -0.8281    0.1524   27.1568 H   0  0  0  0  0  0  0  0  0  0  0  0
  1  2  1  0
  2  3  1  0
  3  4  2  0
  3  5  1  0
  5  6  1  0
  6  7  1  0
  7  8  2  3
  8  9  1  0
  9 10  1  0
 10 11  1  0
 11 12  1  0
 12 13  2  0
 13 14  1  0
 14 15  2  0
 15 16  1  0
 16 17  2  0
 17 18  1  0
 18 19  1  0
 17 20  1  0
 20 21  1  0
 21 22  1  0
 20 23  2  0
 13 24  1  0
 24 25  2  0
 25 26  1  0
 26 27  2  0
 27 28  1  0
 28 29  2  0
 29 30  1  0
 29 31  1  0
  7 32  1  0
 32 33  1  0
 33 34  2  0
 34 35  1  0
 34 36  1  0
 36 37  1  0
 31 12  1  0
 37 32  2  0
 23 14  1  0
 31 26  1  0
  1 38  1  0
  1 39  1  0
  1 40  1  0
  5 41  1  0
  5 42  1  0
  6 43  1  0
  9 44  1  0
  9 45  1  0
 10 46  1  0
 10 47  1  0
 11 48  1  0
 11 49  1  0
 15 50  1  0
 16 51  1  0
 19 52  1  0
 19 53  1  0
 19 54  1  0
 22 55  1  0
 22 56  1  0
 22 57  1  0
 23 58  1  0
 24 59  1  0
 25 60  1  0
 30 61  1  0
 30 62  1  0
 33 63  1  0
 35 64  1  0
 35 65  1  0
 35 66  1  0
M  END
>  <Energy>  (253) 
286.54273712052156

>  <compound_id>  (253) 
575

>  <target_id>  (253) 
1

>  <reference_id>  (253) 
59

>  <inspiration_ids>  (253) 
[59, 40]

>  <energy_score>  (253) 
110.35402386131244

>  <distance_score>  (253) 
2.0125401538003516

>  <path>  (253) 
/opt/xchem-fragalysis-2/maxwin/BulkDock/SCRATCH/505733/C575-P59/C575-P59.minimised.mol

>  <scratch_subdir>  (253) 
/opt/xchem-fragalysis-2/maxwin/BulkDock/SCRATCH/505733/C575-P59

>  <fragmenstein_runtime>  (253) 
19.37370991706848

>  <fragmenstein_outcome>  (253) 
too moved

>  <fragmenstein_mode>  (253) 
expansion

>  <fragmenstein_error>  (253) 


$$$$
C575-P40
     RDKit          3D

 66 69  0  0  0  0  0  0  0  0999 V2000
   -7.0191    0.5061   35.3966 C   0  0  0  0  0  0  0  0  0  0  0  0
   -6.3702   -0.6196   34.7977 O   0  0  0  0  0  0  0  0  0  0  0  0
   -5.3974   -0.3243   33.8955 C   0  0  0  0  0  0  0  0  0  0  0  0
   -5.0147    0.7966   33.5681 O   0  0  0  0  0  0  0  0  0  0  0  0
   -4.8160   -1.5978   33.3041 C   0  0  0  0  0  0  0  0  0  0  0  0
   -3.7511   -1.2465   32.4035 N   0  0  0  0  0  0  0  0  0  0  0  0
   -2.6918   -2.1309   31.6988 C   0  0  0  0  0  0  0  0  0  0  0  0
   -2.4624   -3.3073   31.8015 N   0  0  0  0  0  0  0  0  0  0  0  0
   -1.1526   -3.8527   31.4922 C   0  0  0  0  0  0  0  0  0  0  0  0
   -0.3123   -3.6526   32.7439 C   0  0  0  0  0  0  0  0  0  0  0  0
    1.1953   -3.5442   32.5375 C   0  0  0  0  0  0  0  0  0  0  0  0
    1.8463   -3.8789   31.2109 C   0  0  0  0  0  0  0  0  0  0  0  0
    2.2013   -5.1394   30.9086 C   0  0  0  0  0  0  0  0  0  0  0  0
    1.2568   -6.1717   31.3294 C   0  0  0  0  0  0  0  0  0  0  0  0
    0.7903   -6.6494   32.5661 C   0  0  0  0  0  0  0  0  0  0  0  0
   -0.1584   -7.6961   32.6122 C   0  0  0  0  0  0  0  0  0  0  0  0
   -0.5428   -8.3078   31.4270 C   0  0  0  0  0  0  0  0  0  0  0  0
   -1.4142   -9.3604   31.3621 O   0  0  0  0  0  0  0  0  0  0  0  0
   -1.0212  -10.3325   30.3666 C   0  0  0  0  0  0  0  0  0  0  0  0
   -0.0743   -7.7781   30.2407 C   0  0  0  0  0  0  0  0  0  0  0  0
   -0.7064   -8.0100   29.0611 O   0  0  0  0  0  0  0  0  0  0  0  0
   -1.7541   -7.0884   29.2369 C   0  0  0  0  0  0  0  0  0  0  0  0
    0.7709   -6.7308   30.1703 C   0  0  0  0  0  0  0  0  0  0  0  0
    3.0586   -5.3826   29.7132 C   0  0  0  0  0  0  0  0  0  0  0  0
    3.1405   -4.5107   28.7075 C   0  0  0  0  0  0  0  0  0  0  0  0
    2.5880   -3.2391   28.9183 C   0  0  0  0  0  0  0  0  0  0  0  0
    2.5300   -2.1977   28.1304 N   0  0  0  0  0  0  0  0  0  0  0  0
    2.1650   -1.1304   28.9077 N   0  0  0  0  0  0  0  0  0  0  0  0
    1.9042   -1.5642   30.1198 C   0  0  0  0  0  0  0  0  0  0  0  0
    1.5346   -0.8167   31.1768 N   0  0  0  0  0  0  0  0  0  0  0  0
    2.0992   -2.9213   30.1962 N   0  0  0  0  0  0  0  0  0  0  0  0
   -1.9319   -1.2384   30.8064 C   0  0  0  0  0  0  0  0  0  0  0  0
   -1.6755   -1.3937   29.4206 C   0  0  0  0  0  0  0  0  0  0  0  0
   -1.0165   -0.2502   29.0583 C   0  0  0  0  0  0  0  0  0  0  0  0
   -0.4672    0.2453   27.7853 C   0  0  0  0  0  0  0  0  0  0  0  0
   -0.8497    0.5327   30.1547 O   0  0  0  0  0  0  0  0  0  0  0  0
   -1.4281   -0.0782   31.2564 N   0  0  0  0  0  0  0  0  0  0  0  0
   -7.2834    0.2320   36.4219 H   0  0  0  0  0  0  0  0  0  0  0  0
   -7.9410    0.7190   34.8506 H   0  0  0  0  0  0  0  0  0  0  0  0
   -6.3829    1.3954   35.4375 H   0  0  0  0  0  0  0  0  0  0  0  0
   -5.6008   -2.1385   32.7683 H   0  0  0  0  0  0  0  0  0  0  0  0
   -4.4247   -2.2030   34.1235 H   0  0  0  0  0  0  0  0  0  0  0  0
   -3.7173   -0.3084   32.0167 H   0  0  0  0  0  0  0  0  0  0  0  0
   -1.2613   -4.9226   31.3189 H   0  0  0  0  0  0  0  0  0  0  0  0
   -0.7022   -3.4430   30.5893 H   0  0  0  0  0  0  0  0  0  0  0  0
   -0.6162   -2.7365   33.2700 H   0  0  0  0  0  0  0  0  0  0  0  0
   -0.5428   -4.4485   33.4629 H   0  0  0  0  0  0  0  0  0  0  0  0
    1.5080   -2.5397   32.8421 H   0  0  0  0  0  0  0  0  0  0  0  0
    1.6873   -4.1350   33.3231 H   0  0  0  0  0  0  0  0  0  0  0  0
    1.1572   -6.2398   33.5030 H   0  0  0  0  0  0  0  0  0  0  0  0
   -0.5345   -8.0586   33.5653 H   0  0  0  0  0  0  0  0  0  0  0  0
   -0.6790  -11.2314   30.8516 H   0  0  0  0  0  0  0  0  0  0  0  0
   -1.8378  -10.7675   29.8056 H   0  0  0  0  0  0  0  0  0  0  0  0
   -0.3329  -10.0138   29.5866 H   0  0  0  0  0  0  0  0  0  0  0  0
   -2.4309   -7.1527   28.3973 H   0  0  0  0  0  0  0  0  0  0  0  0
   -1.2971   -6.0965   29.2879 H   0  0  0  0  0  0  0  0  0  0  0  0
   -2.3221   -7.2421   30.1563 H   0  0  0  0  0  0  0  0  0  0  0  0
    0.9870   -6.3452   29.1756 H   0  0  0  0  0  0  0  0  0  0  0  0
    3.5637   -6.3348   29.5993 H   0  0  0  0  0  0  0  0  0  0  0  0
    3.7129   -4.7022   27.8070 H   0  0  0  0  0  0  0  0  0  0  0  0
    1.5292    0.1766   30.9361 H   0  0  0  0  0  0  0  0  0  0  0  0
    0.5925   -0.9859   31.5278 H   0  0  0  0  0  0  0  0  0  0  0  0
   -1.9568   -2.2058   28.7669 H   0  0  0  0  0  0  0  0  0  0  0  0
    0.1960    1.1015   27.9417 H   0  0  0  0  0  0  0  0  0  0  0  0
    0.1055   -0.5401   27.2896 H   0  0  0  0  0  0  0  0  0  0  0  0
   -1.2764    0.5569   27.1179 H   0  0  0  0  0  0  0  0  0  0  0  0
  1  2  1  0
  2  3  1  0
  3  4  2  0
  3  5  1  0
  5  6  1  0
  6  7  1  0
  7  8  2  3
  8  9  1  0
  9 10  1  0
 10 11  1  0
 11 12  1  0
 12 13  2  0
 13 14  1  0
 14 15  2  0
 15 16  1  0
 16 17  2  0
 17 18  1  0
 18 19  1  0
 17 20  1  0
 20 21  1  0
 21 22  1  0
 20 23  2  0
 13 24  1  0
 24 25  2  0
 25 26  1  0
 26 27  2  0
 27 28  1  0
 28 29  2  0
 29 30  1  0
 29 31  1  0
  7 32  1  0
 32 33  1  0
 33 34  2  0
 34 35  1  0
 34 36  1  0
 36 37  1  0
 31 12  1  0
 37 32  2  0
 23 14  1  0
 31 26  1  0
  1 38  1  0
  1 39  1  0
  1 40  1  0
  5 41  1  0
  5 42  1  0
  6 43  1  0
  9 44  1  0
  9 45  1  0
 10 46  1  0
 10 47  1  0
 11 48  1  0
 11 49  1  0
 15 50  1  0
 16 51  1  0
 19 52  1  0
 19 53  1  0
 19 54  1  0
 22 55  1  0
 22 56  1  0
 22 57  1  0
 23 58  1  0
 24 59  1  0
 25 60  1  0
 30 61  1  0
 30 62  1  0
 33 63  1  0
 35 64  1  0
 35 65  1  0
 35 66  1  0
M  END
>  <Energy>  (254) 
201.67071211829918

>  <compound_id>  (254) 
575

>  <target_id>  (254) 
1

>  <reference_id>  (254) 
40

>  <inspiration_ids>  (254) 
[59, 40]

>  <energy_score>  (254) 
2.6626089960925583

>  <distance_score>  (254) 
2.2281311068564444

>  <path>  (254) 
/opt/xchem-fragalysis-2/maxwin/BulkDock/SCRATCH/505733/C575-P40/C575-P40.minimised.mol

>  <scratch_subdir>  (254) 
/opt/xchem-fragalysis-2/maxwin/BulkDock/SCRATCH/505733/C575-P40

>  <fragmenstein_runtime>  (254) 
11.895166397094727

>  <fragmenstein_outcome>  (254) 
too moved

>  <fragmenstein_mode>  (254) 
expansion

>  <fragmenstein_error>  (254) 


$$$$
C576-P59
     RDKit          3D

 42 43  0  0  0  0  0  0  0  0999 V2000
   -6.6930   -0.9507   34.7994 C   0  0  0  0  0  0  0  0  0  0  0  0
   -5.3246   -1.2272   35.1299 O   0  0  0  0  0  0  0  0  0  0  0  0
   -4.4834   -1.4693   34.0926 C   0  0  0  0  0  0  0  0  0  0  0  0
   -4.8104   -1.6140   32.9165 O   0  0  0  0  0  0  0  0  0  0  0  0
   -3.0271   -1.4368   34.5421 C   0  0  0  0  0  0  0  0  0  0  0  0
   -2.1925   -0.9415   33.4451 N   0  0  0  0  0  0  0  0  0  0  0  0
   -1.6573   -1.9047   32.5032 C   0  0  0  0  0  0  0  0  0  0  0  0
   -2.5783   -2.9241   32.1597 O   0  0  0  0  0  0  0  0  0  0  0  0
   -1.2685   -1.1387   31.2321 C   0  0  0  0  0  0  0  0  0  0  0  0
   -1.3569   -1.5666   29.8809 C   0  0  0  0  0  0  0  0  0  0  0  0
   -0.8793   -0.5045   29.1549 C   0  0  0  0  0  0  0  0  0  0  0  0
   -0.6688   -0.2527   27.7214 C   0  0  0  0  0  0  0  0  0  0  0  0
   -0.5343    0.4994   29.9974 O   0  0  0  0  0  0  0  0  0  0  0  0
   -0.7971    0.1215   31.2949 N   0  0  0  0  0  0  0  0  0  0  0  0
   -0.4697   -2.5016   33.1043 N   0  0  0  0  0  0  0  0  0  0  0  0
    0.7202   -1.6964   33.3320 C   0  0  0  0  0  0  0  0  0  0  0  0
   -0.4068   -3.8295   33.4823 C   0  0  0  0  0  0  0  0  0  0  0  0
   -0.7256   -4.2175   34.6026 O   0  0  0  0  0  0  0  0  0  0  0  0
    0.1921   -4.7438   32.4327 C   0  0  0  0  0  0  0  0  0  0  0  0
   -0.4479   -6.0354   32.2745 N   0  0  0  0  0  0  0  0  0  0  0  0
   -0.6004   -6.6794   31.0809 C   0  0  0  0  0  0  0  0  0  0  0  0
   -1.1992   -7.8311   31.2669 N   0  0  0  0  0  0  0  0  0  0  0  0
   -1.3976   -7.9679   32.6196 N   0  0  0  0  0  0  0  0  0  0  0  0
   -0.9203   -6.8953   33.2143 C   0  0  0  0  0  0  0  0  0  0  0  0
   -6.9274    0.0605   35.1435 H   0  0  0  0  0  0  0  0  0  0  0  0
   -7.3264   -1.6564   35.3430 H   0  0  0  0  0  0  0  0  0  0  0  0
   -6.9134   -1.0188   33.7303 H   0  0  0  0  0  0  0  0  0  0  0  0
   -2.7063   -2.3998   34.9354 H   0  0  0  0  0  0  0  0  0  0  0  0
   -2.9480   -0.7056   35.3543 H   0  0  0  0  0  0  0  0  0  0  0  0
   -2.6773   -0.2132   32.9272 H   0  0  0  0  0  0  0  0  0  0  0  0
   -3.4342   -2.4540   32.1039 H   0  0  0  0  0  0  0  0  0  0  0  0
   -1.7158   -2.5085   29.4908 H   0  0  0  0  0  0  0  0  0  0  0  0
   -1.4766   -0.7000   27.1360 H   0  0  0  0  0  0  0  0  0  0  0  0
   -0.6517    0.8196   27.5030 H   0  0  0  0  0  0  0  0  0  0  0  0
    0.2852   -0.6819   27.4057 H   0  0  0  0  0  0  0  0  0  0  0  0
    1.2010   -1.4723   32.3760 H   0  0  0  0  0  0  0  0  0  0  0  0
    0.4602   -0.7726   33.8554 H   0  0  0  0  0  0  0  0  0  0  0  0
    1.4378   -2.2516   33.9456 H   0  0  0  0  0  0  0  0  0  0  0  0
    1.2366   -4.9379   32.7005 H   0  0  0  0  0  0  0  0  0  0  0  0
    0.1773   -4.2472   31.4557 H   0  0  0  0  0  0  0  0  0  0  0  0
   -0.2823   -6.2691   30.1351 H   0  0  0  0  0  0  0  0  0  0  0  0
   -0.9137   -6.7101   34.2803 H   0  0  0  0  0  0  0  0  0  0  0  0
  1  2  1  0
  2  3  1  0
  3  4  2  0
  3  5  1  0
  5  6  1  0
  6  7  1  0
  7  8  1  0
  7  9  1  0
  9 10  1  0
 10 11  2  0
 11 12  1  0
 11 13  1  0
 13 14  1  0
  7 15  1  0
 15 16  1  0
 15 17  1  0
 17 18  2  0
 17 19  1  0
 19 20  1  0
 20 21  1  0
 21 22  2  0
 22 23  1  0
 23 24  2  0
 14  9  2  0
 24 20  1  0
  1 25  1  0
  1 26  1  0
  1 27  1  0
  5 28  1  0
  5 29  1  0
  6 30  1  0
  8 31  1  0
 10 32  1  0
 12 33  1  0
 12 34  1  0
 12 35  1  0
 16 36  1  0
 16 37  1  0
 16 38  1  0
 19 39  1  0
 19 40  1  0
 21 41  1  0
 24 42  1  0
M  END
>  <Energy>  (255) 
-51.463741167446919

>  <compound_id>  (255) 
576

>  <target_id>  (255) 
1

>  <reference_id>  (255) 
59

>  <inspiration_ids>  (255) 
[59, 41]

>  <energy_score>  (255) 
-32.62625629216882

>  <distance_score>  (255) 
1.6308572115753648

>  <path>  (255) 
/opt/xchem-fragalysis-2/maxwin/BulkDock/SCRATCH/505733/C576-P59/C576-P59.minimised.mol

>  <scratch_subdir>  (255) 
/opt/xchem-fragalysis-2/maxwin/BulkDock/SCRATCH/505733/C576-P59

>  <fragmenstein_runtime>  (255) 
2.5366098880767822

>  <fragmenstein_outcome>  (255) 
too moved

>  <fragmenstein_mode>  (255) 
expansion

>  <fragmenstein_error>  (255) 


$$$$
C576-P41
     RDKit          3D

 42 43  0  0  0  0  0  0  0  0999 V2000
   -6.7332   -1.4437   34.5926 C   0  0  0  0  0  0  0  0  0  0  0  0
   -5.3698   -1.5383   35.0127 O   0  0  0  0  0  0  0  0  0  0  0  0
   -4.4828   -1.5822   33.9845 C   0  0  0  0  0  0  0  0  0  0  0  0
   -4.7784   -1.6446   32.7919 O   0  0  0  0  0  0  0  0  0  0  0  0
   -3.0470   -1.4346   34.4752 C   0  0  0  0  0  0  0  0  0  0  0  0
   -2.2011   -0.9384   33.3856 N   0  0  0  0  0  0  0  0  0  0  0  0
   -1.6295   -1.9061   32.4684 C   0  0  0  0  0  0  0  0  0  0  0  0
   -2.5294   -2.9372   32.1040 O   0  0  0  0  0  0  0  0  0  0  0  0
   -1.2129   -1.1470   31.2016 C   0  0  0  0  0  0  0  0  0  0  0  0
   -1.2708   -1.5854   29.8522 C   0  0  0  0  0  0  0  0  0  0  0  0
   -0.7980   -0.5211   29.1266 C   0  0  0  0  0  0  0  0  0  0  0  0
   -0.5814   -0.2709   27.6938 C   0  0  0  0  0  0  0  0  0  0  0  0
   -0.4712    0.4891   29.9689 O   0  0  0  0  0  0  0  0  0  0  0  0
   -0.7476    0.1151   31.2650 N   0  0  0  0  0  0  0  0  0  0  0  0
   -0.4542   -2.4942   33.1016 N   0  0  0  0  0  0  0  0  0  0  0  0
    0.7300   -1.6856   33.3437 C   0  0  0  0  0  0  0  0  0  0  0  0
   -0.4025   -3.8178   33.4961 C   0  0  0  0  0  0  0  0  0  0  0  0
   -0.7461   -4.1933   34.6136 O   0  0  0  0  0  0  0  0  0  0  0  0
    0.2171   -4.7474   32.4708 C   0  0  0  0  0  0  0  0  0  0  0  0
   -0.4228   -6.0413   32.3254 N   0  0  0  0  0  0  0  0  0  0  0  0
   -0.5731   -6.7037   31.1418 C   0  0  0  0  0  0  0  0  0  0  0  0
   -1.1808   -7.8483   31.3451 N   0  0  0  0  0  0  0  0  0  0  0  0
   -1.3832   -7.9644   32.6996 N   0  0  0  0  0  0  0  0  0  0  0  0
   -0.9030   -6.8845   33.2774 C   0  0  0  0  0  0  0  0  0  0  0  0
   -6.9189   -0.4628   34.1441 H   0  0  0  0  0  0  0  0  0  0  0  0
   -7.3697   -1.5507   35.4751 H   0  0  0  0  0  0  0  0  0  0  0  0
   -6.9825   -2.2404   33.8870 H   0  0  0  0  0  0  0  0  0  0  0  0
   -2.6724   -2.3514   34.9269 H   0  0  0  0  0  0  0  0  0  0  0  0
   -3.0486   -0.6605   35.2508 H   0  0  0  0  0  0  0  0  0  0  0  0
   -2.7042   -0.2399   32.8439 H   0  0  0  0  0  0  0  0  0  0  0  0
   -3.3862   -2.4747   32.0098 H   0  0  0  0  0  0  0  0  0  0  0  0
   -1.6167   -2.5323   29.4623 H   0  0  0  0  0  0  0  0  0  0  0  0
   -1.3694   -0.7448   27.1024 H   0  0  0  0  0  0  0  0  0  0  0  0
   -0.5944    0.8003   27.4701 H   0  0  0  0  0  0  0  0  0  0  0  0
    0.3878   -0.6730   27.3887 H   0  0  0  0  0  0  0  0  0  0  0  0
    1.4335   -2.2320   33.9811 H   0  0  0  0  0  0  0  0  0  0  0  0
    1.2319   -1.4749   32.3956 H   0  0  0  0  0  0  0  0  0  0  0  0
    0.4577   -0.7548   33.8480 H   0  0  0  0  0  0  0  0  0  0  0  0
    1.2567   -4.9372   32.7594 H   0  0  0  0  0  0  0  0  0  0  0  0
    0.2174   -4.2674   31.4855 H   0  0  0  0  0  0  0  0  0  0  0  0
   -0.2470   -6.3139   30.1895 H   0  0  0  0  0  0  0  0  0  0  0  0
   -0.8985   -6.6818   34.3402 H   0  0  0  0  0  0  0  0  0  0  0  0
  1  2  1  0
  2  3  1  0
  3  4  2  0
  3  5  1  0
  5  6  1  0
  6  7  1  0
  7  8  1  0
  7  9  1  0
  9 10  1  0
 10 11  2  0
 11 12  1  0
 11 13  1  0
 13 14  1  0
  7 15  1  0
 15 16  1  0
 15 17  1  0
 17 18  2  0
 17 19  1  0
 19 20  1  0
 20 21  1  0
 21 22  2  0
 22 23  1  0
 23 24  2  0
 14  9  2  0
 24 20  1  0
  1 25  1  0
  1 26  1  0
  1 27  1  0
  5 28  1  0
  5 29  1  0
  6 30  1  0
  8 31  1  0
 10 32  1  0
 12 33  1  0
 12 34  1  0
 12 35  1  0
 16 36  1  0
 16 37  1  0
 16 38  1  0
 19 39  1  0
 19 40  1  0
 21 41  1  0
 24 42  1  0
M  END
>  <Energy>  (256) 
-53.216923619739859

>  <compound_id>  (256) 
576

>  <target_id>  (256) 
1

>  <reference_id>  (256) 
41

>  <inspiration_ids>  (256) 
[59, 41]

>  <energy_score>  (256) 
-34.379438744459776

>  <distance_score>  (256) 
1.8180682212952122

>  <path>  (256) 
/opt/xchem-fragalysis-2/maxwin/BulkDock/SCRATCH/505733/C576-P41/C576-P41.minimised.mol

>  <scratch_subdir>  (256) 
/opt/xchem-fragalysis-2/maxwin/BulkDock/SCRATCH/505733/C576-P41

>  <fragmenstein_runtime>  (256) 
2.3964056968688965

>  <fragmenstein_outcome>  (256) 
too moved

>  <fragmenstein_mode>  (256) 
expansion

>  <fragmenstein_error>  (256) 


$$$$
C577-P59
     RDKit          3D

 44 45  0  0  0  0  0  0  0  0999 V2000
   -4.8703   -0.9239   36.0285 C   0  0  0  0  0  0  0  0  0  0  0  0
   -4.1770    0.1631   35.4024 O   0  0  0  0  0  0  0  0  0  0  0  0
   -3.1480   -0.0549   34.5474 C   0  0  0  0  0  0  0  0  0  0  0  0
   -2.5707    0.8932   34.0158 O   0  0  0  0  0  0  0  0  0  0  0  0
   -2.7366   -1.5000   34.3016 C   0  0  0  0  0  0  0  0  0  0  0  0
   -1.7799   -1.5764   33.2208 N   0  0  0  0  0  0  0  0  0  0  0  0
   -1.8168   -2.2869   31.9917 C   0  0  0  0  0  0  0  0  0  0  0  0
   -2.6131   -3.0681   31.5669 O   0  0  0  0  0  0  0  0  0  0  0  0
   -0.6400   -2.0001   31.1522 C   0  0  0  0  0  0  0  0  0  0  0  0
   -0.0856   -2.9075   30.1934 C   0  0  0  0  0  0  0  0  0  0  0  0
    0.9933   -2.2805   29.6229 C   0  0  0  0  0  0  0  0  0  0  0  0
    1.9405   -2.6314   28.5533 C   0  0  0  0  0  0  0  0  0  0  0  0
    1.1636   -1.0603   30.1812 O   0  0  0  0  0  0  0  0  0  0  0  0
    0.1085   -0.8313   31.0118 C   0  0  0  0  0  0  0  0  0  0  0  0
   -0.0058    0.5773   31.5262 C   0  0  0  0  0  0  0  0  0  0  0  0
    0.0499    1.6758   30.4628 N   0  0  0  0  0  0  0  0  0  0  0  0
    1.4596    1.8004   30.9740 C   0  0  0  0  0  0  0  0  0  0  0  0
    0.0501    1.5920   29.0225 C   0  0  0  0  0  0  0  0  0  0  0  0
    0.0973    0.6360   28.2958 O   0  0  0  0  0  0  0  0  0  0  0  0
   -0.1130    3.0000   28.4517 C   0  0  0  0  0  0  0  0  0  0  0  0
   -0.4412    2.9899   27.0427 N   0  0  0  0  0  0  0  0  0  0  0  0
   -1.6361    2.6738   26.4739 C   0  0  0  0  0  0  0  0  0  0  0  0
   -1.5464    2.8257   25.1704 N   0  0  0  0  0  0  0  0  0  0  0  0
   -0.2693    3.2558   24.8848 N   0  0  0  0  0  0  0  0  0  0  0  0
    0.3812    3.3479   26.0218 C   0  0  0  0  0  0  0  0  0  0  0  0
   -5.5884   -0.4996   36.7357 H   0  0  0  0  0  0  0  0  0  0  0  0
   -4.1761   -1.5589   36.5857 H   0  0  0  0  0  0  0  0  0  0  0  0
   -5.4236   -1.4995   35.2813 H   0  0  0  0  0  0  0  0  0  0  0  0
   -3.6102   -2.0798   34.0005 H   0  0  0  0  0  0  0  0  0  0  0  0
   -2.2626   -1.9105   35.1956 H   0  0  0  0  0  0  0  0  0  0  0  0
   -0.9122   -1.0640   33.2779 H   0  0  0  0  0  0  0  0  0  0  0  0
   -0.4567   -3.8915   29.9440 H   0  0  0  0  0  0  0  0  0  0  0  0
    2.9438   -2.7763   28.9655 H   0  0  0  0  0  0  0  0  0  0  0  0
    1.6428   -3.5577   28.0537 H   0  0  0  0  0  0  0  0  0  0  0  0
    1.9895   -1.8348   27.8056 H   0  0  0  0  0  0  0  0  0  0  0  0
    0.4696    0.7200   32.5114 H   0  0  0  0  0  0  0  0  0  0  0  0
   -1.0684    0.6579   31.7963 H   0  0  0  0  0  0  0  0  0  0  0  0
    2.1180    0.9325   30.8459 H   0  0  0  0  0  0  0  0  0  0  0  0
    1.5088    2.2581   31.9739 H   0  0  0  0  0  0  0  0  0  0  0  0
    1.9385    2.5601   30.3386 H   0  0  0  0  0  0  0  0  0  0  0  0
    0.8208    3.5568   28.5776 H   0  0  0  0  0  0  0  0  0  0  0  0
   -0.9165    3.5354   28.9600 H   0  0  0  0  0  0  0  0  0  0  0  0
   -2.5103    2.3498   27.0226 H   0  0  0  0  0  0  0  0  0  0  0  0
    1.4087    3.6586   26.1439 H   0  0  0  0  0  0  0  0  0  0  0  0
  1  2  1  0
  2  3  1  0
  3  4  2  0
  3  5  1  0
  5  6  1  0
  6  7  1  0
  7  8  2  0
  7  9  1  0
  9 10  1  0
 10 11  2  0
 11 12  1  0
 11 13  1  0
 13 14  1  0
 14 15  1  0
 15 16  1  0
 16 17  1  0
 16 18  1  0
 18 19  2  0
 18 20  1  0
 20 21  1  0
 21 22  1  0
 22 23  2  0
 23 24  1  0
 24 25  2  0
 14  9  2  0
 25 21  1  0
  1 26  1  0
  1 27  1  0
  1 28  1  0
  5 29  1  0
  5 30  1  0
  6 31  1  0
 10 32  1  0
 12 33  1  0
 12 34  1  0
 12 35  1  0
 15 36  1  0
 15 37  1  0
 17 38  1  0
 17 39  1  0
 17 40  1  0
 20 41  1  0
 20 42  1  0
 22 43  1  0
 25 44  1  0
M  END
>  <Energy>  (257) 
85.89393505256281

>  <compound_id>  (257) 
577

>  <target_id>  (257) 
1

>  <reference_id>  (257) 
59

>  <inspiration_ids>  (257) 
[59, 44]

>  <energy_score>  (257) 
67.16419006476269

>  <distance_score>  (257) 
2.1748044303585226

>  <path>  (257) 
/opt/xchem-fragalysis-2/maxwin/BulkDock/SCRATCH/505733/C577-P59/C577-P59.minimised.mol

>  <scratch_subdir>  (257) 
/opt/xchem-fragalysis-2/maxwin/BulkDock/SCRATCH/505733/C577-P59

>  <fragmenstein_runtime>  (257) 
4.962462425231934

>  <fragmenstein_outcome>  (257) 
too moved

>  <fragmenstein_mode>  (257) 
expansion

>  <fragmenstein_error>  (257) 


$$$$
C577-P44
     RDKit          3D

 44 45  0  0  0  0  0  0  0  0999 V2000
   -6.3420   -0.4987   34.3802 C   0  0  0  0  0  0  0  0  0  0  0  0
   -5.0813   -1.0915   34.7079 O   0  0  0  0  0  0  0  0  0  0  0  0
   -4.0224   -0.5299   34.0603 C   0  0  0  0  0  0  0  0  0  0  0  0
   -4.0868    0.4649   33.3438 O   0  0  0  0  0  0  0  0  0  0  0  0
   -2.7291   -1.2637   34.3898 C   0  0  0  0  0  0  0  0  0  0  0  0
   -1.8463   -1.2794   33.2435 N   0  0  0  0  0  0  0  0  0  0  0  0
   -1.8821   -2.0508   32.0478 C   0  0  0  0  0  0  0  0  0  0  0  0
   -2.6940   -2.8289   31.6463 O   0  0  0  0  0  0  0  0  0  0  0  0
   -0.6996   -1.8208   31.1949 C   0  0  0  0  0  0  0  0  0  0  0  0
   -0.2055   -2.7707   30.2415 C   0  0  0  0  0  0  0  0  0  0  0  0
    0.8991   -2.2136   29.6499 C   0  0  0  0  0  0  0  0  0  0  0  0
    1.8148   -2.6343   28.5788 C   0  0  0  0  0  0  0  0  0  0  0  0
    1.1402   -0.9958   30.1847 O   0  0  0  0  0  0  0  0  0  0  0  0
    0.1121   -0.6979   31.0287 C   0  0  0  0  0  0  0  0  0  0  0  0
    0.1056    0.7221   31.5206 C   0  0  0  0  0  0  0  0  0  0  0  0
    0.0815    1.7867   30.4213 N   0  0  0  0  0  0  0  0  0  0  0  0
    1.5351    1.8968   30.7942 C   0  0  0  0  0  0  0  0  0  0  0  0
   -0.0550    1.6588   28.9897 C   0  0  0  0  0  0  0  0  0  0  0  0
   -0.0936    0.6803   28.2935 O   0  0  0  0  0  0  0  0  0  0  0  0
   -0.2643    3.0518   28.3937 C   0  0  0  0  0  0  0  0  0  0  0  0
   -0.5029    3.0144   26.9675 N   0  0  0  0  0  0  0  0  0  0  0  0
   -1.6649    2.6993   26.3335 C   0  0  0  0  0  0  0  0  0  0  0  0
   -1.4982    2.8367   25.0360 N   0  0  0  0  0  0  0  0  0  0  0  0
   -0.2028    3.2534   24.8210 N   0  0  0  0  0  0  0  0  0  0  0  0
    0.3808    3.3542   25.9930 C   0  0  0  0  0  0  0  0  0  0  0  0
   -6.5227   -0.5469   33.3016 H   0  0  0  0  0  0  0  0  0  0  0  0
   -6.3779    0.5344   34.7385 H   0  0  0  0  0  0  0  0  0  0  0  0
   -7.1252   -1.0700   34.8862 H   0  0  0  0  0  0  0  0  0  0  0  0
   -2.9441   -2.2946   34.6626 H   0  0  0  0  0  0  0  0  0  0  0  0
   -2.2280   -0.7545   35.2168 H   0  0  0  0  0  0  0  0  0  0  0  0
   -0.9672   -0.7921   33.2924 H   0  0  0  0  0  0  0  0  0  0  0  0
   -0.6342   -3.7361   30.0105 H   0  0  0  0  0  0  0  0  0  0  0  0
    2.8166   -2.8117   28.9819 H   0  0  0  0  0  0  0  0  0  0  0  0
    1.4706   -3.5600   28.1094 H   0  0  0  0  0  0  0  0  0  0  0  0
    1.8878   -1.8602   27.8099 H   0  0  0  0  0  0  0  0  0  0  0  0
    0.7022    0.8597   32.4386 H   0  0  0  0  0  0  0  0  0  0  0  0
   -0.9111    0.8604   31.9149 H   0  0  0  0  0  0  0  0  0  0  0  0
    1.9664    2.6260   30.0924 H   0  0  0  0  0  0  0  0  0  0  0  0
    1.6859    2.3840   31.7698 H   0  0  0  0  0  0  0  0  0  0  0  0
    2.1626    1.0120   30.6321 H   0  0  0  0  0  0  0  0  0  0  0  0
    0.6187    3.6734   28.5708 H   0  0  0  0  0  0  0  0  0  0  0  0
   -1.1326    3.5348   28.8448 H   0  0  0  0  0  0  0  0  0  0  0  0
   -2.5718    2.3880   26.8349 H   0  0  0  0  0  0  0  0  0  0  0  0
    1.4014    3.6602   26.1716 H   0  0  0  0  0  0  0  0  0  0  0  0
  1  2  1  0
  2  3  1  0
  3  4  2  0
  3  5  1  0
  5  6  1  0
  6  7  1  0
  7  8  2  0
  7  9  1  0
  9 10  1  0
 10 11  2  0
 11 12  1  0
 11 13  1  0
 13 14  1  0
 14 15  1  0
 15 16  1  0
 16 17  1  0
 16 18  1  0
 18 19  2  0
 18 20  1  0
 20 21  1  0
 21 22  1  0
 22 23  2  0
 23 24  1  0
 24 25  2  0
 14  9  2  0
 25 21  1  0
  1 26  1  0
  1 27  1  0
  1 28  1  0
  5 29  1  0
  5 30  1  0
  6 31  1  0
 10 32  1  0
 12 33  1  0
 12 34  1  0
 12 35  1  0
 15 36  1  0
 15 37  1  0
 17 38  1  0
 17 39  1  0
 17 40  1  0
 20 41  1  0
 20 42  1  0
 22 43  1  0
 25 44  1  0
M  END
>  <Energy>  (258) 
81.442873646538388

>  <compound_id>  (258) 
577

>  <target_id>  (258) 
1

>  <reference_id>  (258) 
44

>  <inspiration_ids>  (258) 
[59, 44]

>  <energy_score>  (258) 
62.71312865873986

>  <distance_score>  (258) 
1.9395822935334035

>  <path>  (258) 
/opt/xchem-fragalysis-2/maxwin/BulkDock/SCRATCH/505733/C577-P44/C577-P44.minimised.mol

>  <scratch_subdir>  (258) 
/opt/xchem-fragalysis-2/maxwin/BulkDock/SCRATCH/505733/C577-P44

>  <fragmenstein_runtime>  (258) 
4.96094274520874

>  <fragmenstein_outcome>  (258) 
too moved

>  <fragmenstein_mode>  (258) 
expansion

>  <fragmenstein_error>  (258) 


$$$$
C578-P59
     RDKit          3D

 62 65  0  0  0  0  0  0  0  0999 V2000
    3.4682    2.3442   36.0817 C   0  0  0  0  0  0  0  0  0  0  0  0
    3.5695    2.3504   34.6519 N   0  0  0  0  0  0  0  0  0  0  0  0
    4.2151    1.3373   33.6919 C   0  0  0  0  0  0  0  0  0  0  0  0
    4.6988    0.3008   33.9033 O   0  0  0  0  0  0  0  0  0  0  0  0
    4.1239    1.8424   32.2915 C   0  0  0  0  0  0  0  0  0  0  0  0
    4.7508    3.0685   32.0029 C   0  0  0  0  0  0  0  0  0  0  0  0
    4.6227    3.6566   30.7406 C   0  0  0  0  0  0  0  0  0  0  0  0
    3.8848    3.0174   29.7424 C   0  0  0  0  0  0  0  0  0  0  0  0
    3.5109    3.7496   28.5037 C   0  0  0  0  0  0  0  0  0  0  0  0
    4.3544    4.5998   27.6519 C   0  0  0  0  0  0  0  0  0  0  0  0
    3.8485    5.3116   26.6202 C   0  0  0  0  0  0  0  0  0  0  0  0
    2.4599    5.2502   26.3404 C   0  0  0  0  0  0  0  0  0  0  0  0
    1.6862    5.8091   25.4368 N   0  0  0  0  0  0  0  0  0  0  0  0
    0.3963    5.3771   25.6633 N   0  0  0  0  0  0  0  0  0  0  0  0
    0.4046    4.6024   26.7199 C   0  0  0  0  0  0  0  0  0  0  0  0
   -0.6535    4.0197   27.3254 N   0  0  0  0  0  0  0  0  0  0  0  0
    1.6945    4.4567   27.1661 N   0  0  0  0  0  0  0  0  0  0  0  0
    2.1961    3.7231   28.2195 C   0  0  0  0  0  0  0  0  0  0  0  0
    3.3382    1.7397   30.0226 C   0  0  0  0  0  0  0  0  0  0  0  0
    3.4172    1.1448   31.2977 C   0  0  0  0  0  0  0  0  0  0  0  0
    2.6972   -0.1726   31.5519 C   0  0  0  0  0  0  0  0  0  0  0  0
    1.2465   -0.0311   32.0765 C   0  0  0  0  0  0  0  0  0  0  0  0
    0.2162   -0.3502   31.0364 C   0  0  0  0  0  0  0  0  0  0  0  0
    0.4182    0.2493   29.8285 O   0  0  0  0  0  0  0  0  0  0  0  0
   -0.4904   -0.2591   28.9603 C   0  0  0  0  0  0  0  0  0  0  0  0
   -0.3930    0.2021   27.5692 C   0  0  0  0  0  0  0  0  0  0  0  0
   -1.3211   -1.1400   29.6031 C   0  0  0  0  0  0  0  0  0  0  0  0
   -0.9185   -1.1539   30.9710 C   0  0  0  0  0  0  0  0  0  0  0  0
   -1.6144   -1.8918   32.0221 C   0  0  0  0  0  0  0  0  0  0  0  0
   -1.9716   -2.9837   31.8345 O   0  0  0  0  0  0  0  0  0  0  0  0
   -1.8319   -0.9677   33.2263 N   0  0  0  0  0  0  0  0  0  0  0  0
   -2.6187   -1.1549   34.4232 C   0  0  0  0  0  0  0  0  0  0  0  0
   -3.9865   -0.5194   34.1922 C   0  0  0  0  0  0  0  0  0  0  0  0
   -4.1832    0.4457   33.4560 O   0  0  0  0  0  0  0  0  0  0  0  0
   -4.9469   -1.1280   34.9425 O   0  0  0  0  0  0  0  0  0  0  0  0
   -6.2616   -0.6036   34.7305 C   0  0  0  0  0  0  0  0  0  0  0  0
    3.9519    1.4496   36.4797 H   0  0  0  0  0  0  0  0  0  0  0  0
    3.9570    3.2409   36.4684 H   0  0  0  0  0  0  0  0  0  0  0  0
    2.4108    2.3540   36.3548 H   0  0  0  0  0  0  0  0  0  0  0  0
    3.1733    3.1170   34.1188 H   0  0  0  0  0  0  0  0  0  0  0  0
    5.3204    3.5844   32.7737 H   0  0  0  0  0  0  0  0  0  0  0  0
    5.0566    4.6389   30.5676 H   0  0  0  0  0  0  0  0  0  0  0  0
    5.4178    4.6338   27.8705 H   0  0  0  0  0  0  0  0  0  0  0  0
    4.4790    5.9303   25.9916 H   0  0  0  0  0  0  0  0  0  0  0  0
   -0.6953    4.0869   28.3406 H   0  0  0  0  0  0  0  0  0  0  0  0
   -1.5444    4.3542   26.9507 H   0  0  0  0  0  0  0  0  0  0  0  0
    1.4589    3.1737   28.7936 H   0  0  0  0  0  0  0  0  0  0  0  0
    2.7822    1.2179   29.2421 H   0  0  0  0  0  0  0  0  0  0  0  0
    2.7305   -0.7780   30.6358 H   0  0  0  0  0  0  0  0  0  0  0  0
    3.2740   -0.7600   32.2741 H   0  0  0  0  0  0  0  0  0  0  0  0
    1.1163   -0.7359   32.9070 H   0  0  0  0  0  0  0  0  0  0  0  0
    1.0602    0.9722   32.4766 H   0  0  0  0  0  0  0  0  0  0  0  0
    0.5804   -0.0677   27.1524 H   0  0  0  0  0  0  0  0  0  0  0  0
   -0.4967    1.2881   27.5190 H   0  0  0  0  0  0  0  0  0  0  0  0
   -1.1824   -0.2381   26.9548 H   0  0  0  0  0  0  0  0  0  0  0  0
   -2.1371   -1.6897   29.1507 H   0  0  0  0  0  0  0  0  0  0  0  0
   -1.4521   -0.0520   33.0219 H   0  0  0  0  0  0  0  0  0  0  0  0
   -2.1202   -0.6635   35.2611 H   0  0  0  0  0  0  0  0  0  0  0  0
   -2.7243   -2.2249   34.5982 H   0  0  0  0  0  0  0  0  0  0  0  0
   -6.5499   -0.7005   33.6787 H   0  0  0  0  0  0  0  0  0  0  0  0
   -6.3119    0.4405   35.0541 H   0  0  0  0  0  0  0  0  0  0  0  0
   -6.9599   -1.1892   35.3350 H   0  0  0  0  0  0  0  0  0  0  0  0
  1  2  1  0
  2  3  1  0
  3  4  2  0
  3  5  1  0
  5  6  2  0
  6  7  1  0
  7  8  2  0
  8  9  1  0
  9 10  1  0
 10 11  2  0
 11 12  1  0
 12 13  2  0
 13 14  1  0
 14 15  2  0
 15 16  1  0
 15 17  1  0
 17 18  1  0
  8 19  1  0
 19 20  2  0
 20 21  1  0
 21 22  1  0
 22 23  1  0
 23 24  1  0
 24 25  1  0
 25 26  1  0
 25 27  2  0
 27 28  1  0
 28 29  1  0
 29 30  2  0
 29 31  1  0
 31 32  1  0
 32 33  1  0
 33 34  2  0
 33 35  1  0
 35 36  1  0
 20  5  1  0
 28 23  2  0
 18  9  2  0
 17 12  1  0
  1 37  1  0
  1 38  1  0
  1 39  1  0
  2 40  1  0
  6 41  1  0
  7 42  1  0
 10 43  1  0
 11 44  1  0
 16 45  1  0
 16 46  1  0
 18 47  1  0
 19 48  1  0
 21 49  1  0
 21 50  1  0
 22 51  1  0
 22 52  1  0
 26 53  1  0
 26 54  1  0
 26 55  1  0
 27 56  1  0
 31 57  1  0
 32 58  1  0
 32 59  1  0
 36 60  1  0
 36 61  1  0
 36 62  1  0
M  END
>  <Energy>  (259) 
89.676962065836022

>  <compound_id>  (259) 
578

>  <target_id>  (259) 
1

>  <reference_id>  (259) 
59

>  <inspiration_ids>  (259) 
[59, 53]

>  <energy_score>  (259) 
-71.21284052499203

>  <distance_score>  (259) 
1.8050157615438605

>  <path>  (259) 
/opt/xchem-fragalysis-2/maxwin/BulkDock/SCRATCH/505733/C578-P59/C578-P59.minimised.mol

>  <scratch_subdir>  (259) 
/opt/xchem-fragalysis-2/maxwin/BulkDock/SCRATCH/505733/C578-P59

>  <fragmenstein_runtime>  (259) 
4.33970046043396

>  <fragmenstein_outcome>  (259) 
too moved

>  <fragmenstein_mode>  (259) 
expansion

>  <fragmenstein_error>  (259) 


$$$$
C578-P53
     RDKit          3D

 62 65  0  0  0  0  0  0  0  0999 V2000
    3.4178    2.1400   36.0150 C   0  0  0  0  0  0  0  0  0  0  0  0
    3.6264    2.2454   34.6009 N   0  0  0  0  0  0  0  0  0  0  0  0
    4.3065    1.2795   33.6169 C   0  0  0  0  0  0  0  0  0  0  0  0
    4.8725    0.2817   33.8095 O   0  0  0  0  0  0  0  0  0  0  0  0
    4.1934    1.8093   32.2299 C   0  0  0  0  0  0  0  0  0  0  0  0
    4.8233    3.0342   31.9470 C   0  0  0  0  0  0  0  0  0  0  0  0
    4.6725    3.6397   30.6954 C   0  0  0  0  0  0  0  0  0  0  0  0
    3.9107    3.0178   29.7035 C   0  0  0  0  0  0  0  0  0  0  0  0
    3.5218    3.7642   28.4778 C   0  0  0  0  0  0  0  0  0  0  0  0
    4.3546    4.6345   27.6355 C   0  0  0  0  0  0  0  0  0  0  0  0
    3.8384    5.3571   26.6169 C   0  0  0  0  0  0  0  0  0  0  0  0
    2.4500    5.2844   26.3392 C   0  0  0  0  0  0  0  0  0  0  0  0
    1.6702    5.8474   25.4440 N   0  0  0  0  0  0  0  0  0  0  0  0
    0.3857    5.3958   25.6640 N   0  0  0  0  0  0  0  0  0  0  0  0
    0.4027    4.6049   26.7089 C   0  0  0  0  0  0  0  0  0  0  0  0
   -0.6467    3.9925   27.3003 N   0  0  0  0  0  0  0  0  0  0  0  0
    1.6942    4.4708   27.1545 N   0  0  0  0  0  0  0  0  0  0  0  0
    2.2062    3.7287   28.1969 C   0  0  0  0  0  0  0  0  0  0  0  0
    3.3613    1.7403   29.9779 C   0  0  0  0  0  0  0  0  0  0  0  0
    3.4602    1.1306   31.2434 C   0  0  0  0  0  0  0  0  0  0  0  0
    2.7318   -0.1805   31.5003 C   0  0  0  0  0  0  0  0  0  0  0  0
    1.2822   -0.0211   32.0214 C   0  0  0  0  0  0  0  0  0  0  0  0
    0.2480   -0.3579   30.9906 C   0  0  0  0  0  0  0  0  0  0  0  0
    0.4459    0.2187   29.7710 O   0  0  0  0  0  0  0  0  0  0  0  0
   -0.4659   -0.3059   28.9152 C   0  0  0  0  0  0  0  0  0  0  0  0
   -0.3745    0.1278   27.5134 C   0  0  0  0  0  0  0  0  0  0  0  0
   -1.2934   -1.1752   29.5786 C   0  0  0  0  0  0  0  0  0  0  0  0
   -0.8874   -1.1628   30.9456 C   0  0  0  0  0  0  0  0  0  0  0  0
   -1.5664   -1.8886   32.0174 C   0  0  0  0  0  0  0  0  0  0  0  0
   -1.9431   -2.9764   31.8407 O   0  0  0  0  0  0  0  0  0  0  0  0
   -1.7407   -0.9593   33.2261 N   0  0  0  0  0  0  0  0  0  0  0  0
   -2.4990   -1.1344   34.4427 C   0  0  0  0  0  0  0  0  0  0  0  0
   -3.9027   -0.5761   34.2330 C   0  0  0  0  0  0  0  0  0  0  0  0
   -4.1670    0.3770   33.5038 O   0  0  0  0  0  0  0  0  0  0  0  0
   -4.8148   -1.2408   34.9970 O   0  0  0  0  0  0  0  0  0  0  0  0
   -6.1605   -0.7968   34.8023 C   0  0  0  0  0  0  0  0  0  0  0  0
    2.3442    2.1781   36.2113 H   0  0  0  0  0  0  0  0  0  0  0  0
    3.8339    1.1977   36.3778 H   0  0  0  0  0  0  0  0  0  0  0  0
    3.9118    2.9830   36.5029 H   0  0  0  0  0  0  0  0  0  0  0  0
    3.2984    3.0640   34.0997 H   0  0  0  0  0  0  0  0  0  0  0  0
    5.4122    3.5345   32.7133 H   0  0  0  0  0  0  0  0  0  0  0  0
    5.1098    4.6211   30.5263 H   0  0  0  0  0  0  0  0  0  0  0  0
    5.4179    4.6772   27.8531 H   0  0  0  0  0  0  0  0  0  0  0  0
    4.4597    5.9946   25.9985 H   0  0  0  0  0  0  0  0  0  0  0  0
   -1.5424    4.3042   26.9155 H   0  0  0  0  0  0  0  0  0  0  0  0
   -0.7085    4.0641   28.3150 H   0  0  0  0  0  0  0  0  0  0  0  0
    1.4746    3.1648   28.7641 H   0  0  0  0  0  0  0  0  0  0  0  0
    2.7882    1.2303   29.2020 H   0  0  0  0  0  0  0  0  0  0  0  0
    2.7631   -0.7898   30.5869 H   0  0  0  0  0  0  0  0  0  0  0  0
    3.3016   -0.7672   32.2291 H   0  0  0  0  0  0  0  0  0  0  0  0
    1.1509   -0.7063   32.8679 H   0  0  0  0  0  0  0  0  0  0  0  0
    1.1001    0.9913   32.3999 H   0  0  0  0  0  0  0  0  0  0  0  0
    0.6145   -0.1052   27.1101 H   0  0  0  0  0  0  0  0  0  0  0  0
   -0.5308    1.2063   27.4362 H   0  0  0  0  0  0  0  0  0  0  0  0
   -1.1332   -0.3663   26.9004 H   0  0  0  0  0  0  0  0  0  0  0  0
   -2.1074   -1.7354   29.1366 H   0  0  0  0  0  0  0  0  0  0  0  0
   -1.3540   -0.0491   33.0106 H   0  0  0  0  0  0  0  0  0  0  0  0
   -2.0062   -0.5919   35.2524 H   0  0  0  0  0  0  0  0  0  0  0  0
   -2.5459   -2.2003   34.6618 H   0  0  0  0  0  0  0  0  0  0  0  0
   -6.4559   -0.9084   33.7538 H   0  0  0  0  0  0  0  0  0  0  0  0
   -6.2704    0.2418   35.1291 H   0  0  0  0  0  0  0  0  0  0  0  0
   -6.8150   -1.4247   35.4132 H   0  0  0  0  0  0  0  0  0  0  0  0
  1  2  1  0
  2  3  1  0
  3  4  2  0
  3  5  1  0
  5  6  2  0
  6  7  1  0
  7  8  2  0
  8  9  1  0
  9 10  1  0
 10 11  2  0
 11 12  1  0
 12 13  2  0
 13 14  1  0
 14 15  2  0
 15 16  1  0
 15 17  1  0
 17 18  1  0
  8 19  1  0
 19 20  2  0
 20 21  1  0
 21 22  1  0
 22 23  1  0
 23 24  1  0
 24 25  1  0
 25 26  1  0
 25 27  2  0
 27 28  1  0
 28 29  1  0
 29 30  2  0
 29 31  1  0
 31 32  1  0
 32 33  1  0
 33 34  2  0
 33 35  1  0
 35 36  1  0
 20  5  1  0
 28 23  2  0
 18  9  2  0
 17 12  1  0
  1 37  1  0
  1 38  1  0
  1 39  1  0
  2 40  1  0
  6 41  1  0
  7 42  1  0
 10 43  1  0
 11 44  1  0
 16 45  1  0
 16 46  1  0
 18 47  1  0
 19 48  1  0
 21 49  1  0
 21 50  1  0
 22 51  1  0
 22 52  1  0
 26 53  1  0
 26 54  1  0
 26 55  1  0
 27 56  1  0
 31 57  1  0
 32 58  1  0
 32 59  1  0
 36 60  1  0
 36 61  1  0
 36 62  1  0
M  END
>  <Energy>  (260) 
89.765660247191306

>  <compound_id>  (260) 
578

>  <target_id>  (260) 
1

>  <reference_id>  (260) 
53

>  <inspiration_ids>  (260) 
[59, 53]

>  <energy_score>  (260) 
-71.12414234363587

>  <distance_score>  (260) 
1.812260014093501

>  <path>  (260) 
/opt/xchem-fragalysis-2/maxwin/BulkDock/SCRATCH/505733/C578-P53/C578-P53.minimised.mol

>  <scratch_subdir>  (260) 
/opt/xchem-fragalysis-2/maxwin/BulkDock/SCRATCH/505733/C578-P53

>  <fragmenstein_runtime>  (260) 
3.689373016357422

>  <fragmenstein_outcome>  (260) 
too moved

>  <fragmenstein_mode>  (260) 
expansion

>  <fragmenstein_error>  (260) 


$$$$
C579-P59
     RDKit          3D

 64 66  0  0  0  0  0  0  0  0999 V2000
   -6.4601   -0.6745   34.4576 C   0  0  0  0  0  0  0  0  0  0  0  0
   -5.2488   -1.4272   34.3375 O   0  0  0  0  0  0  0  0  0  0  0  0
   -4.2327   -0.7549   33.7236 C   0  0  0  0  0  0  0  0  0  0  0  0
   -4.3034    0.4098   33.3425 O   0  0  0  0  0  0  0  0  0  0  0  0
   -3.0165   -1.6588   33.5655 C   0  0  0  0  0  0  0  0  0  0  0  0
   -1.9735   -1.0043   32.8251 N   0  0  0  0  0  0  0  0  0  0  0  0
   -1.3059   -1.3692   31.6101 C   0  0  0  0  0  0  0  0  0  0  0  0
   -1.3909   -2.3919   30.9102 N   0  0  0  0  0  0  0  0  0  0  0  0
   -0.6832   -2.7184   29.6812 C   0  0  0  0  0  0  0  0  0  0  0  0
   -1.5217   -2.4465   28.4010 C   0  0  0  0  0  0  0  0  0  0  0  0
   -3.0908   -2.2777   28.7316 C   0  0  0  0  0  0  0  0  0  0  0  0
   -4.7893   -2.0106   27.7819 C   0  0  0  0  0  0  0  0  0  0  0  0
   -3.6504   -0.6561   27.5282 C   0  0  0  0  0  0  0  0  0  0  0  0
   -4.4137    0.9448   26.9448 N   0  0  0  0  0  0  0  0  0  0  0  0
   -3.5759    2.0470   26.4974 C   0  0  0  0  0  0  0  0  0  0  0  0
   -2.0625    2.0246   26.2287 C   0  0  0  0  0  0  0  0  0  0  0  0
   -1.3533    1.1680   26.6672 O   0  0  0  0  0  0  0  0  0  0  0  0
   -1.7509    3.1912   25.4316 N   0  0  0  0  0  0  0  0  0  0  0  0
   -0.4926    3.7284   25.0043 C   0  0  0  0  0  0  0  0  0  0  0  0
    0.2469    4.4290   26.1096 C   0  0  0  0  0  0  0  0  0  0  0  0
   -0.4154    5.0812   27.1608 C   0  0  0  0  0  0  0  0  0  0  0  0
    0.3064    5.7427   28.1535 C   0  0  0  0  0  0  0  0  0  0  0  0
    1.6972    5.7773   28.0969 C   0  0  0  0  0  0  0  0  0  0  0  0
    2.3676    5.1459   27.0519 C   0  0  0  0  0  0  0  0  0  0  0  0
    1.6472    4.4781   26.0624 C   0  0  0  0  0  0  0  0  0  0  0  0
   -6.1937    1.4716   26.7046 C   0  0  0  0  0  0  0  0  0  0  0  0
   -6.2813    2.6105   26.2603 O   0  0  0  0  0  0  0  0  0  0  0  0
   -7.5164    0.1289   27.3904 N   0  0  0  0  0  0  0  0  0  0  0  0
   -7.0061   -1.5729   28.0875 C   0  0  0  0  0  0  0  0  0  0  0  0
   -7.8665   -2.4105   28.3778 O   0  0  0  0  0  0  0  0  0  0  0  0
   -0.4476   -0.2256   31.2256 C   0  0  0  0  0  0  0  0  0  0  0  0
   -0.2027    0.3395   29.9535 C   0  0  0  0  0  0  0  0  0  0  0  0
    0.6655    1.3696   30.1834 C   0  0  0  0  0  0  0  0  0  0  0  0
    1.3532    2.3222   29.3030 C   0  0  0  0  0  0  0  0  0  0  0  0
    0.8805    1.4827   31.5166 O   0  0  0  0  0  0  0  0  0  0  0  0
    0.1547    0.5113   32.1810 N   0  0  0  0  0  0  0  0  0  0  0  0
   -6.8950   -0.5086   33.4676 H   0  0  0  0  0  0  0  0  0  0  0  0
   -7.1650   -1.2621   35.0523 H   0  0  0  0  0  0  0  0  0  0  0  0
   -6.2821    0.2747   34.9726 H   0  0  0  0  0  0  0  0  0  0  0  0
   -2.6487   -1.9359   34.5569 H   0  0  0  0  0  0  0  0  0  0  0  0
   -3.3389   -2.5458   33.0153 H   0  0  0  0  0  0  0  0  0  0  0  0
   -1.5881   -0.1196   33.1599 H   0  0  0  0  0  0  0  0  0  0  0  0
    0.3070   -2.2566   29.6077 H   0  0  0  0  0  0  0  0  0  0  0  0
   -0.4791   -3.7961   29.7194 H   0  0  0  0  0  0  0  0  0  0  0  0
   -1.2690   -3.2654   27.7320 H   0  0  0  0  0  0  0  0  0  0  0  0
   -1.0967   -1.5761   27.9033 H   0  0  0  0  0  0  0  0  0  0  0  0
   -2.9871   -1.3755   29.3986 H   0  0  0  0  0  0  0  0  0  0  0  0
   -3.2232   -3.0087   29.4936 H   0  0  0  0  0  0  0  0  0  0  0  0
   -2.5862   -0.5807   27.4142 H   0  0  0  0  0  0  0  0  0  0  0  0
   -3.7241    2.8564   27.2141 H   0  0  0  0  0  0  0  0  0  0  0  0
   -4.0409    2.3804   25.5643 H   0  0  0  0  0  0  0  0  0  0  0  0
   -2.5947    3.7458   25.3099 H   0  0  0  0  0  0  0  0  0  0  0  0
   -0.6835    4.4258   24.1827 H   0  0  0  0  0  0  0  0  0  0  0  0
    0.1063    2.8940   24.6318 H   0  0  0  0  0  0  0  0  0  0  0  0
   -1.5004    5.0811   27.2233 H   0  0  0  0  0  0  0  0  0  0  0  0
   -0.2208    6.2295   28.9712 H   0  0  0  0  0  0  0  0  0  0  0  0
    2.2574    6.2968   28.8698 H   0  0  0  0  0  0  0  0  0  0  0  0
    3.4532    5.1764   27.0074 H   0  0  0  0  0  0  0  0  0  0  0  0
    2.1895    3.9947   25.2526 H   0  0  0  0  0  0  0  0  0  0  0  0
   -8.5000    0.2695   27.3192 H   0  0  0  0  0  0  0  0  0  0  0  0
   -0.5853    0.0642   28.9882 H   0  0  0  0  0  0  0  0  0  0  0  0
    0.8804    2.3512   28.3181 H   0  0  0  0  0  0  0  0  0  0  0  0
    2.4005    2.0345   29.1712 H   0  0  0  0  0  0  0  0  0  0  0  0
    1.3243    3.3260   29.7345 H   0  0  0  0  0  0  0  0  0  0  0  0
  1  2  1  0
  2  3  1  0
  3  4  2  0
  3  5  1  0
  5  6  1  0
  6  7  1  0
  7  8  2  3
  8  9  1  0
  9 10  1  0
 10 11  1  0
 11 12  1  0
 12 13  2  0
 13 14  1  0
 14 15  1  0
 15 16  1  0
 16 17  2  0
 16 18  1  0
 18 19  1  0
 19 20  1  0
 20 21  2  0
 21 22  1  0
 22 23  2  0
 23 24  1  0
 24 25  2  0
 14 26  1  0
 26 27  2  0
 26 28  1  0
 28 29  1  0
 29 30  2  0
  7 31  1  0
 31 32  1  0
 32 33  2  0
 33 34  1  0
 33 35  1  0
 35 36  1  0
 29 12  1  0
 36 31  2  0
 25 20  1  0
  1 37  1  0
  1 38  1  0
  1 39  1  0
  5 40  1  0
  5 41  1  0
  6 42  1  0
  9 43  1  0
  9 44  1  0
 10 45  1  0
 10 46  1  0
 11 47  1  0
 11 48  1  0
 13 49  1  0
 15 50  1  0
 15 51  1  0
 18 52  1  0
 19 53  1  0
 19 54  1  0
 21 55  1  0
 22 56  1  0
 23 57  1  0
 24 58  1  0
 25 59  1  0
 28 60  1  0
 32 61  1  0
 34 62  1  0
 34 63  1  0
 34 64  1  0
M  END
>  <Energy>  (261) 
776.69128701222803

>  <compound_id>  (261) 
579

>  <target_id>  (261) 
1

>  <reference_id>  (261) 
59

>  <inspiration_ids>  (261) 
[59, 57]

>  <energy_score>  (261) 
751.6101586013715

>  <distance_score>  (261) 
2.308278111885252

>  <path>  (261) 
/opt/xchem-fragalysis-2/maxwin/BulkDock/SCRATCH/505733/C579-P59/C579-P59.minimised.mol

>  <scratch_subdir>  (261) 
/opt/xchem-fragalysis-2/maxwin/BulkDock/SCRATCH/505733/C579-P59

>  <fragmenstein_runtime>  (261) 
14.582891464233398

>  <fragmenstein_outcome>  (261) 
too moved

>  <fragmenstein_mode>  (261) 
expansion

>  <fragmenstein_error>  (261) 


$$$$
C579-P57
     RDKit          3D

 64 66  0  0  0  0  0  0  0  0999 V2000
   -6.0957   -1.1008   33.7978 C   0  0  0  0  0  0  0  0  0  0  0  0
   -5.0399   -1.7800   33.1150 O   0  0  0  0  0  0  0  0  0  0  0  0
   -3.9214   -1.0194   32.8971 C   0  0  0  0  0  0  0  0  0  0  0  0
   -3.8047    0.1512   33.2362 O   0  0  0  0  0  0  0  0  0  0  0  0
   -2.8857   -1.8685   32.1772 C   0  0  0  0  0  0  0  0  0  0  0  0
   -1.6658   -1.1851   31.8593 N   0  0  0  0  0  0  0  0  0  0  0  0
   -1.2293   -0.5327   30.6509 C   0  0  0  0  0  0  0  0  0  0  0  0
   -1.8281   -0.3106   29.5712 N   0  0  0  0  0  0  0  0  0  0  0  0
   -1.1339    0.4273   28.4947 C   0  0  0  0  0  0  0  0  0  0  0  0
   -2.0714    1.1270   27.5132 C   0  0  0  0  0  0  0  0  0  0  0  0
   -1.2956    2.2128   26.7592 C   0  0  0  0  0  0  0  0  0  0  0  0
   -1.8647    2.8240   25.5099 C   0  0  0  0  0  0  0  0  0  0  0  0
   -1.0510    3.2859   24.5493 C   0  0  0  0  0  0  0  0  0  0  0  0
   -1.4919    4.0190   23.4630 N   0  0  0  0  0  0  0  0  0  0  0  0
   -0.5080    4.5892   22.5209 C   0  0  0  0  0  0  0  0  0  0  0  0
    0.6114    5.4067   23.2157 C   0  0  0  0  0  0  0  0  0  0  0  0
    1.7222    5.3674   22.7681 O   0  0  0  0  0  0  0  0  0  0  0  0
    0.1003    6.0351   24.3994 N   0  0  0  0  0  0  0  0  0  0  0  0
    0.7706    6.7272   25.4612 C   0  0  0  0  0  0  0  0  0  0  0  0
    1.0648    5.7339   26.5615 C   0  0  0  0  0  0  0  0  0  0  0  0
    0.3354    5.7371   27.7565 C   0  0  0  0  0  0  0  0  0  0  0  0
    0.6100    4.7967   28.7520 C   0  0  0  0  0  0  0  0  0  0  0  0
    1.5925    3.8280   28.5552 C   0  0  0  0  0  0  0  0  0  0  0  0
    2.3096    3.8002   27.3625 C   0  0  0  0  0  0  0  0  0  0  0  0
    2.0514    4.7507   26.3745 C   0  0  0  0  0  0  0  0  0  0  0  0
   -2.8371    4.2928   23.2783 C   0  0  0  0  0  0  0  0  0  0  0  0
   -3.2801    4.9261   22.3248 O   0  0  0  0  0  0  0  0  0  0  0  0
   -3.6666    3.8082   24.2498 N   0  0  0  0  0  0  0  0  0  0  0  0
   -3.3181    3.0176   25.3114 C   0  0  0  0  0  0  0  0  0  0  0  0
   -4.1607    2.4698   26.0118 O   0  0  0  0  0  0  0  0  0  0  0  0
    0.1978   -0.2084   30.8258 C   0  0  0  0  0  0  0  0  0  0  0  0
    1.2752   -0.5591   29.9746 C   0  0  0  0  0  0  0  0  0  0  0  0
    2.3644    0.0397   30.5425 C   0  0  0  0  0  0  0  0  0  0  0  0
    3.7707    0.1708   30.1402 C   0  0  0  0  0  0  0  0  0  0  0  0
    1.9976    0.6235   31.7132 O   0  0  0  0  0  0  0  0  0  0  0  0
    0.6409    0.4319   31.9202 N   0  0  0  0  0  0  0  0  0  0  0  0
   -6.8880   -1.8265   34.0012 H   0  0  0  0  0  0  0  0  0  0  0  0
   -5.7449   -0.6960   34.7520 H   0  0  0  0  0  0  0  0  0  0  0  0
   -6.5058   -0.3102   33.1656 H   0  0  0  0  0  0  0  0  0  0  0  0
   -2.6323   -2.6998   32.8406 H   0  0  0  0  0  0  0  0  0  0  0  0
   -3.3256   -2.2881   31.2719 H   0  0  0  0  0  0  0  0  0  0  0  0
   -0.9300   -1.1050   32.5606 H   0  0  0  0  0  0  0  0  0  0  0  0
   -0.4903    1.2067   28.9201 H   0  0  0  0  0  0  0  0  0  0  0  0
   -0.5178   -0.2706   27.9166 H   0  0  0  0  0  0  0  0  0  0  0  0
   -2.8678    1.6239   28.0662 H   0  0  0  0  0  0  0  0  0  0  0  0
   -2.5094    0.3966   26.8266 H   0  0  0  0  0  0  0  0  0  0  0  0
   -0.2960    1.8198   26.5292 H   0  0  0  0  0  0  0  0  0  0  0  0
   -1.1436    3.0369   27.4651 H   0  0  0  0  0  0  0  0  0  0  0  0
    0.0269    3.1707   24.6440 H   0  0  0  0  0  0  0  0  0  0  0  0
   -0.9892    5.2417   21.7858 H   0  0  0  0  0  0  0  0  0  0  0  0
   -0.0483    3.7486   21.9888 H   0  0  0  0  0  0  0  0  0  0  0  0
   -0.8789    5.7898   24.5075 H   0  0  0  0  0  0  0  0  0  0  0  0
    1.7032    7.1593   25.0840 H   0  0  0  0  0  0  0  0  0  0  0  0
    0.1203    7.5349   25.8103 H   0  0  0  0  0  0  0  0  0  0  0  0
   -0.4506    6.4698   27.9276 H   0  0  0  0  0  0  0  0  0  0  0  0
    0.0460    4.8161   29.6815 H   0  0  0  0  0  0  0  0  0  0  0  0
    1.7945    3.0999   29.3361 H   0  0  0  0  0  0  0  0  0  0  0  0
    3.0797    3.0500   27.2051 H   0  0  0  0  0  0  0  0  0  0  0  0
    2.6263    4.7269   25.4495 H   0  0  0  0  0  0  0  0  0  0  0  0
   -4.6522    3.8751   24.0531 H   0  0  0  0  0  0  0  0  0  0  0  0
    1.2452   -1.1177   29.0514 H   0  0  0  0  0  0  0  0  0  0  0  0
    4.4302   -0.2584   30.9007 H   0  0  0  0  0  0  0  0  0  0  0  0
    4.0356    1.2245   30.0093 H   0  0  0  0  0  0  0  0  0  0  0  0
    3.9613   -0.3464   29.1946 H   0  0  0  0  0  0  0  0  0  0  0  0
  1  2  1  0
  2  3  1  0
  3  4  2  0
  3  5  1  0
  5  6  1  0
  6  7  1  0
  7  8  2  3
  8  9  1  0
  9 10  1  0
 10 11  1  0
 11 12  1  0
 12 13  2  0
 13 14  1  0
 14 15  1  0
 15 16  1  0
 16 17  2  0
 16 18  1  0
 18 19  1  0
 19 20  1  0
 20 21  2  0
 21 22  1  0
 22 23  2  0
 23 24  1  0
 24 25  2  0
 14 26  1  0
 26 27  2  0
 26 28  1  0
 28 29  1  0
 29 30  2  0
  7 31  1  0
 31 32  1  0
 32 33  2  0
 33 34  1  0
 33 35  1  0
 35 36  1  0
 29 12  1  0
 36 31  2  0
 25 20  1  0
  1 37  1  0
  1 38  1  0
  1 39  1  0
  5 40  1  0
  5 41  1  0
  6 42  1  0
  9 43  1  0
  9 44  1  0
 10 45  1  0
 10 46  1  0
 11 47  1  0
 11 48  1  0
 13 49  1  0
 15 50  1  0
 15 51  1  0
 18 52  1  0
 19 53  1  0
 19 54  1  0
 21 55  1  0
 22 56  1  0
 23 57  1  0
 24 58  1  0
 25 59  1  0
 28 60  1  0
 32 61  1  0
 34 62  1  0
 34 63  1  0
 34 64  1  0
M  END
>  <Energy>  (262) 
-10.748991169127214

>  <compound_id>  (262) 
579

>  <target_id>  (262) 
1

>  <reference_id>  (262) 
57

>  <inspiration_ids>  (262) 
[59, 57]

>  <energy_score>  (262) 
-35.83011957998852

>  <distance_score>  (262) 
2.9974952398091297

>  <path>  (262) 
/opt/xchem-fragalysis-2/maxwin/BulkDock/SCRATCH/505733/C579-P57/C579-P57.minimised.mol

>  <scratch_subdir>  (262) 
/opt/xchem-fragalysis-2/maxwin/BulkDock/SCRATCH/505733/C579-P57

>  <fragmenstein_runtime>  (262) 
21.954972505569458

>  <fragmenstein_outcome>  (262) 
too moved

>  <fragmenstein_mode>  (262) 
expansion

>  <fragmenstein_error>  (262) 


$$$$
C580-P59
     RDKit          3D

 68 72  0  0  0  0  0  0  0  0999 V2000
    2.0771    0.9335   39.2002 C   0  0  0  0  0  0  0  0  0  0  0  0
    0.7239    0.8368   38.7514 O   0  0  0  0  0  0  0  0  0  0  0  0
    0.6013    0.5458   37.4235 C   0  0  0  0  0  0  0  0  0  0  0  0
    1.5353    0.3657   36.6518 O   0  0  0  0  0  0  0  0  0  0  0  0
   -0.8741    0.4699   37.0469 C   0  0  0  0  0  0  0  0  0  0  0  0
   -1.0261    0.1993   35.6424 N   0  0  0  0  0  0  0  0  0  0  0  0
   -2.2055   -0.0083   34.8339 C   0  0  0  0  0  0  0  0  0  0  0  0
   -3.4187   -0.0918   35.1461 N   0  0  0  0  0  0  0  0  0  0  0  0
   -3.8329   -0.0208   36.5494 C   0  0  0  0  0  0  0  0  0  0  0  0
   -5.3610    0.0197   36.6841 C   0  0  0  0  0  0  0  0  0  0  0  0
   -5.9228   -0.7059   37.9321 C   0  0  0  0  0  0  0  0  0  0  0  0
   -5.7854   -0.1230   39.3349 C   0  0  0  0  0  0  0  0  0  0  0  0
   -4.4091    0.0585   39.8117 C   0  0  0  0  0  0  0  0  0  0  0  0
   -4.1143    0.4643   41.0580 C   0  0  0  0  0  0  0  0  0  0  0  0
   -5.1531    0.6943   41.9854 C   0  0  0  0  0  0  0  0  0  0  0  0
   -5.1408    1.0313   43.2553 N   0  0  0  0  0  0  0  0  0  0  0  0
   -6.4400    1.0323   43.6959 N   0  0  0  0  0  0  0  0  0  0  0  0
   -7.2058    0.7017   42.6797 C   0  0  0  0  0  0  0  0  0  0  0  0
   -6.4548    0.5023   41.5507 N   0  0  0  0  0  0  0  0  0  0  0  0
   -6.7782    0.1185   40.2386 C   0  0  0  0  0  0  0  0  0  0  0  0
   -8.1068   -0.0733   39.7774 N   0  0  0  0  0  0  0  0  0  0  0  0
   -8.9312   -1.2529   40.1196 C   0  0  0  0  0  0  0  0  0  0  0  0
  -10.3961   -0.9094   39.7240 C   0  0  0  0  0  0  0  0  0  0  0  0
  -10.4045    0.3793   38.8591 C   0  0  0  0  0  0  0  0  0  0  0  0
   -9.9740    0.2346   37.4101 C   0  0  0  0  0  0  0  0  0  0  0  0
   -9.8580    1.3910   36.6225 C   0  0  0  0  0  0  0  0  0  0  0  0
   -9.1276    1.3649   35.4420 C   0  0  0  0  0  0  0  0  0  0  0  0
   -8.5647    0.1744   34.9996 C   0  0  0  0  0  0  0  0  0  0  0  0
   -8.8052   -1.0044   35.6894 C   0  0  0  0  0  0  0  0  0  0  0  0
   -9.5338   -0.9835   36.8735 C   0  0  0  0  0  0  0  0  0  0  0  0
   -9.1030    1.3261   39.7204 S   0  0  0  0  0  0  0  0  0  0  0  0
   -9.5825    1.6132   41.0558 O   0  0  0  0  0  0  0  0  0  0  0  0
   -8.4610    2.3453   38.9253 O   0  0  0  0  0  0  0  0  0  0  0  0
   -1.8191   -0.1704   33.4151 C   0  0  0  0  0  0  0  0  0  0  0  0
   -2.5519   -0.7002   32.3161 C   0  0  0  0  0  0  0  0  0  0  0  0
   -1.6909   -0.6195   31.2446 C   0  0  0  0  0  0  0  0  0  0  0  0
   -1.7591   -0.9713   29.8117 C   0  0  0  0  0  0  0  0  0  0  0  0
   -0.5196   -0.0757   31.6616 O   0  0  0  0  0  0  0  0  0  0  0  0
   -0.5857    0.1910   33.0103 N   0  0  0  0  0  0  0  0  0  0  0  0
    2.0635    1.1729   40.2671 H   0  0  0  0  0  0  0  0  0  0  0  0
    2.5998    1.7368   38.6715 H   0  0  0  0  0  0  0  0  0  0  0  0
    2.5942   -0.0216   39.0658 H   0  0  0  0  0  0  0  0  0  0  0  0
   -1.3268    1.4348   37.2926 H   0  0  0  0  0  0  0  0  0  0  0  0
   -1.3183   -0.3330   37.6410 H   0  0  0  0  0  0  0  0  0  0  0  0
   -0.1957    0.1264   35.0431 H   0  0  0  0  0  0  0  0  0  0  0  0
   -3.4484   -0.9119   37.0561 H   0  0  0  0  0  0  0  0  0  0  0  0
   -3.4423    0.8819   37.0261 H   0  0  0  0  0  0  0  0  0  0  0  0
   -5.7120    1.0582   36.6628 H   0  0  0  0  0  0  0  0  0  0  0  0
   -5.7915   -0.4732   35.8038 H   0  0  0  0  0  0  0  0  0  0  0  0
   -6.9770   -0.8957   37.7359 H   0  0  0  0  0  0  0  0  0  0  0  0
   -5.4660   -1.7020   37.9596 H   0  0  0  0  0  0  0  0  0  0  0  0
   -3.5838   -0.1673   39.1498 H   0  0  0  0  0  0  0  0  0  0  0  0
   -3.0888    0.5829   41.3910 H   0  0  0  0  0  0  0  0  0  0  0  0
   -8.2761    0.5831   42.7253 H   0  0  0  0  0  0  0  0  0  0  0  0
   -8.8675   -1.4972   41.1844 H   0  0  0  0  0  0  0  0  0  0  0  0
   -8.5793   -2.1159   39.5454 H   0  0  0  0  0  0  0  0  0  0  0  0
  -10.9524   -0.7111   40.6503 H   0  0  0  0  0  0  0  0  0  0  0  0
  -10.9012   -1.7564   39.2489 H   0  0  0  0  0  0  0  0  0  0  0  0
  -11.3546    0.9148   38.9399 H   0  0  0  0  0  0  0  0  0  0  0  0
  -10.2188    2.3532   36.9837 H   0  0  0  0  0  0  0  0  0  0  0  0
   -8.9460    2.2853   34.8986 H   0  0  0  0  0  0  0  0  0  0  0  0
   -7.9603    0.1512   34.0973 H   0  0  0  0  0  0  0  0  0  0  0  0
   -8.3854   -1.9265   35.3111 H   0  0  0  0  0  0  0  0  0  0  0  0
   -9.6658   -1.9216   37.3996 H   0  0  0  0  0  0  0  0  0  0  0  0
   -3.5584   -1.0887   32.3289 H   0  0  0  0  0  0  0  0  0  0  0  0
   -0.7603   -1.0179   29.3661 H   0  0  0  0  0  0  0  0  0  0  0  0
   -2.2287   -1.9501   29.6791 H   0  0  0  0  0  0  0  0  0  0  0  0
   -2.3401   -0.2245   29.2644 H   0  0  0  0  0  0  0  0  0  0  0  0
  1  2  1  0
  2  3  1  0
  3  4  2  0
  3  5  1  0
  5  6  1  0
  6  7  1  0
  7  8  2  3
  8  9  1  0
  9 10  1  0
 10 11  1  0
 11 12  1  0
 12 13  1  0
 13 14  2  0
 14 15  1  0
 15 16  2  0
 16 17  1  0
 17 18  2  0
 18 19  1  0
 19 20  1  0
 20 21  1  0
 21 22  1  0
 22 23  1  0
 23 24  1  0
 24 25  1  0
 25 26  2  0
 26 27  1  0
 27 28  2  0
 28 29  1  0
 29 30  2  0
 24 31  1  0
 31 32  2  0
 31 33  2  0
  7 34  1  0
 34 35  1  0
 35 36  2  0
 36 37  1  0
 36 38  1  0
 38 39  1  0
 20 12  2  0
 31 21  1  0
 39 34  2  0
 19 15  1  0
 30 25  1  0
  1 40  1  0
  1 41  1  0
  1 42  1  0
  5 43  1  0
  5 44  1  0
  6 45  1  0
  9 46  1  0
  9 47  1  0
 10 48  1  0
 10 49  1  0
 11 50  1  0
 11 51  1  0
 13 52  1  0
 14 53  1  0
 18 54  1  0
 22 55  1  0
 22 56  1  0
 23 57  1  0
 23 58  1  0
 24 59  1  0
 26 60  1  0
 27 61  1  0
 28 62  1  0
 29 63  1  0
 30 64  1  0
 35 65  1  0
 37 66  1  0
 37 67  1  0
 37 68  1  0
M  END
>  <Energy>  (263) 
110.02622724206766

>  <compound_id>  (263) 
580

>  <target_id>  (263) 
1

>  <reference_id>  (263) 
59

>  <inspiration_ids>  (263) 
[59, 121]

>  <energy_score>  (263) 
-60.1964216960244

>  <distance_score>  (263) 
4.869742860603117

>  <path>  (263) 
/opt/xchem-fragalysis-2/maxwin/BulkDock/SCRATCH/505733/C580-P59/C580-P59.minimised.mol

>  <scratch_subdir>  (263) 
/opt/xchem-fragalysis-2/maxwin/BulkDock/SCRATCH/505733/C580-P59

>  <fragmenstein_runtime>  (263) 
24.286647081375122

>  <fragmenstein_outcome>  (263) 
too moved

>  <fragmenstein_mode>  (263) 
expansion

>  <fragmenstein_error>  (263) 


$$$$
C580-P121
     RDKit          3D

 68 72  0  0  0  0  0  0  0  0999 V2000
    0.4928    5.0252   38.5975 C   0  0  0  0  0  0  0  0  0  0  0  0
   -0.2625    3.8274   38.4069 O   0  0  0  0  0  0  0  0  0  0  0  0
   -0.1907    3.3260   37.1397 C   0  0  0  0  0  0  0  0  0  0  0  0
    0.4608    3.8141   36.2241 O   0  0  0  0  0  0  0  0  0  0  0  0
   -1.0341    2.0604   37.0328 C   0  0  0  0  0  0  0  0  0  0  0  0
   -1.0004    1.5465   35.6911 N   0  0  0  0  0  0  0  0  0  0  0  0
   -1.4361    0.2913   35.1470 C   0  0  0  0  0  0  0  0  0  0  0  0
   -2.0377   -0.6671   35.6705 N   0  0  0  0  0  0  0  0  0  0  0  0
   -2.4776   -0.8038   37.0498 C   0  0  0  0  0  0  0  0  0  0  0  0
   -3.7401    0.0096   37.3849 C   0  0  0  0  0  0  0  0  0  0  0  0
   -4.8313   -0.8188   38.0946 C   0  0  0  0  0  0  0  0  0  0  0  0
   -5.7141   -0.0381   39.0652 C   0  0  0  0  0  0  0  0  0  0  0  0
   -5.1559    0.1667   40.4090 C   0  0  0  0  0  0  0  0  0  0  0  0
   -5.8555    0.7485   41.4019 C   0  0  0  0  0  0  0  0  0  0  0  0
   -7.1752    1.2028   41.1622 C   0  0  0  0  0  0  0  0  0  0  0  0
   -8.0756    1.7700   41.9340 N   0  0  0  0  0  0  0  0  0  0  0  0
   -9.1935    2.0059   41.1679 N   0  0  0  0  0  0  0  0  0  0  0  0
   -8.9406    1.5804   39.9502 C   0  0  0  0  0  0  0  0  0  0  0  0
   -7.6862    1.0374   39.8856 N   0  0  0  0  0  0  0  0  0  0  0  0
   -6.9728    0.4165   38.8565 C   0  0  0  0  0  0  0  0  0  0  0  0
   -7.4735    0.1740   37.5653 N   0  0  0  0  0  0  0  0  0  0  0  0
   -8.6211   -0.7040   37.2963 C   0  0  0  0  0  0  0  0  0  0  0  0
   -9.0879   -0.3848   35.8661 C   0  0  0  0  0  0  0  0  0  0  0  0
   -7.9767    0.4355   35.1514 C   0  0  0  0  0  0  0  0  0  0  0  0
   -6.7880   -0.3462   34.6117 C   0  0  0  0  0  0  0  0  0  0  0  0
   -5.7154    0.3329   34.0143 C   0  0  0  0  0  0  0  0  0  0  0  0
   -4.6160   -0.3466   33.4967 C   0  0  0  0  0  0  0  0  0  0  0  0
   -4.5540   -1.7278   33.5653 C   0  0  0  0  0  0  0  0  0  0  0  0
   -5.5988   -2.4227   34.1468 C   0  0  0  0  0  0  0  0  0  0  0  0
   -6.7111   -1.7439   34.6518 C   0  0  0  0  0  0  0  0  0  0  0  0
   -7.4722    1.5171   36.5014 S   0  0  0  0  0  0  0  0  0  0  0  0
   -8.5999    2.3577   36.8555 O   0  0  0  0  0  0  0  0  0  0  0  0
   -6.1404    2.0596   36.3961 O   0  0  0  0  0  0  0  0  0  0  0  0
   -1.0775    0.1819   33.7155 C   0  0  0  0  0  0  0  0  0  0  0  0
   -1.0429   -0.9680   32.8764 C   0  0  0  0  0  0  0  0  0  0  0  0
   -0.7073   -0.4919   31.6316 C   0  0  0  0  0  0  0  0  0  0  0  0
   -0.5135   -1.0954   30.2978 C   0  0  0  0  0  0  0  0  0  0  0  0
   -0.5192    0.8504   31.7113 O   0  0  0  0  0  0  0  0  0  0  0  0
   -0.7391    1.2756   33.0063 N   0  0  0  0  0  0  0  0  0  0  0  0
    0.1193    5.8214   37.9460 H   0  0  0  0  0  0  0  0  0  0  0  0
    0.3687    5.3414   39.6368 H   0  0  0  0  0  0  0  0  0  0  0  0
    1.5564    4.8410   38.4163 H   0  0  0  0  0  0  0  0  0  0  0  0
   -0.6192    1.3339   37.7354 H   0  0  0  0  0  0  0  0  0  0  0  0
   -2.0580    2.3289   37.2996 H   0  0  0  0  0  0  0  0  0  0  0  0
   -0.4616    2.0485   34.9769 H   0  0  0  0  0  0  0  0  0  0  0  0
   -1.6693   -0.5692   37.7491 H   0  0  0  0  0  0  0  0  0  0  0  0
   -2.6777   -1.8713   37.2010 H   0  0  0  0  0  0  0  0  0  0  0  0
   -4.1552    0.4582   36.4798 H   0  0  0  0  0  0  0  0  0  0  0  0
   -3.4490    0.8385   38.0382 H   0  0  0  0  0  0  0  0  0  0  0  0
   -5.4348   -1.3287   37.3365 H   0  0  0  0  0  0  0  0  0  0  0  0
   -4.3634   -1.6344   38.6635 H   0  0  0  0  0  0  0  0  0  0  0  0
   -4.1399   -0.1710   40.5987 H   0  0  0  0  0  0  0  0  0  0  0  0
   -5.4305    0.8891   42.3901 H   0  0  0  0  0  0  0  0  0  0  0  0
   -9.6144    1.6431   39.1098 H   0  0  0  0  0  0  0  0  0  0  0  0
   -9.4371   -0.5656   38.0105 H   0  0  0  0  0  0  0  0  0  0  0  0
   -8.2858   -1.7429   37.3551 H   0  0  0  0  0  0  0  0  0  0  0  0
   -9.9909    0.2374   35.9350 H   0  0  0  0  0  0  0  0  0  0  0  0
   -9.3938   -1.2933   35.3409 H   0  0  0  0  0  0  0  0  0  0  0  0
   -8.4231    1.0531   34.3715 H   0  0  0  0  0  0  0  0  0  0  0  0
   -5.7032    1.4200   33.9636 H   0  0  0  0  0  0  0  0  0  0  0  0
   -3.7994    0.2126   33.0562 H   0  0  0  0  0  0  0  0  0  0  0  0
   -3.6876   -2.2612   33.1904 H   0  0  0  0  0  0  0  0  0  0  0  0
   -5.5326   -3.5013   34.2139 H   0  0  0  0  0  0  0  0  0  0  0  0
   -7.5046   -2.3417   35.0844 H   0  0  0  0  0  0  0  0  0  0  0  0
   -1.2484   -1.9888   33.1616 H   0  0  0  0  0  0  0  0  0  0  0  0
   -1.1351   -0.5891   29.5529 H   0  0  0  0  0  0  0  0  0  0  0  0
    0.5330   -1.0137   29.9895 H   0  0  0  0  0  0  0  0  0  0  0  0
   -0.7873   -2.1549   30.3052 H   0  0  0  0  0  0  0  0  0  0  0  0
  1  2  1  0
  2  3  1  0
  3  4  2  0
  3  5  1  0
  5  6  1  0
  6  7  1  0
  7  8  2  3
  8  9  1  0
  9 10  1  0
 10 11  1  0
 11 12  1  0
 12 13  1  0
 13 14  2  0
 14 15  1  0
 15 16  2  0
 16 17  1  0
 17 18  2  0
 18 19  1  0
 19 20  1  0
 20 21  1  0
 21 22  1  0
 22 23  1  0
 23 24  1  0
 24 25  1  0
 25 26  2  0
 26 27  1  0
 27 28  2  0
 28 29  1  0
 29 30  2  0
 24 31  1  0
 31 32  2  0
 31 33  2  0
  7 34  1  0
 34 35  1  0
 35 36  2  0
 36 37  1  0
 36 38  1  0
 38 39  1  0
 20 12  2  0
 31 21  1  0
 39 34  2  0
 19 15  1  0
 30 25  1  0
  1 40  1  0
  1 41  1  0
  1 42  1  0
  5 43  1  0
  5 44  1  0
  6 45  1  0
  9 46  1  0
  9 47  1  0
 10 48  1  0
 10 49  1  0
 11 50  1  0
 11 51  1  0
 13 52  1  0
 14 53  1  0
 18 54  1  0
 22 55  1  0
 22 56  1  0
 23 57  1  0
 23 58  1  0
 24 59  1  0
 26 60  1  0
 27 61  1  0
 28 62  1  0
 29 63  1  0
 30 64  1  0
 35 65  1  0
 37 66  1  0
 37 67  1  0
 37 68  1  0
M  END
>  <Energy>  (264) 
103.09829799839872

>  <compound_id>  (264) 
580

>  <target_id>  (264) 
1

>  <reference_id>  (264) 
121

>  <inspiration_ids>  (264) 
[59, 121]

>  <energy_score>  (264) 
-67.12435093969589

>  <distance_score>  (264) 
5.056971712944642

>  <path>  (264) 
/opt/xchem-fragalysis-2/maxwin/BulkDock/SCRATCH/505733/C580-P121/C580-P121.minimised.mol

>  <scratch_subdir>  (264) 
/opt/xchem-fragalysis-2/maxwin/BulkDock/SCRATCH/505733/C580-P121

>  <fragmenstein_runtime>  (264) 
24.007755517959595

>  <fragmenstein_outcome>  (264) 
too moved

>  <fragmenstein_mode>  (264) 
expansion

>  <fragmenstein_error>  (264) 


$$$$
C581-P59
     RDKit          3D

 68 72  0  0  0  0  0  0  0  0999 V2000
   -4.1974   -1.8353   33.0633 C   0  0  0  0  0  0  0  0  0  0  0  0
   -3.0558   -2.2940   32.3395 O   0  0  0  0  0  0  0  0  0  0  0  0
   -2.0881   -1.3477   32.2041 C   0  0  0  0  0  0  0  0  0  0  0  0
   -2.1346   -0.2259   32.6995 O   0  0  0  0  0  0  0  0  0  0  0  0
   -0.9449   -1.8641   31.3355 C   0  0  0  0  0  0  0  0  0  0  0  0
   -0.4254   -0.7608   30.5872 N   0  0  0  0  0  0  0  0  0  0  0  0
    0.5953   -0.6961   29.5862 C   0  0  0  0  0  0  0  0  0  0  0  0
    1.3711   -1.5645   29.1465 N   0  0  0  0  0  0  0  0  0  0  0  0
    1.4841   -2.9280   29.5834 C   0  0  0  0  0  0  0  0  0  0  0  0
    2.5342   -3.0205   30.6904 C   0  0  0  0  0  0  0  0  0  0  0  0
    2.9541   -4.4611   30.9799 C   0  0  0  0  0  0  0  0  0  0  0  0
    1.8194   -5.3223   31.4740 C   0  0  0  0  0  0  0  0  0  0  0  0
    1.6553   -5.4710   32.9204 C   0  0  0  0  0  0  0  0  0  0  0  0
    0.7221   -6.3216   33.3846 C   0  0  0  0  0  0  0  0  0  0  0  0
    0.6412   -6.5774   34.7814 N   0  0  0  0  0  0  0  0  0  0  0  0
   -0.0179   -5.6489   35.7145 C   0  0  0  0  0  0  0  0  0  0  0  0
   -0.0437   -6.4274   37.0377 C   0  0  0  0  0  0  0  0  0  0  0  0
    1.2336   -7.2951   37.1516 C   0  0  0  0  0  0  0  0  0  0  0  0
    2.1873   -6.9678   38.2738 C   0  0  0  0  0  0  0  0  0  0  0  0
    2.8085   -8.0172   38.9725 C   0  0  0  0  0  0  0  0  0  0  0  0
    3.6922   -7.7540   40.0206 C   0  0  0  0  0  0  0  0  0  0  0  0
    3.9726   -6.4396   40.3829 C   0  0  0  0  0  0  0  0  0  0  0  0
    3.3724   -5.3880   39.6957 C   0  0  0  0  0  0  0  0  0  0  0  0
    2.4863   -5.6486   38.6484 C   0  0  0  0  0  0  0  0  0  0  0  0
    2.0725   -7.1481   35.5581 S   0  0  0  0  0  0  0  0  0  0  0  0
    2.4019   -8.4337   34.9780 O   0  0  0  0  0  0  0  0  0  0  0  0
    3.0237   -6.0574   35.5706 O   0  0  0  0  0  0  0  0  0  0  0  0
   -0.1213   -6.9649   32.4785 N   0  0  0  0  0  0  0  0  0  0  0  0
   -1.1769   -7.8101   32.6599 C   0  0  0  0  0  0  0  0  0  0  0  0
   -1.6953   -8.1484   31.4995 N   0  0  0  0  0  0  0  0  0  0  0  0
   -0.9667   -7.5201   30.5170 N   0  0  0  0  0  0  0  0  0  0  0  0
   -0.0232   -6.8188   31.1077 C   0  0  0  0  0  0  0  0  0  0  0  0
    1.0175   -5.9923   30.6182 C   0  0  0  0  0  0  0  0  0  0  0  0
    0.6196    0.6199   28.9665 C   0  0  0  0  0  0  0  0  0  0  0  0
    1.2289    0.9966   27.7529 C   0  0  0  0  0  0  0  0  0  0  0  0
    0.8385    2.2960   27.5699 C   0  0  0  0  0  0  0  0  0  0  0  0
    1.0393    3.2739   26.4943 C   0  0  0  0  0  0  0  0  0  0  0  0
    0.0932    2.6994   28.6302 O   0  0  0  0  0  0  0  0  0  0  0  0
   -0.0410    1.6520   29.5188 N   0  0  0  0  0  0  0  0  0  0  0  0
   -4.4706   -0.8073   32.8028 H   0  0  0  0  0  0  0  0  0  0  0  0
   -4.0171   -1.9197   34.1384 H   0  0  0  0  0  0  0  0  0  0  0  0
   -5.0346   -2.4730   32.7852 H   0  0  0  0  0  0  0  0  0  0  0  0
   -1.3496   -2.6176   30.6533 H   0  0  0  0  0  0  0  0  0  0  0  0
   -0.1927   -2.3080   31.9916 H   0  0  0  0  0  0  0  0  0  0  0  0
   -0.8006    0.1811   30.7392 H   0  0  0  0  0  0  0  0  0  0  0  0
    0.5264   -3.3537   29.8813 H   0  0  0  0  0  0  0  0  0  0  0  0
    1.8131   -3.5214   28.7217 H   0  0  0  0  0  0  0  0  0  0  0  0
    3.4278   -2.4571   30.3918 H   0  0  0  0  0  0  0  0  0  0  0  0
    2.1633   -2.5407   31.6039 H   0  0  0  0  0  0  0  0  0  0  0  0
    3.7727   -4.4598   31.7109 H   0  0  0  0  0  0  0  0  0  0  0  0
    3.3816   -4.9018   30.0690 H   0  0  0  0  0  0  0  0  0  0  0  0
    2.3318   -4.9175   33.5636 H   0  0  0  0  0  0  0  0  0  0  0  0
    0.5466   -4.7149   35.8054 H   0  0  0  0  0  0  0  0  0  0  0  0
   -1.0357   -5.4173   35.3877 H   0  0  0  0  0  0  0  0  0  0  0  0
   -0.2123   -5.7660   37.8934 H   0  0  0  0  0  0  0  0  0  0  0  0
   -0.9027   -7.1085   37.0068 H   0  0  0  0  0  0  0  0  0  0  0  0
    0.9163   -8.3432   37.2297 H   0  0  0  0  0  0  0  0  0  0  0  0
    2.6104   -9.0556   38.7108 H   0  0  0  0  0  0  0  0  0  0  0  0
    4.1640   -8.5758   40.5537 H   0  0  0  0  0  0  0  0  0  0  0  0
    4.6632   -6.2341   41.1968 H   0  0  0  0  0  0  0  0  0  0  0  0
    3.5999   -4.3610   39.9718 H   0  0  0  0  0  0  0  0  0  0  0  0
    2.0508   -4.8017   38.1228 H   0  0  0  0  0  0  0  0  0  0  0  0
   -1.5199   -8.1267   33.6324 H   0  0  0  0  0  0  0  0  0  0  0  0
    1.1526   -5.9051   29.5486 H   0  0  0  0  0  0  0  0  0  0  0  0
    1.8156    0.3767   27.0930 H   0  0  0  0  0  0  0  0  0  0  0  0
    2.0621    3.2194   26.1066 H   0  0  0  0  0  0  0  0  0  0  0  0
    0.8673    4.2966   26.8465 H   0  0  0  0  0  0  0  0  0  0  0  0
    0.3490    3.0775   25.6671 H   0  0  0  0  0  0  0  0  0  0  0  0
  1  2  1  0
  2  3  1  0
  3  4  2  0
  3  5  1  0
  5  6  1  0
  6  7  1  0
  7  8  2  3
  8  9  1  0
  9 10  1  0
 10 11  1  0
 11 12  1  0
 12 13  1  0
 13 14  2  0
 14 15  1  0
 15 16  1  0
 16 17  1  0
 17 18  1  0
 18 19  1  0
 19 20  2  0
 20 21  1  0
 21 22  2  0
 22 23  1  0
 23 24  2  0
 18 25  1  0
 25 26  2  0
 25 27  2  0
 14 28  1  0
 28 29  1  0
 29 30  2  0
 30 31  1  0
 31 32  2  0
 32 33  1  0
  7 34  1  0
 34 35  1  0
 35 36  2  0
 36 37  1  0
 36 38  1  0
 38 39  1  0
 33 12  2  0
 39 34  2  0
 25 15  1  0
 32 28  1  0
 24 19  1  0
  1 40  1  0
  1 41  1  0
  1 42  1  0
  5 43  1  0
  5 44  1  0
  6 45  1  0
  9 46  1  0
  9 47  1  0
 10 48  1  0
 10 49  1  0
 11 50  1  0
 11 51  1  0
 13 52  1  0
 16 53  1  0
 16 54  1  0
 17 55  1  0
 17 56  1  0
 18 57  1  0
 20 58  1  0
 21 59  1  0
 22 60  1  0
 23 61  1  0
 24 62  1  0
 29 63  1  0
 33 64  1  0
 35 65  1  0
 37 66  1  0
 37 67  1  0
 37 68  1  0
M  END
>  <Energy>  (265) 
97.121304321357087

>  <compound_id>  (265) 
581

>  <target_id>  (265) 
1

>  <reference_id>  (265) 
59

>  <inspiration_ids>  (265) 
[59, 128]

>  <energy_score>  (265) 
-109.85981050215463

>  <distance_score>  (265) 
2.9390021705490774

>  <path>  (265) 
/opt/xchem-fragalysis-2/maxwin/BulkDock/SCRATCH/505733/C581-P59/C581-P59.minimised.mol

>  <scratch_subdir>  (265) 
/opt/xchem-fragalysis-2/maxwin/BulkDock/SCRATCH/505733/C581-P59

>  <fragmenstein_runtime>  (265) 
9.51318907737732

>  <fragmenstein_outcome>  (265) 
too moved

>  <fragmenstein_mode>  (265) 
expansion

>  <fragmenstein_error>  (265) 


$$$$
C581-P128
     RDKit          3D

 68 72  0  0  0  0  0  0  0  0999 V2000
   -6.1845   -1.2576   34.0735 C   0  0  0  0  0  0  0  0  0  0  0  0
   -4.8979   -1.8518   33.8781 O   0  0  0  0  0  0  0  0  0  0  0  0
   -3.9796   -1.0037   33.3393 C   0  0  0  0  0  0  0  0  0  0  0  0
   -4.1852    0.1849   33.1000 O   0  0  0  0  0  0  0  0  0  0  0  0
   -2.6647   -1.7190   33.0224 C   0  0  0  0  0  0  0  0  0  0  0  0
   -2.0043   -1.0033   31.9660 N   0  0  0  0  0  0  0  0  0  0  0  0
   -0.7491   -1.2310   31.3090 C   0  0  0  0  0  0  0  0  0  0  0  0
    0.1552   -2.0673   31.5299 N   0  0  0  0  0  0  0  0  0  0  0  0
    1.3832   -1.9995   30.7218 C   0  0  0  0  0  0  0  0  0  0  0  0
    2.5346   -2.7009   31.4344 C   0  0  0  0  0  0  0  0  0  0  0  0
    2.7046   -4.1634   31.0239 C   0  0  0  0  0  0  0  0  0  0  0  0
    1.6187   -5.0919   31.4974 C   0  0  0  0  0  0  0  0  0  0  0  0
    1.5477   -5.3424   32.9342 C   0  0  0  0  0  0  0  0  0  0  0  0
    0.6567   -6.2240   33.4267 C   0  0  0  0  0  0  0  0  0  0  0  0
    0.6701   -6.3320   34.8487 N   0  0  0  0  0  0  0  0  0  0  0  0
   -0.4954   -6.5873   35.7087 C   0  0  0  0  0  0  0  0  0  0  0  0
    0.0419   -6.3727   37.1262 C   0  0  0  0  0  0  0  0  0  0  0  0
    1.3162   -7.2183   37.1882 C   0  0  0  0  0  0  0  0  0  0  0  0
    2.2519   -6.9531   38.3391 C   0  0  0  0  0  0  0  0  0  0  0  0
    2.6800   -8.0306   39.1329 C   0  0  0  0  0  0  0  0  0  0  0  0
    3.5342   -7.8273   40.2183 C   0  0  0  0  0  0  0  0  0  0  0  0
    3.9726   -6.5435   40.5291 C   0  0  0  0  0  0  0  0  0  0  0  0
    3.5550   -5.4635   39.7564 C   0  0  0  0  0  0  0  0  0  0  0  0
    2.6983   -5.6653   38.6720 C   0  0  0  0  0  0  0  0  0  0  0  0
    2.1136   -6.9351   35.5857 S   0  0  0  0  0  0  0  0  0  0  0  0
    2.4392   -8.1971   34.9456 O   0  0  0  0  0  0  0  0  0  0  0  0
    3.0669   -5.8486   35.6266 O   0  0  0  0  0  0  0  0  0  0  0  0
   -0.2077   -6.8656   32.5321 N   0  0  0  0  0  0  0  0  0  0  0  0
   -1.1949   -7.7973   32.6888 C   0  0  0  0  0  0  0  0  0  0  0  0
   -1.7139   -8.1257   31.5260 N   0  0  0  0  0  0  0  0  0  0  0  0
   -1.0608   -7.4101   30.5592 N   0  0  0  0  0  0  0  0  0  0  0  0
   -0.1713   -6.6481   31.1583 C   0  0  0  0  0  0  0  0  0  0  0  0
    0.7725   -5.7166   30.6535 C   0  0  0  0  0  0  0  0  0  0  0  0
   -0.6635   -0.2745   30.2026 C   0  0  0  0  0  0  0  0  0  0  0  0
   -1.1708   -0.4269   28.8920 C   0  0  0  0  0  0  0  0  0  0  0  0
   -0.9875    0.8072   28.3249 C   0  0  0  0  0  0  0  0  0  0  0  0
   -1.3716    1.4107   27.0431 C   0  0  0  0  0  0  0  0  0  0  0  0
   -0.3392    1.6185   29.2000 O   0  0  0  0  0  0  0  0  0  0  0  0
   -0.1540    0.9499   30.3960 N   0  0  0  0  0  0  0  0  0  0  0  0
   -6.6085   -0.9412   33.1151 H   0  0  0  0  0  0  0  0  0  0  0  0
   -6.1181   -0.4150   34.7687 H   0  0  0  0  0  0  0  0  0  0  0  0
   -6.8426   -2.0143   34.5093 H   0  0  0  0  0  0  0  0  0  0  0  0
   -2.8802   -2.7325   32.6791 H   0  0  0  0  0  0  0  0  0  0  0  0
   -2.0500   -1.7478   33.9258 H   0  0  0  0  0  0  0  0  0  0  0  0
   -2.4431   -0.1754   31.5604 H   0  0  0  0  0  0  0  0  0  0  0  0
    1.2132   -2.4332   29.7293 H   0  0  0  0  0  0  0  0  0  0  0  0
    1.7081   -0.9609   30.5896 H   0  0  0  0  0  0  0  0  0  0  0  0
    3.4640   -2.1876   31.1538 H   0  0  0  0  0  0  0  0  0  0  0  0
    2.4442   -2.5970   32.5220 H   0  0  0  0  0  0  0  0  0  0  0  0
    3.6637   -4.5166   31.4234 H   0  0  0  0  0  0  0  0  0  0  0  0
    2.8062   -4.2218   29.9322 H   0  0  0  0  0  0  0  0  0  0  0  0
    2.2110   -4.7645   33.5712 H   0  0  0  0  0  0  0  0  0  0  0  0
   -1.3025   -5.8819   35.4946 H   0  0  0  0  0  0  0  0  0  0  0  0
   -0.8599   -7.6112   35.5940 H   0  0  0  0  0  0  0  0  0  0  0  0
    0.2574   -5.3072   37.2722 H   0  0  0  0  0  0  0  0  0  0  0  0
   -0.6779   -6.6664   37.8931 H   0  0  0  0  0  0  0  0  0  0  0  0
    1.0161   -8.2703   37.1866 H   0  0  0  0  0  0  0  0  0  0  0  0
    2.3425   -9.0432   38.9191 H   0  0  0  0  0  0  0  0  0  0  0  0
    3.8558   -8.6711   40.8232 H   0  0  0  0  0  0  0  0  0  0  0  0
    4.6397   -6.3834   41.3720 H   0  0  0  0  0  0  0  0  0  0  0  0
    3.9004   -4.4601   39.9936 H   0  0  0  0  0  0  0  0  0  0  0  0
    2.4036   -4.7993   38.0817 H   0  0  0  0  0  0  0  0  0  0  0  0
   -1.4913   -8.2158   33.6354 H   0  0  0  0  0  0  0  0  0  0  0  0
    0.8050   -5.5438   29.5846 H   0  0  0  0  0  0  0  0  0  0  0  0
   -1.6569   -1.2861   28.4508 H   0  0  0  0  0  0  0  0  0  0  0  0
   -0.4932    1.8017   26.5227 H   0  0  0  0  0  0  0  0  0  0  0  0
   -2.0670    2.2402   27.2069 H   0  0  0  0  0  0  0  0  0  0  0  0
   -1.8703    0.6815   26.3986 H   0  0  0  0  0  0  0  0  0  0  0  0
  1  2  1  0
  2  3  1  0
  3  4  2  0
  3  5  1  0
  5  6  1  0
  6  7  1  0
  7  8  2  3
  8  9  1  0
  9 10  1  0
 10 11  1  0
 11 12  1  0
 12 13  1  0
 13 14  2  0
 14 15  1  0
 15 16  1  0
 16 17  1  0
 17 18  1  0
 18 19  1  0
 19 20  2  0
 20 21  1  0
 21 22  2  0
 22 23  1  0
 23 24  2  0
 18 25  1  0
 25 26  2  0
 25 27  2  0
 14 28  1  0
 28 29  1  0
 29 30  2  0
 30 31  1  0
 31 32  2  0
 32 33  1  0
  7 34  1  0
 34 35  1  0
 35 36  2  0
 36 37  1  0
 36 38  1  0
 38 39  1  0
 33 12  2  0
 39 34  2  0
 25 15  1  0
 32 28  1  0
 24 19  1  0
  1 40  1  0
  1 41  1  0
  1 42  1  0
  5 43  1  0
  5 44  1  0
  6 45  1  0
  9 46  1  0
  9 47  1  0
 10 48  1  0
 10 49  1  0
 11 50  1  0
 11 51  1  0
 13 52  1  0
 16 53  1  0
 16 54  1  0
 17 55  1  0
 17 56  1  0
 18 57  1  0
 20 58  1  0
 21 59  1  0
 22 60  1  0
 23 61  1  0
 24 62  1  0
 29 63  1  0
 33 64  1  0
 35 65  1  0
 37 66  1  0
 37 67  1  0
 37 68  1  0
M  END
>  <Energy>  (266) 
104.5119932983814

>  <compound_id>  (266) 
581

>  <target_id>  (266) 
1

>  <reference_id>  (266) 
128

>  <inspiration_ids>  (266) 
[59, 128]

>  <energy_score>  (266) 
-102.46912152512954

>  <distance_score>  (266) 
1.7341853850151356

>  <path>  (266) 
/opt/xchem-fragalysis-2/maxwin/BulkDock/SCRATCH/505733/C581-P128/C581-P128.minimised.mol

>  <scratch_subdir>  (266) 
/opt/xchem-fragalysis-2/maxwin/BulkDock/SCRATCH/505733/C581-P128

>  <fragmenstein_runtime>  (266) 
11.560720205307007

>  <fragmenstein_outcome>  (266) 
too moved

>  <fragmenstein_mode>  (266) 
expansion

>  <fragmenstein_error>  (266) 


$$$$
C582-P59
     RDKit          3D

 60 64  0  0  0  0  0  0  0  0999 V2000
   -6.7999   -0.5148   34.7860 C   0  0  0  0  0  0  0  0  0  0  0  0
   -5.6838   -1.3670   34.5081 O   0  0  0  0  0  0  0  0  0  0  0  0
   -4.7755   -0.8147   33.6539 C   0  0  0  0  0  0  0  0  0  0  0  0
   -4.8391    0.3236   33.2003 O   0  0  0  0  0  0  0  0  0  0  0  0
   -3.6911   -1.8211   33.2950 C   0  0  0  0  0  0  0  0  0  0  0  0
   -2.7896   -1.2474   32.3369 N   0  0  0  0  0  0  0  0  0  0  0  0
   -1.2345   -1.3348   32.2249 C   0  0  0  0  0  0  0  0  0  0  0  0
   -0.4248   -1.8373   32.9603 N   0  0  0  0  0  0  0  0  0  0  0  0
    1.0190   -1.6443   32.9357 C   0  0  0  0  0  0  0  0  0  0  0  0
    1.8334   -2.2301   31.7803 C   0  0  0  0  0  0  0  0  0  0  0  0
    1.3310   -3.4033   30.9313 C   0  0  0  0  0  0  0  0  0  0  0  0
    0.7940   -4.6712   31.5466 C   0  0  0  0  0  0  0  0  0  0  0  0
    0.8808   -4.9023   32.9845 C   0  0  0  0  0  0  0  0  0  0  0  0
    0.1842   -5.9071   33.5519 C   0  0  0  0  0  0  0  0  0  0  0  0
    0.1149   -6.0841   35.2796 S   0  0  0  0  0  0  0  0  0  0  0  0
    1.4155   -7.2190   35.4875 C   0  0  0  0  0  0  0  0  0  0  0  0
    2.1462   -7.7294   34.5178 N   0  0  0  0  0  0  0  0  0  0  0  0
    3.0463   -8.5853   35.1087 N   0  0  0  0  0  0  0  0  0  0  0  0
    2.8213   -8.5394   36.4086 C   0  0  0  0  0  0  0  0  0  0  0  0
    3.5555   -9.2818   37.3768 C   0  0  0  0  0  0  0  0  0  0  0  0
    4.6463  -10.1143   37.2166 C   0  0  0  0  0  0  0  0  0  0  0  0
    4.9901  -10.6220   38.4933 C   0  0  0  0  0  0  0  0  0  0  0  0
    4.1047  -10.0837   39.3995 C   0  0  0  0  0  0  0  0  0  0  0  0
    3.2398   -9.2701   38.7140 N   0  0  0  0  0  0  0  0  0  0  0  0
    1.7859   -7.6928   36.7179 O   0  0  0  0  0  0  0  0  0  0  0  0
   -0.5221   -6.7705   32.7097 N   0  0  0  0  0  0  0  0  0  0  0  0
   -1.3398   -7.8321   32.9632 C   0  0  0  0  0  0  0  0  0  0  0  0
   -1.7740   -8.3622   31.8424 N   0  0  0  0  0  0  0  0  0  0  0  0
   -1.2598   -7.6247   30.8072 N   0  0  0  0  0  0  0  0  0  0  0  0
   -0.5281   -6.6643   31.3292 C   0  0  0  0  0  0  0  0  0  0  0  0
    0.1396   -5.5543   30.7590 C   0  0  0  0  0  0  0  0  0  0  0  0
   -0.8768   -0.6076   31.0135 C   0  0  0  0  0  0  0  0  0  0  0  0
   -1.2355   -0.9458   29.6852 C   0  0  0  0  0  0  0  0  0  0  0  0
   -0.6460    0.0302   28.9289 C   0  0  0  0  0  0  0  0  0  0  0  0
   -0.5428    0.2750   27.4875 C   0  0  0  0  0  0  0  0  0  0  0  0
   -0.0231    0.9218   29.7406 O   0  0  0  0  0  0  0  0  0  0  0  0
   -0.1837    0.5366   31.0565 N   0  0  0  0  0  0  0  0  0  0  0  0
   -6.4684    0.4524   35.1764 H   0  0  0  0  0  0  0  0  0  0  0  0
   -7.4127   -1.0031   35.5489 H   0  0  0  0  0  0  0  0  0  0  0  0
   -7.4067   -0.3901   33.8845 H   0  0  0  0  0  0  0  0  0  0  0  0
   -4.1702   -2.6946   32.8489 H   0  0  0  0  0  0  0  0  0  0  0  0
   -3.1515   -2.0819   34.2085 H   0  0  0  0  0  0  0  0  0  0  0  0
   -3.1655   -0.8220   31.4934 H   0  0  0  0  0  0  0  0  0  0  0  0
    1.2567   -0.5773   33.0393 H   0  0  0  0  0  0  0  0  0  0  0  0
    1.4017   -2.0713   33.8709 H   0  0  0  0  0  0  0  0  0  0  0  0
    2.0467   -1.4106   31.0800 H   0  0  0  0  0  0  0  0  0  0  0  0
    2.8205   -2.4991   32.1820 H   0  0  0  0  0  0  0  0  0  0  0  0
    0.5657   -3.0144   30.2500 H   0  0  0  0  0  0  0  0  0  0  0  0
    2.1686   -3.6945   30.2806 H   0  0  0  0  0  0  0  0  0  0  0  0
    1.4676   -4.2261   33.5936 H   0  0  0  0  0  0  0  0  0  0  0  0
    5.1393  -10.3403   36.2785 H   0  0  0  0  0  0  0  0  0  0  0  0
    5.7947  -11.3091   38.7245 H   0  0  0  0  0  0  0  0  0  0  0  0
    4.0146  -10.2119   40.4704 H   0  0  0  0  0  0  0  0  0  0  0  0
    2.4781   -8.7480   39.1287 H   0  0  0  0  0  0  0  0  0  0  0  0
   -1.5887   -8.1600   33.9587 H   0  0  0  0  0  0  0  0  0  0  0  0
    0.0326   -5.3823   29.6955 H   0  0  0  0  0  0  0  0  0  0  0  0
   -1.7960   -1.7982   29.3283 H   0  0  0  0  0  0  0  0  0  0  0  0
   -0.6679    1.3383   27.2606 H   0  0  0  0  0  0  0  0  0  0  0  0
    0.4403   -0.0389   27.1288 H   0  0  0  0  0  0  0  0  0  0  0  0
   -1.3160   -0.2751   26.9446 H   0  0  0  0  0  0  0  0  0  0  0  0
  1  2  1  0
  2  3  1  0
  3  4  2  0
  3  5  1  0
  5  6  1  0
  6  7  1  0
  7  8  2  3
  8  9  1  0
  9 10  1  0
 10 11  1  0
 11 12  1  0
 12 13  1  0
 13 14  2  0
 14 15  1  0
 15 16  1  0
 16 17  2  0
 17 18  1  0
 18 19  2  0
 19 20  1  0
 20 21  2  0
 21 22  1  0
 22 23  2  0
 23 24  1  0
 19 25  1  0
 14 26  1  0
 26 27  1  0
 27 28  2  0
 28 29  1  0
 29 30  2  0
 30 31  1  0
  7 32  1  0
 32 33  1  0
 33 34  2  0
 34 35  1  0
 34 36  1  0
 36 37  1  0
 31 12  2  0
 37 32  2  0
 25 16  1  0
 30 26  1  0
 24 20  1  0
  1 38  1  0
  1 39  1  0
  1 40  1  0
  5 41  1  0
  5 42  1  0
  6 43  1  0
  9 44  1  0
  9 45  1  0
 10 46  1  0
 10 47  1  0
 11 48  1  0
 11 49  1  0
 13 50  1  0
 21 51  1  0
 22 52  1  0
 23 53  1  0
 24 54  1  0
 27 55  1  0
 31 56  1  0
 33 57  1  0
 35 58  1  0
 35 59  1  0
 35 60  1  0
M  END
>  <Energy>  (267) 
104.77927360306263

>  <compound_id>  (267) 
582

>  <target_id>  (267) 
1

>  <reference_id>  (267) 
59

>  <inspiration_ids>  (267) 
[59, 129]

>  <energy_score>  (267) 
-39.1189646089843

>  <distance_score>  (267) 
1.0872382885315723

>  <path>  (267) 
/opt/xchem-fragalysis-2/maxwin/BulkDock/SCRATCH/505733/C582-P59/C582-P59.minimised.mol

>  <scratch_subdir>  (267) 
/opt/xchem-fragalysis-2/maxwin/BulkDock/SCRATCH/505733/C582-P59

>  <fragmenstein_runtime>  (267) 
7.57935094833374

>  <fragmenstein_outcome>  (267) 
too moved

>  <fragmenstein_mode>  (267) 
expansion

>  <fragmenstein_error>  (267) 


$$$$
C582-P129
     RDKit          3D

 60 64  0  0  0  0  0  0  0  0999 V2000
   -6.6338   -0.3405   34.7510 C   0  0  0  0  0  0  0  0  0  0  0  0
   -5.5562   -1.2452   34.4981 O   0  0  0  0  0  0  0  0  0  0  0  0
   -4.6056   -0.7473   33.6569 C   0  0  0  0  0  0  0  0  0  0  0  0
   -4.5983    0.3867   33.1861 O   0  0  0  0  0  0  0  0  0  0  0  0
   -3.5706   -1.8145   33.3326 C   0  0  0  0  0  0  0  0  0  0  0  0
   -2.6600   -1.3305   32.3337 N   0  0  0  0  0  0  0  0  0  0  0  0
   -1.1012   -1.3835   32.2684 C   0  0  0  0  0  0  0  0  0  0  0  0
   -0.3053   -1.9121   33.0009 N   0  0  0  0  0  0  0  0  0  0  0  0
    1.1401   -1.7299   32.9850 C   0  0  0  0  0  0  0  0  0  0  0  0
    1.9455   -2.3916   31.8625 C   0  0  0  0  0  0  0  0  0  0  0  0
    1.3499   -3.4899   30.9752 C   0  0  0  0  0  0  0  0  0  0  0  0
    0.7860   -4.7673   31.5472 C   0  0  0  0  0  0  0  0  0  0  0  0
    0.7311   -4.9899   32.9882 C   0  0  0  0  0  0  0  0  0  0  0  0
    0.0267   -6.0232   33.4926 C   0  0  0  0  0  0  0  0  0  0  0  0
   -0.1540   -6.2411   35.2051 S   0  0  0  0  0  0  0  0  0  0  0  0
    1.3549   -7.0485   35.5167 C   0  0  0  0  0  0  0  0  0  0  0  0
    2.1282   -7.6104   34.6073 N   0  0  0  0  0  0  0  0  0  0  0  0
    3.2190   -8.1212   35.2738 N   0  0  0  0  0  0  0  0  0  0  0  0
    3.0461   -7.8392   36.5529 C   0  0  0  0  0  0  0  0  0  0  0  0
    3.9420   -8.2218   37.5923 C   0  0  0  0  0  0  0  0  0  0  0  0
    5.1964   -8.7952   37.5246 C   0  0  0  0  0  0  0  0  0  0  0  0
    5.6527   -8.9854   38.8523 C   0  0  0  0  0  0  0  0  0  0  0  0
    4.6627   -8.5315   39.6946 C   0  0  0  0  0  0  0  0  0  0  0  0
    3.6280   -8.0703   38.9215 N   0  0  0  0  0  0  0  0  0  0  0  0
    1.8750   -7.1628   36.7768 O   0  0  0  0  0  0  0  0  0  0  0  0
   -0.5789   -6.9042   32.5948 N   0  0  0  0  0  0  0  0  0  0  0  0
   -1.3869   -7.9901   32.7722 C   0  0  0  0  0  0  0  0  0  0  0  0
   -1.6993   -8.5217   31.6120 N   0  0  0  0  0  0  0  0  0  0  0  0
   -1.1100   -7.7706   30.6304 N   0  0  0  0  0  0  0  0  0  0  0  0
   -0.4553   -6.7956   31.2194 C   0  0  0  0  0  0  0  0  0  0  0  0
    0.2418   -5.6753   30.7061 C   0  0  0  0  0  0  0  0  0  0  0  0
   -0.7296   -0.6147   31.0869 C   0  0  0  0  0  0  0  0  0  0  0  0
   -1.0983   -0.8979   29.7483 C   0  0  0  0  0  0  0  0  0  0  0  0
   -0.5383    0.1221   29.0307 C   0  0  0  0  0  0  0  0  0  0  0  0
   -0.4807    0.4474   27.6040 C   0  0  0  0  0  0  0  0  0  0  0  0
    0.0985    0.9748   29.8723 O   0  0  0  0  0  0  0  0  0  0  0  0
   -0.0357    0.5262   31.1713 N   0  0  0  0  0  0  0  0  0  0  0  0
   -6.2642    0.6263   35.1067 H   0  0  0  0  0  0  0  0  0  0  0  0
   -7.2635   -0.7768   35.5314 H   0  0  0  0  0  0  0  0  0  0  0  0
   -7.2363   -0.2236   33.8467 H   0  0  0  0  0  0  0  0  0  0  0  0
   -4.1023   -2.6747   32.9226 H   0  0  0  0  0  0  0  0  0  0  0  0
   -3.0326   -2.0669   34.2492 H   0  0  0  0  0  0  0  0  0  0  0  0
   -3.0087   -0.7246   31.5950 H   0  0  0  0  0  0  0  0  0  0  0  0
    1.3965   -0.6643   33.0428 H   0  0  0  0  0  0  0  0  0  0  0  0
    1.5110   -2.1228   33.9402 H   0  0  0  0  0  0  0  0  0  0  0  0
    2.2681   -1.5888   31.1843 H   0  0  0  0  0  0  0  0  0  0  0  0
    2.8812   -2.7675   32.2990 H   0  0  0  0  0  0  0  0  0  0  0  0
    0.5731   -3.0378   30.3498 H   0  0  0  0  0  0  0  0  0  0  0  0
    2.1466   -3.7796   30.2740 H   0  0  0  0  0  0  0  0  0  0  0  0
    1.2310   -4.2951   33.6509 H   0  0  0  0  0  0  0  0  0  0  0  0
    5.7281   -9.0469   36.6149 H   0  0  0  0  0  0  0  0  0  0  0  0
    6.6013   -9.4075   39.1591 H   0  0  0  0  0  0  0  0  0  0  0  0
    4.6045   -8.4945   40.7747 H   0  0  0  0  0  0  0  0  0  0  0  0
    2.7575   -7.6882   39.2716 H   0  0  0  0  0  0  0  0  0  0  0  0
   -1.7165   -8.3427   33.7378 H   0  0  0  0  0  0  0  0  0  0  0  0
    0.2431   -5.5223   29.6332 H   0  0  0  0  0  0  0  0  0  0  0  0
   -1.6615   -1.7356   29.3636 H   0  0  0  0  0  0  0  0  0  0  0  0
   -0.6248    1.5201   27.4408 H   0  0  0  0  0  0  0  0  0  0  0  0
    0.4968    0.1691   27.2042 H   0  0  0  0  0  0  0  0  0  0  0  0
   -1.2628   -0.0804   27.0524 H   0  0  0  0  0  0  0  0  0  0  0  0
  1  2  1  0
  2  3  1  0
  3  4  2  0
  3  5  1  0
  5  6  1  0
  6  7  1  0
  7  8  2  3
  8  9  1  0
  9 10  1  0
 10 11  1  0
 11 12  1  0
 12 13  1  0
 13 14  2  0
 14 15  1  0
 15 16  1  0
 16 17  2  0
 17 18  1  0
 18 19  2  0
 19 20  1  0
 20 21  2  0
 21 22  1  0
 22 23  2  0
 23 24  1  0
 19 25  1  0
 14 26  1  0
 26 27  1  0
 27 28  2  0
 28 29  1  0
 29 30  2  0
 30 31  1  0
  7 32  1  0
 32 33  1  0
 33 34  2  0
 34 35  1  0
 34 36  1  0
 36 37  1  0
 31 12  2  0
 37 32  2  0
 25 16  1  0
 30 26  1  0
 24 20  1  0
  1 38  1  0
  1 39  1  0
  1 40  1  0
  5 41  1  0
  5 42  1  0
  6 43  1  0
  9 44  1  0
  9 45  1  0
 10 46  1  0
 10 47  1  0
 11 48  1  0
 11 49  1  0
 13 50  1  0
 21 51  1  0
 22 52  1  0
 23 53  1  0
 24 54  1  0
 27 55  1  0
 31 56  1  0
 33 57  1  0
 35 58  1  0
 35 59  1  0
 35 60  1  0
M  END
>  <Energy>  (268) 
103.02923688623129

>  <compound_id>  (268) 
582

>  <target_id>  (268) 
1

>  <reference_id>  (268) 
129

>  <inspiration_ids>  (268) 
[59, 129]

>  <energy_score>  (268) 
-40.86900132581832

>  <distance_score>  (268) 
1.1725221150080174

>  <path>  (268) 
/opt/xchem-fragalysis-2/maxwin/BulkDock/SCRATCH/505733/C582-P129/C582-P129.minimised.mol

>  <scratch_subdir>  (268) 
/opt/xchem-fragalysis-2/maxwin/BulkDock/SCRATCH/505733/C582-P129

>  <fragmenstein_runtime>  (268) 
6.635688781738281

>  <fragmenstein_outcome>  (268) 
too moved

>  <fragmenstein_mode>  (268) 
expansion

>  <fragmenstein_error>  (268) 


$$$$
C583-P59
     RDKit          3D

 60 64  0  0  0  0  0  0  0  0999 V2000
   -1.3211    3.1062   37.6054 C   0  0  0  0  0  0  0  0  0  0  0  0
   -0.4352    2.2117   36.9295 O   0  0  0  0  0  0  0  0  0  0  0  0
   -0.6216    2.1642   35.5761 C   0  0  0  0  0  0  0  0  0  0  0  0
   -1.4613    2.8137   34.9655 O   0  0  0  0  0  0  0  0  0  0  0  0
    0.3818    1.1885   34.9650 C   0  0  0  0  0  0  0  0  0  0  0  0
    0.1767    1.0242   33.5507 N   0  0  0  0  0  0  0  0  0  0  0  0
   -1.0099    0.3802   32.7625 C   0  0  0  0  0  0  0  0  0  0  0  0
   -1.9908   -0.1991   33.1575 N   0  0  0  0  0  0  0  0  0  0  0  0
   -2.1079   -0.8787   34.4285 C   0  0  0  0  0  0  0  0  0  0  0  0
   -1.3194   -2.2111   34.3258 C   0  0  0  0  0  0  0  0  0  0  0  0
   -1.2865   -2.7107   32.8664 C   0  0  0  0  0  0  0  0  0  0  0  0
   -0.9593   -4.1097   32.4570 C   0  0  0  0  0  0  0  0  0  0  0  0
   -0.8588   -4.2544   30.9973 C   0  0  0  0  0  0  0  0  0  0  0  0
   -0.5603   -5.4331   30.4281 C   0  0  0  0  0  0  0  0  0  0  0  0
   -0.6130   -6.6001   31.2139 C   0  0  0  0  0  0  0  0  0  0  0  0
   -0.8346   -7.8636   30.9459 N   0  0  0  0  0  0  0  0  0  0  0  0
   -0.8593   -8.5248   32.1475 N   0  0  0  0  0  0  0  0  0  0  0  0
   -0.5967   -7.6612   33.1054 C   0  0  0  0  0  0  0  0  0  0  0  0
   -0.4918   -6.4123   32.5743 N   0  0  0  0  0  0  0  0  0  0  0  0
   -0.4689   -5.1462   33.1747 C   0  0  0  0  0  0  0  0  0  0  0  0
    0.8387   -4.8034   34.2781 S   0  0  0  0  0  0  0  0  0  0  0  0
    1.9210   -4.4163   32.9341 C   0  0  0  0  0  0  0  0  0  0  0  0
    2.7562   -5.2963   32.4275 N   0  0  0  0  0  0  0  0  0  0  0  0
    3.1332   -4.8055   31.1973 N   0  0  0  0  0  0  0  0  0  0  0  0
    2.5185   -3.6473   31.0269 C   0  0  0  0  0  0  0  0  0  0  0  0
    2.6836   -2.8502   29.8560 C   0  0  0  0  0  0  0  0  0  0  0  0
    3.3487   -3.1756   28.6869 C   0  0  0  0  0  0  0  0  0  0  0  0
    3.3731   -2.0251   27.8682 C   0  0  0  0  0  0  0  0  0  0  0  0
    2.7028   -1.0344   28.5450 C   0  0  0  0  0  0  0  0  0  0  0  0
    2.2637   -1.5494   29.7409 N   0  0  0  0  0  0  0  0  0  0  0  0
    1.7634   -3.3110   32.1234 O   0  0  0  0  0  0  0  0  0  0  0  0
   -0.7867    0.4429   31.3193 C   0  0  0  0  0  0  0  0  0  0  0  0
   -1.5277   -0.1971   30.2845 C   0  0  0  0  0  0  0  0  0  0  0  0
   -0.8193    0.0686   29.1433 C   0  0  0  0  0  0  0  0  0  0  0  0
   -0.9478   -0.3264   27.7321 C   0  0  0  0  0  0  0  0  0  0  0  0
    0.2453    0.8500   29.4554 O   0  0  0  0  0  0  0  0  0  0  0  0
    0.2993    1.0477   30.8190 N   0  0  0  0  0  0  0  0  0  0  0  0
   -1.0897    3.0689   38.6734 H   0  0  0  0  0  0  0  0  0  0  0  0
   -1.1716    4.1319   37.2539 H   0  0  0  0  0  0  0  0  0  0  0  0
   -2.3607    2.7942   37.4649 H   0  0  0  0  0  0  0  0  0  0  0  0
    1.3839    1.5986   35.1284 H   0  0  0  0  0  0  0  0  0  0  0  0
    0.3216    0.2247   35.4756 H   0  0  0  0  0  0  0  0  0  0  0  0
    0.7960    1.5054   32.8976 H   0  0  0  0  0  0  0  0  0  0  0  0
   -1.8086   -0.2881   35.2946 H   0  0  0  0  0  0  0  0  0  0  0  0
   -3.1670   -1.1186   34.5808 H   0  0  0  0  0  0  0  0  0  0  0  0
   -0.2911   -2.0316   34.6599 H   0  0  0  0  0  0  0  0  0  0  0  0
   -1.7538   -2.9452   35.0097 H   0  0  0  0  0  0  0  0  0  0  0  0
   -2.2839   -2.5273   32.4396 H   0  0  0  0  0  0  0  0  0  0  0  0
   -0.5678   -2.0823   32.3317 H   0  0  0  0  0  0  0  0  0  0  0  0
   -0.9072   -3.3642   30.3716 H   0  0  0  0  0  0  0  0  0  0  0  0
   -0.4223   -5.4916   29.3664 H   0  0  0  0  0  0  0  0  0  0  0  0
   -0.5513   -7.8770   34.1632 H   0  0  0  0  0  0  0  0  0  0  0  0
    3.8086   -4.1325   28.4706 H   0  0  0  0  0  0  0  0  0  0  0  0
    3.8423   -1.9219   26.8984 H   0  0  0  0  0  0  0  0  0  0  0  0
    2.5005   -0.0043   28.2812 H   0  0  0  0  0  0  0  0  0  0  0  0
    1.7515   -1.0209   30.4384 H   0  0  0  0  0  0  0  0  0  0  0  0
   -2.4236   -0.7912   30.3797 H   0  0  0  0  0  0  0  0  0  0  0  0
   -0.6081    0.4735   27.0678 H   0  0  0  0  0  0  0  0  0  0  0  0
   -1.9885   -0.5562   27.4833 H   0  0  0  0  0  0  0  0  0  0  0  0
   -0.3449   -1.2183   27.5456 H   0  0  0  0  0  0  0  0  0  0  0  0
  1  2  1  0
  2  3  1  0
  3  4  2  0
  3  5  1  0
  5  6  1  0
  6  7  1  0
  7  8  2  3
  8  9  1  0
  9 10  1  0
 10 11  1  0
 11 12  1  0
 12 13  1  0
 13 14  2  0
 14 15  1  0
 15 16  2  0
 16 17  1  0
 17 18  2  0
 18 19  1  0
 19 20  1  0
 20 21  1  0
 21 22  1  0
 22 23  2  0
 23 24  1  0
 24 25  2  0
 25 26  1  0
 26 27  2  0
 27 28  1  0
 28 29  2  0
 29 30  1  0
 25 31  1  0
  7 32  1  0
 32 33  1  0
 33 34  2  0
 34 35  1  0
 34 36  1  0
 36 37  1  0
 20 12  2  0
 31 22  1  0
 37 32  2  0
 19 15  1  0
 30 26  1  0
  1 38  1  0
  1 39  1  0
  1 40  1  0
  5 41  1  0
  5 42  1  0
  6 43  1  0
  9 44  1  0
  9 45  1  0
 10 46  1  0
 10 47  1  0
 11 48  1  0
 11 49  1  0
 13 50  1  0
 14 51  1  0
 18 52  1  0
 27 53  1  0
 28 54  1  0
 29 55  1  0
 30 56  1  0
 33 57  1  0
 35 58  1  0
 35 59  1  0
 35 60  1  0
M  END
>  <Energy>  (269) 
134.32113225752636

>  <compound_id>  (269) 
583

>  <target_id>  (269) 
1

>  <reference_id>  (269) 
59

>  <inspiration_ids>  (269) 
[59, 130]

>  <energy_score>  (269) 
-26.01421572501249

>  <distance_score>  (269) 
3.0856275890718283

>  <path>  (269) 
/opt/xchem-fragalysis-2/maxwin/BulkDock/SCRATCH/505733/C583-P59/C583-P59.minimised.mol

>  <scratch_subdir>  (269) 
/opt/xchem-fragalysis-2/maxwin/BulkDock/SCRATCH/505733/C583-P59

>  <fragmenstein_runtime>  (269) 
7.708340406417847

>  <fragmenstein_outcome>  (269) 
too moved

>  <fragmenstein_mode>  (269) 
expansion

>  <fragmenstein_error>  (269) 


$$$$
C583-P130
     RDKit          3D

 60 64  0  0  0  0  0  0  0  0999 V2000
   -1.9739    2.8047   37.8214 C   0  0  0  0  0  0  0  0  0  0  0  0
   -0.9901    2.0221   37.1422 O   0  0  0  0  0  0  0  0  0  0  0  0
   -1.0786    2.0834   35.7789 C   0  0  0  0  0  0  0  0  0  0  0  0
   -1.9098    2.7399   35.1655 O   0  0  0  0  0  0  0  0  0  0  0  0
    0.0229    1.2218   35.1669 C   0  0  0  0  0  0  0  0  0  0  0  0
   -0.0925    1.1226   33.7367 N   0  0  0  0  0  0  0  0  0  0  0  0
   -1.1993    0.4680   32.8479 C   0  0  0  0  0  0  0  0  0  0  0  0
   -2.1724   -0.1747   33.1542 N   0  0  0  0  0  0  0  0  0  0  0  0
   -2.3214   -0.9378   34.3701 C   0  0  0  0  0  0  0  0  0  0  0  0
   -1.4740   -2.2254   34.2108 C   0  0  0  0  0  0  0  0  0  0  0  0
   -1.4379   -2.6861   32.7345 C   0  0  0  0  0  0  0  0  0  0  0  0
   -1.0553   -4.0691   32.2990 C   0  0  0  0  0  0  0  0  0  0  0  0
   -0.8837   -4.1894   30.8391 C   0  0  0  0  0  0  0  0  0  0  0  0
   -0.5047   -5.3473   30.2681 C   0  0  0  0  0  0  0  0  0  0  0  0
   -0.5665   -6.5306   31.0380 C   0  0  0  0  0  0  0  0  0  0  0  0
   -0.7459   -7.7964   30.7433 N   0  0  0  0  0  0  0  0  0  0  0  0
   -0.8475   -8.4746   31.9338 N   0  0  0  0  0  0  0  0  0  0  0  0
   -0.6665   -7.6180   32.9164 C   0  0  0  0  0  0  0  0  0  0  0  0
   -0.5355   -6.3615   32.4062 N   0  0  0  0  0  0  0  0  0  0  0  0
   -0.5723   -5.1059   33.0243 C   0  0  0  0  0  0  0  0  0  0  0  0
    0.6860   -4.7575   34.1867 S   0  0  0  0  0  0  0  0  0  0  0  0
    1.7996   -4.3015   32.8919 C   0  0  0  0  0  0  0  0  0  0  0  0
    2.6200   -5.1676   32.3395 N   0  0  0  0  0  0  0  0  0  0  0  0
    3.0179   -4.6142   31.1438 N   0  0  0  0  0  0  0  0  0  0  0  0
    2.4342   -3.4333   31.0394 C   0  0  0  0  0  0  0  0  0  0  0  0
    2.6425   -2.5679   29.9255 C   0  0  0  0  0  0  0  0  0  0  0  0
    3.3189   -2.8319   28.7472 C   0  0  0  0  0  0  0  0  0  0  0  0
    3.3928   -1.6287   28.0097 C   0  0  0  0  0  0  0  0  0  0  0  0
    2.7454   -0.6658   28.7458 C   0  0  0  0  0  0  0  0  0  0  0  0
    2.2669   -1.2489   29.8942 N   0  0  0  0  0  0  0  0  0  0  0  0
    1.6680   -3.1494   32.1443 O   0  0  0  0  0  0  0  0  0  0  0  0
   -0.9048    0.6106   31.4266 C   0  0  0  0  0  0  0  0  0  0  0  0
   -1.5774   -0.0065   30.3361 C   0  0  0  0  0  0  0  0  0  0  0  0
   -0.8055    0.2856   29.2460 C   0  0  0  0  0  0  0  0  0  0  0  0
   -0.8438   -0.0942   27.8266 C   0  0  0  0  0  0  0  0  0  0  0  0
    0.2314    1.0689   29.6370 O   0  0  0  0  0  0  0  0  0  0  0  0
    0.2087    1.2279   31.0082 N   0  0  0  0  0  0  0  0  0  0  0  0
   -1.8173    2.6858   38.8970 H   0  0  0  0  0  0  0  0  0  0  0  0
   -1.8615    3.8640   37.5699 H   0  0  0  0  0  0  0  0  0  0  0  0
   -2.9804    2.4512   37.5767 H   0  0  0  0  0  0  0  0  0  0  0  0
    0.0110    0.2266   35.6180 H   0  0  0  0  0  0  0  0  0  0  0  0
    0.9808    1.6938   35.4095 H   0  0  0  0  0  0  0  0  0  0  0  0
    0.6300    1.5227   33.1382 H   0  0  0  0  0  0  0  0  0  0  0  0
   -2.0790   -0.3982   35.2855 H   0  0  0  0  0  0  0  0  0  0  0  0
   -3.3754   -1.2265   34.4592 H   0  0  0  0  0  0  0  0  0  0  0  0
   -0.4493   -2.0046   34.5324 H   0  0  0  0  0  0  0  0  0  0  0  0
   -1.8599   -2.9947   34.8835 H   0  0  0  0  0  0  0  0  0  0  0  0
   -2.4431   -2.5277   32.3168 H   0  0  0  0  0  0  0  0  0  0  0  0
   -0.7500   -2.0164   32.2098 H   0  0  0  0  0  0  0  0  0  0  0  0
   -0.9348   -3.2897   30.2272 H   0  0  0  0  0  0  0  0  0  0  0  0
   -0.3028   -5.3912   29.2116 H   0  0  0  0  0  0  0  0  0  0  0  0
   -0.6943   -7.8447   33.9727 H   0  0  0  0  0  0  0  0  0  0  0  0
    3.7552   -3.7842   28.4714 H   0  0  0  0  0  0  0  0  0  0  0  0
    3.8784   -1.4728   27.0540 H   0  0  0  0  0  0  0  0  0  0  0  0
    2.5813    0.3865   28.5520 H   0  0  0  0  0  0  0  0  0  0  0  0
    1.7546   -0.7541   30.6158 H   0  0  0  0  0  0  0  0  0  0  0  0
   -2.4617   -0.6202   30.3722 H   0  0  0  0  0  0  0  0  0  0  0  0
   -0.2960   -1.0287   27.6851 H   0  0  0  0  0  0  0  0  0  0  0  0
   -0.3890    0.6815   27.2046 H   0  0  0  0  0  0  0  0  0  0  0  0
   -1.8732   -0.2424   27.4877 H   0  0  0  0  0  0  0  0  0  0  0  0
  1  2  1  0
  2  3  1  0
  3  4  2  0
  3  5  1  0
  5  6  1  0
  6  7  1  0
  7  8  2  3
  8  9  1  0
  9 10  1  0
 10 11  1  0
 11 12  1  0
 12 13  1  0
 13 14  2  0
 14 15  1  0
 15 16  2  0
 16 17  1  0
 17 18  2  0
 18 19  1  0
 19 20  1  0
 20 21  1  0
 21 22  1  0
 22 23  2  0
 23 24  1  0
 24 25  2  0
 25 26  1  0
 26 27  2  0
 27 28  1  0
 28 29  2  0
 29 30  1  0
 25 31  1  0
  7 32  1  0
 32 33  1  0
 33 34  2  0
 34 35  1  0
 34 36  1  0
 36 37  1  0
 20 12  2  0
 31 22  1  0
 37 32  2  0
 19 15  1  0
 30 26  1  0
  1 38  1  0
  1 39  1  0
  1 40  1  0
  5 41  1  0
  5 42  1  0
  6 43  1  0
  9 44  1  0
  9 45  1  0
 10 46  1  0
 10 47  1  0
 11 48  1  0
 11 49  1  0
 13 50  1  0
 14 51  1  0
 18 52  1  0
 27 53  1  0
 28 54  1  0
 29 55  1  0
 30 56  1  0
 33 57  1  0
 35 58  1  0
 35 59  1  0
 35 60  1  0
M  END
>  <Energy>  (270) 
135.17843361789744

>  <compound_id>  (270) 
583

>  <target_id>  (270) 
1

>  <reference_id>  (270) 
130

>  <inspiration_ids>  (270) 
[59, 130]

>  <energy_score>  (270) 
-25.156914364638908

>  <distance_score>  (270) 
2.9015372792131764

>  <path>  (270) 
/opt/xchem-fragalysis-2/maxwin/BulkDock/SCRATCH/505733/C583-P130/C583-P130.minimised.mol

>  <scratch_subdir>  (270) 
/opt/xchem-fragalysis-2/maxwin/BulkDock/SCRATCH/505733/C583-P130

>  <fragmenstein_runtime>  (270) 
8.464622259140015

>  <fragmenstein_outcome>  (270) 
too moved

>  <fragmenstein_mode>  (270) 
expansion

>  <fragmenstein_error>  (270) 


$$$$
C584-P59
     RDKit          3D

 64 68  0  0  0  0  0  0  0  0999 V2000
    6.0074   -1.3749   35.0973 C   0  0  0  0  0  0  0  0  0  0  0  0
    5.9324   -2.0601   33.8386 O   0  0  0  0  0  0  0  0  0  0  0  0
    4.8095   -2.0295   33.0750 C   0  0  0  0  0  0  0  0  0  0  0  0
    4.7883   -2.6230   31.9929 O   0  0  0  0  0  0  0  0  0  0  0  0
    3.6082   -1.2615   33.6349 C   0  0  0  0  0  0  0  0  0  0  0  0
    2.5065   -1.3166   32.7180 N   0  0  0  0  0  0  0  0  0  0  0  0
    1.1616   -1.7974   32.8813 C   0  0  0  0  0  0  0  0  0  0  0  0
    0.5672   -2.2192   33.8834 N   0  0  0  0  0  0  0  0  0  0  0  0
   -0.7632   -2.7750   34.0499 C   0  0  0  0  0  0  0  0  0  0  0  0
   -0.7518   -3.6282   35.3432 C   0  0  0  0  0  0  0  0  0  0  0  0
   -0.4474   -5.1386   35.1832 C   0  0  0  0  0  0  0  0  0  0  0  0
    0.5686   -5.4399   34.1086 C   0  0  0  0  0  0  0  0  0  0  0  0
    1.8662   -5.1357   34.3249 C   0  0  0  0  0  0  0  0  0  0  0  0
    2.8062   -5.0079   33.2307 C   0  0  0  0  0  0  0  0  0  0  0  0
    2.4060   -5.1461   31.9457 C   0  0  0  0  0  0  0  0  0  0  0  0
    3.2502   -4.7559   30.9098 N   0  0  0  0  0  0  0  0  0  0  0  0
    3.4089   -5.2416   29.6620 C   0  0  0  0  0  0  0  0  0  0  0  0
    2.8836   -6.2712   29.0362 N   0  0  0  0  0  0  0  0  0  0  0  0
    3.5133   -6.4075   27.8210 N   0  0  0  0  0  0  0  0  0  0  0  0
    4.4014   -5.4348   27.7050 C   0  0  0  0  0  0  0  0  0  0  0  0
    5.3620   -5.2243   26.6248 C   0  0  0  0  0  0  0  0  0  0  0  0
    5.6940   -6.2899   25.7787 C   0  0  0  0  0  0  0  0  0  0  0  0
    6.6567   -6.1332   24.7794 C   0  0  0  0  0  0  0  0  0  0  0  0
    7.2895   -4.9058   24.6021 C   0  0  0  0  0  0  0  0  0  0  0  0
    6.9520   -3.8292   25.4172 C   0  0  0  0  0  0  0  0  0  0  0  0
    5.9937   -3.9862   26.4230 C   0  0  0  0  0  0  0  0  0  0  0  0
    4.3292   -4.6619   28.8356 N   0  0  0  0  0  0  0  0  0  0  0  0
    1.0855   -5.6036   31.7502 N   0  0  0  0  0  0  0  0  0  0  0  0
    0.3335   -5.8375   30.6334 C   0  0  0  0  0  0  0  0  0  0  0  0
   -0.8208   -6.3801   30.9491 N   0  0  0  0  0  0  0  0  0  0  0  0
   -0.9195   -6.3637   32.3135 N   0  0  0  0  0  0  0  0  0  0  0  0
    0.1969   -5.8520   32.7893 C   0  0  0  0  0  0  0  0  0  0  0  0
    0.5276   -1.6919   31.5353 C   0  0  0  0  0  0  0  0  0  0  0  0
   -0.8198   -1.5141   31.1214 C   0  0  0  0  0  0  0  0  0  0  0  0
   -0.7478   -1.3349   29.7585 C   0  0  0  0  0  0  0  0  0  0  0  0
   -1.7180   -1.0404   28.6905 C   0  0  0  0  0  0  0  0  0  0  0  0
    0.5419   -1.4381   29.3630 O   0  0  0  0  0  0  0  0  0  0  0  0
    1.3401   -1.6540   30.4557 N   0  0  0  0  0  0  0  0  0  0  0  0
    7.0093   -1.5362   35.5047 H   0  0  0  0  0  0  0  0  0  0  0  0
    5.2801   -1.7883   35.8011 H   0  0  0  0  0  0  0  0  0  0  0  0
    5.8627   -0.3004   34.9580 H   0  0  0  0  0  0  0  0  0  0  0  0
    3.8886   -0.2145   33.7749 H   0  0  0  0  0  0  0  0  0  0  0  0
    3.3156   -1.7050   34.5905 H   0  0  0  0  0  0  0  0  0  0  0  0
    2.6727   -1.1308   31.7248 H   0  0  0  0  0  0  0  0  0  0  0  0
   -1.1040   -3.3635   33.1942 H   0  0  0  0  0  0  0  0  0  0  0  0
   -1.4668   -1.9475   34.1949 H   0  0  0  0  0  0  0  0  0  0  0  0
   -1.7278   -3.5389   35.8341 H   0  0  0  0  0  0  0  0  0  0  0  0
   -0.0300   -3.2022   36.0534 H   0  0  0  0  0  0  0  0  0  0  0  0
   -1.3744   -5.6759   34.9568 H   0  0  0  0  0  0  0  0  0  0  0  0
   -0.1118   -5.5415   36.1476 H   0  0  0  0  0  0  0  0  0  0  0  0
    2.1925   -4.7710   35.2960 H   0  0  0  0  0  0  0  0  0  0  0  0
    3.8067   -4.6748   33.4830 H   0  0  0  0  0  0  0  0  0  0  0  0
    3.9290   -4.0533   31.2337 H   0  0  0  0  0  0  0  0  0  0  0  0
    5.2143   -7.2613   25.8908 H   0  0  0  0  0  0  0  0  0  0  0  0
    6.8996   -6.9743   24.1347 H   0  0  0  0  0  0  0  0  0  0  0  0
    8.0330   -4.7876   23.8185 H   0  0  0  0  0  0  0  0  0  0  0  0
    7.4330   -2.8656   25.2679 H   0  0  0  0  0  0  0  0  0  0  0  0
    5.7503   -3.1199   27.0318 H   0  0  0  0  0  0  0  0  0  0  0  0
    4.9064   -3.8686   29.0635 H   0  0  0  0  0  0  0  0  0  0  0  0
    0.6654   -5.5931   29.6405 H   0  0  0  0  0  0  0  0  0  0  0  0
   -1.7080   -1.4601   31.7305 H   0  0  0  0  0  0  0  0  0  0  0  0
   -2.4476   -1.8467   28.6120 H   0  0  0  0  0  0  0  0  0  0  0  0
   -2.2478   -0.1090   28.9087 H   0  0  0  0  0  0  0  0  0  0  0  0
   -1.2283   -0.9298   27.7183 H   0  0  0  0  0  0  0  0  0  0  0  0
  1  2  1  0
  2  3  1  0
  3  4  2  0
  3  5  1  0
  5  6  1  0
  6  7  1  0
  7  8  2  3
  8  9  1  0
  9 10  1  0
 10 11  1  0
 11 12  1  0
 12 13  2  0
 13 14  1  0
 14 15  2  0
 15 16  1  0
 16 17  1  0
 17 18  2  0
 18 19  1  0
 19 20  2  0
 20 21  1  0
 21 22  2  0
 22 23  1  0
 23 24  2  0
 24 25  1  0
 25 26  2  0
 20 27  1  0
 15 28  1  0
 28 29  1  0
 29 30  2  0
 30 31  1  0
 31 32  2  0
  7 33  1  0
 33 34  1  0
 34 35  2  0
 35 36  1  0
 35 37  1  0
 37 38  1  0
 32 12  1  0
 38 33  2  0
 27 17  1  0
 32 28  1  0
 26 21  1  0
  1 39  1  0
  1 40  1  0
  1 41  1  0
  5 42  1  0
  5 43  1  0
  6 44  1  0
  9 45  1  0
  9 46  1  0
 10 47  1  0
 10 48  1  0
 11 49  1  0
 11 50  1  0
 13 51  1  0
 14 52  1  0
 16 53  1  0
 22 54  1  0
 23 55  1  0
 24 56  1  0
 25 57  1  0
 26 58  1  0
 27 59  1  0
 29 60  1  0
 34 61  1  0
 36 62  1  0
 36 63  1  0
 36 64  1  0
M  END
>  <Energy>  (271) 
88.564780046558056

>  <compound_id>  (271) 
584

>  <target_id>  (271) 
1

>  <reference_id>  (271) 
59

>  <inspiration_ids>  (271) 
[59, 131]

>  <energy_score>  (271) 
-42.78797699906619

>  <distance_score>  (271) 
5.453985987072041

>  <path>  (271) 
/opt/xchem-fragalysis-2/maxwin/BulkDock/SCRATCH/505733/C584-P59/C584-P59.minimised.mol

>  <scratch_subdir>  (271) 
/opt/xchem-fragalysis-2/maxwin/BulkDock/SCRATCH/505733/C584-P59

>  <fragmenstein_runtime>  (271) 
27.79108691215515

>  <fragmenstein_outcome>  (271) 
too moved

>  <fragmenstein_mode>  (271) 
expansion

>  <fragmenstein_error>  (271) 


$$$$
C584-P131
     RDKit          3D

 64 68  0  0  0  0  0  0  0  0999 V2000
   -0.5213    0.8917   38.0843 C   0  0  0  0  0  0  0  0  0  0  0  0
   -0.6168    1.7683   36.9609 O   0  0  0  0  0  0  0  0  0  0  0  0
   -0.0281    1.2829   35.8252 C   0  0  0  0  0  0  0  0  0  0  0  0
    0.5734    0.2176   35.7591 O   0  0  0  0  0  0  0  0  0  0  0  0
   -0.1957    2.2981   34.6970 C   0  0  0  0  0  0  0  0  0  0  0  0
    0.0144    1.7076   33.4059 N   0  0  0  0  0  0  0  0  0  0  0  0
   -0.7715    0.7734   32.6561 C   0  0  0  0  0  0  0  0  0  0  0  0
   -1.8909    0.2824   32.8841 N   0  0  0  0  0  0  0  0  0  0  0  0
   -2.5349   -0.8123   32.1711 C   0  0  0  0  0  0  0  0  0  0  0  0
   -1.7678   -2.1295   32.3048 C   0  0  0  0  0  0  0  0  0  0  0  0
   -1.3439   -2.3774   33.7512 C   0  0  0  0  0  0  0  0  0  0  0  0
   -0.6610   -3.6891   34.0627 C   0  0  0  0  0  0  0  0  0  0  0  0
   -0.0743   -3.7649   35.2814 C   0  0  0  0  0  0  0  0  0  0  0  0
    0.4984   -4.9823   35.8038 C   0  0  0  0  0  0  0  0  0  0  0  0
    0.4310   -6.1220   35.0896 C   0  0  0  0  0  0  0  0  0  0  0  0
    0.9851   -7.3168   35.5325 N   0  0  0  0  0  0  0  0  0  0  0  0
    2.3108   -7.5750   35.4234 C   0  0  0  0  0  0  0  0  0  0  0  0
    2.8874   -8.6563   34.9625 N   0  0  0  0  0  0  0  0  0  0  0  0
    4.2436   -8.4727   35.0117 N   0  0  0  0  0  0  0  0  0  0  0  0
    4.4892   -7.2669   35.4962 C   0  0  0  0  0  0  0  0  0  0  0  0
    5.8027   -6.6524   35.6922 C   0  0  0  0  0  0  0  0  0  0  0  0
    6.9536   -7.3695   35.3287 C   0  0  0  0  0  0  0  0  0  0  0  0
    8.2268   -6.8175   35.4896 C   0  0  0  0  0  0  0  0  0  0  0  0
    8.3678   -5.5379   36.0182 C   0  0  0  0  0  0  0  0  0  0  0  0
    7.2377   -4.8116   36.3853 C   0  0  0  0  0  0  0  0  0  0  0  0
    5.9624   -5.3638   36.2239 C   0  0  0  0  0  0  0  0  0  0  0  0
    3.2809   -6.6745   35.7643 N   0  0  0  0  0  0  0  0  0  0  0  0
   -0.1899   -6.0528   33.8260 N   0  0  0  0  0  0  0  0  0  0  0  0
   -0.4356   -7.0166   32.8841 C   0  0  0  0  0  0  0  0  0  0  0  0
   -0.9274   -6.4804   31.7917 N   0  0  0  0  0  0  0  0  0  0  0  0
   -1.0728   -5.1328   32.0262 N   0  0  0  0  0  0  0  0  0  0  0  0
   -0.6680   -4.8795   33.2572 C   0  0  0  0  0  0  0  0  0  0  0  0
   -0.0177    0.4506   31.4250 C   0  0  0  0  0  0  0  0  0  0  0  0
   -0.4820    0.3113   30.0931 C   0  0  0  0  0  0  0  0  0  0  0  0
    0.6407    0.0261   29.3650 C   0  0  0  0  0  0  0  0  0  0  0  0
    0.8821   -0.2659   27.9485 C   0  0  0  0  0  0  0  0  0  0  0  0
    1.7226    0.0365   30.1809 O   0  0  0  0  0  0  0  0  0  0  0  0
    1.3230    0.3333   31.4687 N   0  0  0  0  0  0  0  0  0  0  0  0
   -1.0462    1.3572   38.9229 H   0  0  0  0  0  0  0  0  0  0  0  0
    0.5258    0.7470   38.3679 H   0  0  0  0  0  0  0  0  0  0  0  0
   -1.0008   -0.0677   37.8655 H   0  0  0  0  0  0  0  0  0  0  0  0
    0.5216    3.1086   34.8572 H   0  0  0  0  0  0  0  0  0  0  0  0
   -1.2091    2.7100   34.7422 H   0  0  0  0  0  0  0  0  0  0  0  0
    0.9215    1.8156   32.9493 H   0  0  0  0  0  0  0  0  0  0  0  0
   -2.7487   -0.5716   31.1284 H   0  0  0  0  0  0  0  0  0  0  0  0
   -3.5210   -0.9508   32.6324 H   0  0  0  0  0  0  0  0  0  0  0  0
   -0.8850   -2.1397   31.6578 H   0  0  0  0  0  0  0  0  0  0  0  0
   -2.4254   -2.9282   31.9487 H   0  0  0  0  0  0  0  0  0  0  0  0
   -2.2324   -2.2944   34.3917 H   0  0  0  0  0  0  0  0  0  0  0  0
   -0.6615   -1.5763   34.0589 H   0  0  0  0  0  0  0  0  0  0  0  0
   -0.0664   -2.9014   35.9454 H   0  0  0  0  0  0  0  0  0  0  0  0
    0.9328   -4.9501   36.7975 H   0  0  0  0  0  0  0  0  0  0  0  0
    0.3987   -8.1231   35.2966 H   0  0  0  0  0  0  0  0  0  0  0  0
    6.8657   -8.3722   34.9119 H   0  0  0  0  0  0  0  0  0  0  0  0
    9.1055   -7.3888   35.2003 H   0  0  0  0  0  0  0  0  0  0  0  0
    9.3583   -5.1072   36.1432 H   0  0  0  0  0  0  0  0  0  0  0  0
    7.3493   -3.8113   36.7975 H   0  0  0  0  0  0  0  0  0  0  0  0
    5.1108   -4.7604   36.5229 H   0  0  0  0  0  0  0  0  0  0  0  0
    3.1268   -5.7551   36.1415 H   0  0  0  0  0  0  0  0  0  0  0  0
   -0.2432   -8.0645   33.0393 H   0  0  0  0  0  0  0  0  0  0  0  0
   -1.4848    0.4103   29.7072 H   0  0  0  0  0  0  0  0  0  0  0  0
    1.1880   -1.3086   27.8279 H   0  0  0  0  0  0  0  0  0  0  0  0
   -0.0281   -0.0966   27.3671 H   0  0  0  0  0  0  0  0  0  0  0  0
    1.6709    0.3772   27.5473 H   0  0  0  0  0  0  0  0  0  0  0  0
  1  2  1  0
  2  3  1  0
  3  4  2  0
  3  5  1  0
  5  6  1  0
  6  7  1  0
  7  8  2  3
  8  9  1  0
  9 10  1  0
 10 11  1  0
 11 12  1  0
 12 13  2  0
 13 14  1  0
 14 15  2  0
 15 16  1  0
 16 17  1  0
 17 18  2  0
 18 19  1  0
 19 20  2  0
 20 21  1  0
 21 22  2  0
 22 23  1  0
 23 24  2  0
 24 25  1  0
 25 26  2  0
 20 27  1  0
 15 28  1  0
 28 29  1  0
 29 30  2  0
 30 31  1  0
 31 32  2  0
  7 33  1  0
 33 34  1  0
 34 35  2  0
 35 36  1  0
 35 37  1  0
 37 38  1  0
 32 12  1  0
 38 33  2  0
 27 17  1  0
 32 28  1  0
 26 21  1  0
  1 39  1  0
  1 40  1  0
  1 41  1  0
  5 42  1  0
  5 43  1  0
  6 44  1  0
  9 45  1  0
  9 46  1  0
 10 47  1  0
 10 48  1  0
 11 49  1  0
 11 50  1  0
 13 51  1  0
 14 52  1  0
 16 53  1  0
 22 54  1  0
 23 55  1  0
 24 56  1  0
 25 57  1  0
 26 58  1  0
 27 59  1  0
 29 60  1  0
 34 61  1  0
 36 62  1  0
 36 63  1  0
 36 64  1  0
M  END
>  <Energy>  (272) 
90.016538513824429

>  <compound_id>  (272) 
584

>  <target_id>  (272) 
1

>  <reference_id>  (272) 
131

>  <inspiration_ids>  (272) 
[59, 131]

>  <energy_score>  (272) 
-41.336218531801705

>  <distance_score>  (272) 
3.5920577949993486

>  <path>  (272) 
/opt/xchem-fragalysis-2/maxwin/BulkDock/SCRATCH/505733/C584-P131/C584-P131.minimised.mol

>  <scratch_subdir>  (272) 
/opt/xchem-fragalysis-2/maxwin/BulkDock/SCRATCH/505733/C584-P131

>  <fragmenstein_runtime>  (272) 
26.685412406921387

>  <fragmenstein_outcome>  (272) 
too moved

>  <fragmenstein_mode>  (272) 
expansion

>  <fragmenstein_error>  (272) 


$$$$
C585-P59
     RDKit          3D

 71 75  0  0  0  0  0  0  0  0999 V2000
   -2.9531    2.9892   37.2209 C   0  0  0  0  0  0  0  0  0  0  0  0
   -1.6675    2.6330   36.7085 O   0  0  0  0  0  0  0  0  0  0  0  0
   -1.6794    2.2358   35.4007 C   0  0  0  0  0  0  0  0  0  0  0  0
   -2.6850    2.1711   34.7038 O   0  0  0  0  0  0  0  0  0  0  0  0
   -0.2556    1.8952   34.9666 C   0  0  0  0  0  0  0  0  0  0  0  0
   -0.1996    1.4053   33.6151 N   0  0  0  0  0  0  0  0  0  0  0  0
   -0.5780    0.0040   33.0204 C   0  0  0  0  0  0  0  0  0  0  0  0
   -0.9282   -1.0127   33.5692 N   0  0  0  0  0  0  0  0  0  0  0  0
   -1.1278   -1.1538   34.9938 C   0  0  0  0  0  0  0  0  0  0  0  0
   -1.6553   -2.5690   35.2197 C   0  0  0  0  0  0  0  0  0  0  0  0
   -0.5338   -3.6167   35.2809 C   0  0  0  0  0  0  0  0  0  0  0  0
   -0.7487   -4.9509   34.5072 C   0  0  0  0  0  0  0  0  0  0  0  0
   -0.9034   -4.7236   32.9594 C   0  0  0  0  0  0  0  0  0  0  0  0
    0.3784   -4.3831   32.1783 C   0  0  0  0  0  0  0  0  0  0  0  0
    1.5918   -4.8864   32.9365 C   0  0  0  0  0  0  0  0  0  0  0  0
    2.9893   -4.4518   32.5851 C   0  0  0  0  0  0  0  0  0  0  0  0
    3.1880   -3.4964   31.5751 C   0  0  0  0  0  0  0  0  0  0  0  0
    4.3478   -2.7213   31.5484 C   0  0  0  0  0  0  0  0  0  0  0  0
    5.3368   -2.9041   32.5104 C   0  0  0  0  0  0  0  0  0  0  0  0
    5.1853   -3.8834   33.4838 C   0  0  0  0  0  0  0  0  0  0  0  0
    4.0248   -4.6519   33.5196 C   0  0  0  0  0  0  0  0  0  0  0  0
    1.2604   -6.5516   33.5286 S   0  0  0  0  0  0  0  0  0  0  0  0
    0.3391   -7.2745   32.6754 O   0  0  0  0  0  0  0  0  0  0  0  0
    2.4320   -7.2175   34.0559 O   0  0  0  0  0  0  0  0  0  0  0  0
    0.2980   -6.0047   34.8313 N   0  0  0  0  0  0  0  0  0  0  0  0
    0.9064   -6.2046   36.1131 C   0  0  0  0  0  0  0  0  0  0  0  0
    1.7428   -5.2598   36.5915 C   0  0  0  0  0  0  0  0  0  0  0  0
    2.4022   -5.4686   37.8756 C   0  0  0  0  0  0  0  0  0  0  0  0
    2.2164   -6.5963   38.5866 C   0  0  0  0  0  0  0  0  0  0  0  0
    1.3634   -7.6082   38.0746 C   0  0  0  0  0  0  0  0  0  0  0  0
    1.0019   -8.7838   38.5368 N   0  0  0  0  0  0  0  0  0  0  0  0
    0.1676   -9.3585   37.6053 N   0  0  0  0  0  0  0  0  0  0  0  0
    0.0356   -8.5146   36.6068 C   0  0  0  0  0  0  0  0  0  0  0  0
    0.7517   -7.3812   36.8504 N   0  0  0  0  0  0  0  0  0  0  0  0
   -0.4826    0.0343   31.5609 C   0  0  0  0  0  0  0  0  0  0  0  0
   -0.9252   -0.9187   30.6026 C   0  0  0  0  0  0  0  0  0  0  0  0
   -0.5851   -0.3699   29.3915 C   0  0  0  0  0  0  0  0  0  0  0  0
   -0.7043   -0.7902   27.9864 C   0  0  0  0  0  0  0  0  0  0  0  0
    0.0023    0.8349   29.5982 O   0  0  0  0  0  0  0  0  0  0  0  0
    0.0646    1.0957   30.9485 N   0  0  0  0  0  0  0  0  0  0  0  0
   -3.3690    3.8321   36.6602 H   0  0  0  0  0  0  0  0  0  0  0  0
   -2.8294    3.2940   38.2637 H   0  0  0  0  0  0  0  0  0  0  0  0
   -3.6292    2.1291   37.1888 H   0  0  0  0  0  0  0  0  0  0  0  0
    0.3331    2.8169   35.0254 H   0  0  0  0  0  0  0  0  0  0  0  0
    0.1788    1.1722   35.6600 H   0  0  0  0  0  0  0  0  0  0  0  0
    0.1310    2.0145   32.8646 H   0  0  0  0  0  0  0  0  0  0  0  0
   -1.8932   -0.4539   35.3408 H   0  0  0  0  0  0  0  0  0  0  0  0
   -0.2057   -0.9931   35.5605 H   0  0  0  0  0  0  0  0  0  0  0  0
   -2.3678   -2.7640   34.4225 H   0  0  0  0  0  0  0  0  0  0  0  0
   -2.2084   -2.5971   36.1661 H   0  0  0  0  0  0  0  0  0  0  0  0
    0.3996   -3.1440   34.9660 H   0  0  0  0  0  0  0  0  0  0  0  0
   -0.4127   -3.8416   36.3466 H   0  0  0  0  0  0  0  0  0  0  0  0
   -1.6563   -5.4160   34.8900 H   0  0  0  0  0  0  0  0  0  0  0  0
   -1.3438   -5.6262   32.5241 H   0  0  0  0  0  0  0  0  0  0  0  0
   -1.6260   -3.9280   32.7582 H   0  0  0  0  0  0  0  0  0  0  0  0
    0.3283   -4.8081   31.1691 H   0  0  0  0  0  0  0  0  0  0  0  0
    0.4323   -3.2947   32.0622 H   0  0  0  0  0  0  0  0  0  0  0  0
    1.5588   -4.3035   33.8594 H   0  0  0  0  0  0  0  0  0  0  0  0
    2.4156   -3.2737   30.8419 H   0  0  0  0  0  0  0  0  0  0  0  0
    4.4730   -1.9585   30.7828 H   0  0  0  0  0  0  0  0  0  0  0  0
    6.2358   -2.2928   32.4876 H   0  0  0  0  0  0  0  0  0  0  0  0
    5.9627   -4.0336   34.2291 H   0  0  0  0  0  0  0  0  0  0  0  0
    3.9198   -5.3466   34.3500 H   0  0  0  0  0  0  0  0  0  0  0  0
    1.9854   -4.3395   36.0767 H   0  0  0  0  0  0  0  0  0  0  0  0
    3.0574   -4.6849   38.2459 H   0  0  0  0  0  0  0  0  0  0  0  0
    2.7053   -6.7614   39.5406 H   0  0  0  0  0  0  0  0  0  0  0  0
   -0.5507   -8.6589   35.7149 H   0  0  0  0  0  0  0  0  0  0  0  0
   -1.4142   -1.8626   30.7841 H   0  0  0  0  0  0  0  0  0  0  0  0
   -1.2434   -0.0394   27.4008 H   0  0  0  0  0  0  0  0  0  0  0  0
   -1.2464   -1.7371   27.9093 H   0  0  0  0  0  0  0  0  0  0  0  0
    0.2900   -0.9246   27.5523 H   0  0  0  0  0  0  0  0  0  0  0  0
  1  2  1  0
  2  3  1  0
  3  4  2  0
  3  5  1  0
  5  6  1  0
  6  7  1  0
  7  8  2  3
  8  9  1  0
  9 10  1  0
 10 11  1  0
 11 12  1  0
 12 13  1  0
 13 14  1  0
 14 15  1  0
 15 16  1  0
 16 17  2  0
 17 18  1  0
 18 19  2  0
 19 20  1  0
 20 21  2  0
 15 22  1  0
 22 23  2  0
 22 24  2  0
 22 25  1  0
 25 26  1  0
 26 27  2  0
 27 28  1  0
 28 29  2  0
 29 30  1  0
 30 31  2  0
 31 32  1  0
 32 33  2  0
 33 34  1  0
  7 35  1  0
 35 36  1  0
 36 37  2  0
 37 38  1  0
 37 39  1  0
 39 40  1  0
 25 12  1  0
 34 26  1  0
 40 35  2  0
 21 16  1  0
 34 30  1  0
  1 41  1  0
  1 42  1  0
  1 43  1  0
  5 44  1  0
  5 45  1  0
  6 46  1  0
  9 47  1  0
  9 48  1  0
 10 49  1  0
 10 50  1  0
 11 51  1  0
 11 52  1  0
 12 53  1  0
 13 54  1  0
 13 55  1  0
 14 56  1  0
 14 57  1  0
 15 58  1  0
 17 59  1  0
 18 60  1  0
 19 61  1  0
 20 62  1  0
 21 63  1  0
 27 64  1  0
 28 65  1  0
 29 66  1  0
 33 67  1  0
 36 68  1  0
 38 69  1  0
 38 70  1  0
 38 71  1  0
M  END
>  <Energy>  (273) 
151.8155091846881

>  <compound_id>  (273) 
585

>  <target_id>  (273) 
1

>  <reference_id>  (273) 
59

>  <inspiration_ids>  (273) 
[59, 132]

>  <energy_score>  (273) 
-43.27539582774625

>  <distance_score>  (273) 
3.0463097871102316

>  <path>  (273) 
/opt/xchem-fragalysis-2/maxwin/BulkDock/SCRATCH/505733/C585-P59/C585-P59.minimised.mol

>  <scratch_subdir>  (273) 
/opt/xchem-fragalysis-2/maxwin/BulkDock/SCRATCH/505733/C585-P59

>  <fragmenstein_runtime>  (273) 
11.823827266693115

>  <fragmenstein_outcome>  (273) 
too moved

>  <fragmenstein_mode>  (273) 
expansion

>  <fragmenstein_error>  (273) 


$$$$
C585-P132
     RDKit          3D

 71 75  0  0  0  0  0  0  0  0999 V2000
   -0.8354    1.9138   37.4025 C   0  0  0  0  0  0  0  0  0  0  0  0
    0.1681    1.3681   36.5453 O   0  0  0  0  0  0  0  0  0  0  0  0
   -0.0476    1.6066   35.2158 C   0  0  0  0  0  0  0  0  0  0  0  0
   -1.0043    2.2295   34.7720 O   0  0  0  0  0  0  0  0  0  0  0  0
    1.0915    1.0014   34.4021 C   0  0  0  0  0  0  0  0  0  0  0  0
    0.8072    0.9510   32.9922 N   0  0  0  0  0  0  0  0  0  0  0  0
   -0.2068    0.2491   32.2551 C   0  0  0  0  0  0  0  0  0  0  0  0
   -1.0689   -0.5732   32.6208 N   0  0  0  0  0  0  0  0  0  0  0  0
   -1.2411   -1.1122   33.9419 C   0  0  0  0  0  0  0  0  0  0  0  0
   -1.7839   -2.5342   33.7983 C   0  0  0  0  0  0  0  0  0  0  0  0
   -0.8482   -3.4522   32.9988 C   0  0  0  0  0  0  0  0  0  0  0  0
   -0.4794   -4.8196   33.6154 C   0  0  0  0  0  0  0  0  0  0  0  0
    0.2041   -5.7109   32.5505 C   0  0  0  0  0  0  0  0  0  0  0  0
    1.4994   -5.1003   32.0056 C   0  0  0  0  0  0  0  0  0  0  0  0
    2.5714   -4.9008   33.0841 C   0  0  0  0  0  0  0  0  0  0  0  0
    3.7978   -4.1213   32.6512 C   0  0  0  0  0  0  0  0  0  0  0  0
    3.7171   -2.9906   31.8219 C   0  0  0  0  0  0  0  0  0  0  0  0
    4.8571   -2.2442   31.5231 C   0  0  0  0  0  0  0  0  0  0  0  0
    6.0905   -2.6114   32.0522 C   0  0  0  0  0  0  0  0  0  0  0  0
    6.1876   -3.7249   32.8815 C   0  0  0  0  0  0  0  0  0  0  0  0
    5.0507   -4.4739   33.1808 C   0  0  0  0  0  0  0  0  0  0  0  0
    1.9799   -4.0979   34.5929 S   0  0  0  0  0  0  0  0  0  0  0  0
    1.7785   -2.6825   34.3820 O   0  0  0  0  0  0  0  0  0  0  0  0
    2.7911   -4.5739   35.6974 O   0  0  0  0  0  0  0  0  0  0  0  0
    0.4454   -4.7803   34.7754 N   0  0  0  0  0  0  0  0  0  0  0  0
   -0.0112   -4.7842   36.1337 C   0  0  0  0  0  0  0  0  0  0  0  0
   -0.3571   -3.6160   36.7071 C   0  0  0  0  0  0  0  0  0  0  0  0
   -0.7364   -3.5948   38.1146 C   0  0  0  0  0  0  0  0  0  0  0  0
   -0.6640   -4.7018   38.8779 C   0  0  0  0  0  0  0  0  0  0  0  0
   -0.2168   -5.9171   38.2966 C   0  0  0  0  0  0  0  0  0  0  0  0
    0.0004   -7.1166   38.7883 N   0  0  0  0  0  0  0  0  0  0  0  0
    0.4360   -7.9180   37.7563 N   0  0  0  0  0  0  0  0  0  0  0  0
    0.4735   -7.1896   36.6653 C   0  0  0  0  0  0  0  0  0  0  0  0
    0.0738   -5.9157   36.9414 N   0  0  0  0  0  0  0  0  0  0  0  0
   -0.1828    0.5868   30.8352 C   0  0  0  0  0  0  0  0  0  0  0  0
   -1.0826    0.1589   29.8302 C   0  0  0  0  0  0  0  0  0  0  0  0
   -0.7030    0.8568   28.7160 C   0  0  0  0  0  0  0  0  0  0  0  0
   -1.2617    0.9934   27.3655 C   0  0  0  0  0  0  0  0  0  0  0  0
    0.4056    1.5884   28.9988 O   0  0  0  0  0  0  0  0  0  0  0  0
    0.7466    1.4150   30.3277 N   0  0  0  0  0  0  0  0  0  0  0  0
   -0.5693    1.6683   38.4343 H   0  0  0  0  0  0  0  0  0  0  0  0
   -1.8108    1.4689   37.1816 H   0  0  0  0  0  0  0  0  0  0  0  0
   -0.8730    3.0032   37.3042 H   0  0  0  0  0  0  0  0  0  0  0  0
    1.9651    1.6448   34.5555 H   0  0  0  0  0  0  0  0  0  0  0  0
    1.3501    0.0108   34.7809 H   0  0  0  0  0  0  0  0  0  0  0  0
    1.3838    1.4810   32.3378 H   0  0  0  0  0  0  0  0  0  0  0  0
   -1.9636   -0.5101   34.5024 H   0  0  0  0  0  0  0  0  0  0  0  0
   -0.3173   -1.1587   34.5113 H   0  0  0  0  0  0  0  0  0  0  0  0
   -2.7485   -2.4819   33.2761 H   0  0  0  0  0  0  0  0  0  0  0  0
   -1.9921   -2.9270   34.7916 H   0  0  0  0  0  0  0  0  0  0  0  0
   -1.3539   -3.6498   32.0428 H   0  0  0  0  0  0  0  0  0  0  0  0
    0.0536   -2.9015   32.7230 H   0  0  0  0  0  0  0  0  0  0  0  0
   -1.3834   -5.3515   33.9179 H   0  0  0  0  0  0  0  0  0  0  0  0
    0.4227   -6.6979   32.9791 H   0  0  0  0  0  0  0  0  0  0  0  0
   -0.4886   -5.8791   31.7166 H   0  0  0  0  0  0  0  0  0  0  0  0
    1.9017   -5.7640   31.2296 H   0  0  0  0  0  0  0  0  0  0  0  0
    1.2605   -4.1689   31.4858 H   0  0  0  0  0  0  0  0  0  0  0  0
    2.8819   -5.9027   33.4106 H   0  0  0  0  0  0  0  0  0  0  0  0
    2.7670   -2.6362   31.4286 H   0  0  0  0  0  0  0  0  0  0  0  0
    4.7780   -1.3624   30.8909 H   0  0  0  0  0  0  0  0  0  0  0  0
    6.9753   -2.0214   31.8268 H   0  0  0  0  0  0  0  0  0  0  0  0
    7.1489   -4.0001   33.3084 H   0  0  0  0  0  0  0  0  0  0  0  0
    5.1514   -5.3180   33.8615 H   0  0  0  0  0  0  0  0  0  0  0  0
   -0.3246   -2.6654   36.1941 H   0  0  0  0  0  0  0  0  0  0  0  0
   -1.0679   -2.6511   38.5382 H   0  0  0  0  0  0  0  0  0  0  0  0
   -0.9379   -4.6927   39.9273 H   0  0  0  0  0  0  0  0  0  0  0  0
    0.7774   -7.5211   35.6856 H   0  0  0  0  0  0  0  0  0  0  0  0
   -1.9264   -0.5030   29.9390 H   0  0  0  0  0  0  0  0  0  0  0  0
   -1.4788    0.0133   26.9354 H   0  0  0  0  0  0  0  0  0  0  0  0
   -0.5692    1.5264   26.7097 H   0  0  0  0  0  0  0  0  0  0  0  0
   -2.1935    1.5664   27.3954 H   0  0  0  0  0  0  0  0  0  0  0  0
  1  2  1  0
  2  3  1  0
  3  4  2  0
  3  5  1  0
  5  6  1  0
  6  7  1  0
  7  8  2  3
  8  9  1  0
  9 10  1  0
 10 11  1  0
 11 12  1  0
 12 13  1  0
 13 14  1  0
 14 15  1  0
 15 16  1  0
 16 17  2  0
 17 18  1  0
 18 19  2  0
 19 20  1  0
 20 21  2  0
 15 22  1  0
 22 23  2  0
 22 24  2  0
 22 25  1  0
 25 26  1  0
 26 27  2  0
 27 28  1  0
 28 29  2  0
 29 30  1  0
 30 31  2  0
 31 32  1  0
 32 33  2  0
 33 34  1  0
  7 35  1  0
 35 36  1  0
 36 37  2  0
 37 38  1  0
 37 39  1  0
 39 40  1  0
 25 12  1  0
 34 26  1  0
 40 35  2  0
 21 16  1  0
 34 30  1  0
  1 41  1  0
  1 42  1  0
  1 43  1  0
  5 44  1  0
  5 45  1  0
  6 46  1  0
  9 47  1  0
  9 48  1  0
 10 49  1  0
 10 50  1  0
 11 51  1  0
 11 52  1  0
 12 53  1  0
 13 54  1  0
 13 55  1  0
 14 56  1  0
 14 57  1  0
 15 58  1  0
 17 59  1  0
 18 60  1  0
 19 61  1  0
 20 62  1  0
 21 63  1  0
 27 64  1  0
 28 65  1  0
 29 66  1  0
 33 67  1  0
 36 68  1  0
 38 69  1  0
 38 70  1  0
 38 71  1  0
M  END
>  <Energy>  (274) 
105.28458718356704

>  <compound_id>  (274) 
585

>  <target_id>  (274) 
1

>  <reference_id>  (274) 
132

>  <inspiration_ids>  (274) 
[59, 132]

>  <energy_score>  (274) 
-55.52215999764178

>  <distance_score>  (274) 
3.8206821749920086

>  <path>  (274) 
/opt/xchem-fragalysis-2/maxwin/BulkDock/SCRATCH/505733/C585-P132/C585-P132.minimised.mol

>  <scratch_subdir>  (274) 
/opt/xchem-fragalysis-2/maxwin/BulkDock/SCRATCH/505733/C585-P132

>  <fragmenstein_runtime>  (274) 
22.190224170684814

>  <fragmenstein_outcome>  (274) 
too moved

>  <fragmenstein_mode>  (274) 
expansion

>  <fragmenstein_error>  (274) 


$$$$
C587-P59
     RDKit          3D

 63 66  0  0  0  0  0  0  0  0999 V2000
   -7.2222   -0.5804   33.8758 C   0  0  0  0  0  0  0  0  0  0  0  0
   -5.7999   -0.6615   33.7807 O   0  0  0  0  0  0  0  0  0  0  0  0
   -5.2061   -1.0516   34.9382 C   0  0  0  0  0  0  0  0  0  0  0  0
   -5.8013   -1.2955   35.9842 O   0  0  0  0  0  0  0  0  0  0  0  0
   -3.6936   -1.1232   34.8200 C   0  0  0  0  0  0  0  0  0  0  0  0
   -3.0954   -0.8773   33.5264 N   0  0  0  0  0  0  0  0  0  0  0  0
   -3.1377   -1.7057   32.2336 C   0  0  0  0  0  0  0  0  0  0  0  0
   -3.7240   -2.6798   31.9797 O   0  0  0  0  0  0  0  0  0  0  0  0
   -2.1819   -1.1505   31.2546 C   0  0  0  0  0  0  0  0  0  0  0  0
   -1.8742   -1.6898   29.9837 C   0  0  0  0  0  0  0  0  0  0  0  0
   -0.7235   -1.0458   29.6061 C   0  0  0  0  0  0  0  0  0  0  0  0
    0.3187   -1.3674   28.5935 C   0  0  0  0  0  0  0  0  0  0  0  0
    0.6290   -2.8250   28.5908 N   0  0  0  0  0  0  0  0  0  0  0  0
    1.1265   -3.3222   29.8911 C   0  0  0  0  0  0  0  0  0  0  0  0
    0.7416   -4.7933   30.1601 C   0  0  0  0  0  0  0  0  0  0  0  0
    0.7685   -5.0982   31.6205 C   0  0  0  0  0  0  0  0  0  0  0  0
   -0.0202   -4.6044   32.5568 N   0  0  0  0  0  0  0  0  0  0  0  0
    0.5113   -5.0941   33.7350 C   0  0  0  0  0  0  0  0  0  0  0  0
    0.1072   -4.6946   35.0818 C   0  0  0  0  0  0  0  0  0  0  0  0
    0.1387   -5.4473   35.9739 O   0  0  0  0  0  0  0  0  0  0  0  0
   -0.2219   -3.1853   35.0561 N   0  0  0  0  0  0  0  0  0  0  0  0
   -0.4744   -2.3137   36.0792 C   0  0  0  0  0  0  0  0  0  0  0  0
   -0.8273   -2.7537   37.2981 C   0  0  0  0  0  0  0  0  0  0  0  0
   -1.1188   -1.9041   38.3315 N   0  0  0  0  0  0  0  0  0  0  0  0
   -1.0878   -0.5341   38.2425 C   0  0  0  0  0  0  0  0  0  0  0  0
   -1.3885    0.1833   39.1887 O   0  0  0  0  0  0  0  0  0  0  0  0
   -0.6693    0.0251   36.9319 C   0  0  0  0  0  0  0  0  0  0  0  0
   -0.5888    1.4171   36.7831 C   0  0  0  0  0  0  0  0  0  0  0  0
   -0.1742    1.9627   35.5717 C   0  0  0  0  0  0  0  0  0  0  0  0
    0.1699    1.1200   34.5192 C   0  0  0  0  0  0  0  0  0  0  0  0
    0.0896   -0.2703   34.6684 C   0  0  0  0  0  0  0  0  0  0  0  0
   -0.3521   -0.8472   35.8712 C   0  0  0  0  0  0  0  0  0  0  0  0
    1.6265   -5.8552   33.4562 C   0  0  0  0  0  0  0  0  0  0  0  0
    2.6597   -6.4565   34.3316 C   0  0  0  0  0  0  0  0  0  0  0  0
    2.3574   -7.8504   34.6573 N   0  0  0  0  0  0  0  0  0  0  0  0
    1.7984   -5.8722   32.0943 O   0  0  0  0  0  0  0  0  0  0  0  0
   -0.4639   -0.0445   30.4893 O   0  0  0  0  0  0  0  0  0  0  0  0
   -1.3811   -0.1038   31.5320 N   0  0  0  0  0  0  0  0  0  0  0  0
   -7.6164   -0.4590   32.8667 H   0  0  0  0  0  0  0  0  0  0  0  0
   -7.5080    0.2770   34.4911 H   0  0  0  0  0  0  0  0  0  0  0  0
   -7.6492   -1.4930   34.2991 H   0  0  0  0  0  0  0  0  0  0  0  0
   -3.3871   -2.1238   35.1293 H   0  0  0  0  0  0  0  0  0  0  0  0
   -3.2844   -0.3759   35.5041 H   0  0  0  0  0  0  0  0  0  0  0  0
   -2.4126   -0.1304   33.4282 H   0  0  0  0  0  0  0  0  0  0  0  0
   -2.3117   -2.5540   29.5071 H   0  0  0  0  0  0  0  0  0  0  0  0
    1.2392   -0.8042   28.7832 H   0  0  0  0  0  0  0  0  0  0  0  0
   -0.0404   -1.0793   27.6014 H   0  0  0  0  0  0  0  0  0  0  0  0
   -0.2324   -3.3080   28.3223 H   0  0  0  0  0  0  0  0  0  0  0  0
    0.7673   -2.7090   30.7243 H   0  0  0  0  0  0  0  0  0  0  0  0
    2.2192   -3.2277   29.9029 H   0  0  0  0  0  0  0  0  0  0  0  0
   -0.2797   -4.9835   29.8133 H   0  0  0  0  0  0  0  0  0  0  0  0
    1.4098   -5.4641   29.6097 H   0  0  0  0  0  0  0  0  0  0  0  0
   -0.0744   -2.8229   34.1215 H   0  0  0  0  0  0  0  0  0  0  0  0
   -0.9322   -3.8099   37.5311 H   0  0  0  0  0  0  0  0  0  0  0  0
   -1.3943   -2.2812   39.2313 H   0  0  0  0  0  0  0  0  0  0  0  0
   -0.8399    2.0727   37.6148 H   0  0  0  0  0  0  0  0  0  0  0  0
   -0.1036    3.0417   35.4549 H   0  0  0  0  0  0  0  0  0  0  0  0
    0.5095    1.5425   33.5746 H   0  0  0  0  0  0  0  0  0  0  0  0
    0.3840   -0.8753   33.8158 H   0  0  0  0  0  0  0  0  0  0  0  0
    3.6388   -6.3897   33.8508 H   0  0  0  0  0  0  0  0  0  0  0  0
    2.7397   -5.8836   35.2624 H   0  0  0  0  0  0  0  0  0  0  0  0
    2.9753   -8.1303   35.4232 H   0  0  0  0  0  0  0  0  0  0  0  0
    1.4223   -7.8657   35.0866 H   0  0  0  0  0  0  0  0  0  0  0  0
  1  2  1  0
  2  3  1  0
  3  4  2  0
  3  5  1  0
  5  6  1  0
  6  7  1  0
  7  8  2  0
  7  9  1  0
  9 10  1  0
 10 11  2  0
 11 12  1  0
 12 13  1  0
 13 14  1  0
 14 15  1  0
 15 16  1  0
 16 17  2  0
 17 18  1  0
 18 19  1  0
 19 20  2  0
 19 21  1  0
 21 22  1  0
 22 23  2  0
 23 24  1  0
 24 25  1  0
 25 26  2  0
 25 27  1  0
 27 28  2  0
 28 29  1  0
 29 30  2  0
 30 31  1  0
 31 32  2  0
 18 33  2  0
 33 34  1  0
 34 35  1  0
 33 36  1  0
 11 37  1  0
 37 38  1  0
 38  9  2  0
 36 16  1  0
 32 22  1  0
 32 27  1  0
  1 39  1  0
  1 40  1  0
  1 41  1  0
  5 42  1  0
  5 43  1  0
  6 44  1  0
 10 45  1  0
 12 46  1  0
 12 47  1  0
 13 48  1  0
 14 49  1  0
 14 50  1  0
 15 51  1  0
 15 52  1  0
 21 53  1  0
 23 54  1  0
 24 55  1  0
 28 56  1  0
 29 57  1  0
 30 58  1  0
 31 59  1  0
 34 60  1  0
 34 61  1  0
 35 62  1  0
 35 63  1  0
M  END
>  <Energy>  (275) 
113.24968461388725

>  <compound_id>  (275) 
587

>  <target_id>  (275) 
1

>  <reference_id>  (275) 
59

>  <inspiration_ids>  (275) 
[59, 134]

>  <energy_score>  (275) 
-66.55451359097515

>  <distance_score>  (275) 
1.8963766919567961

>  <path>  (275) 
/opt/xchem-fragalysis-2/maxwin/BulkDock/SCRATCH/505733/C587-P59/C587-P59.minimised.mol

>  <scratch_subdir>  (275) 
/opt/xchem-fragalysis-2/maxwin/BulkDock/SCRATCH/505733/C587-P59

>  <fragmenstein_runtime>  (275) 
6.407846689224243

>  <fragmenstein_outcome>  (275) 
too moved

>  <fragmenstein_mode>  (275) 
expansion

>  <fragmenstein_error>  (275) 


$$$$
C587-P134
     RDKit          3D

 63 66  0  0  0  0  0  0  0  0999 V2000
   -6.9910   -1.1303   33.3199 C   0  0  0  0  0  0  0  0  0  0  0  0
   -5.5847   -1.0071   33.4836 O   0  0  0  0  0  0  0  0  0  0  0  0
   -5.1544   -1.3365   34.7302 C   0  0  0  0  0  0  0  0  0  0  0  0
   -5.8807   -1.6355   35.6727 O   0  0  0  0  0  0  0  0  0  0  0  0
   -3.6411   -1.2734   34.8343 C   0  0  0  0  0  0  0  0  0  0  0  0
   -2.9473   -1.0255   33.5917 N   0  0  0  0  0  0  0  0  0  0  0  0
   -2.8644   -1.8673   32.3102 C   0  0  0  0  0  0  0  0  0  0  0  0
   -3.4038   -2.8590   32.0215 O   0  0  0  0  0  0  0  0  0  0  0  0
   -1.9127   -1.2535   31.3721 C   0  0  0  0  0  0  0  0  0  0  0  0
   -1.5643   -1.7586   30.1005 C   0  0  0  0  0  0  0  0  0  0  0  0
   -0.4532   -1.0422   29.7430 C   0  0  0  0  0  0  0  0  0  0  0  0
    0.6147   -1.2980   28.7432 C   0  0  0  0  0  0  0  0  0  0  0  0
    0.9321   -2.7512   28.6605 N   0  0  0  0  0  0  0  0  0  0  0  0
    1.3415   -3.3507   29.9505 C   0  0  0  0  0  0  0  0  0  0  0  0
    0.6955   -4.7312   30.1940 C   0  0  0  0  0  0  0  0  0  0  0  0
    0.6475   -5.0796   31.6438 C   0  0  0  0  0  0  0  0  0  0  0  0
   -0.3158   -4.8363   32.5132 N   0  0  0  0  0  0  0  0  0  0  0  0
    0.1934   -5.2974   33.7121 C   0  0  0  0  0  0  0  0  0  0  0  0
   -0.4080   -5.1505   35.0324 C   0  0  0  0  0  0  0  0  0  0  0  0
   -0.6337   -6.0804   35.7024 O   0  0  0  0  0  0  0  0  0  0  0  0
   -0.5492   -3.6400   35.3335 N   0  0  0  0  0  0  0  0  0  0  0  0
   -0.8884   -2.9921   36.4902 C   0  0  0  0  0  0  0  0  0  0  0  0
   -1.4133   -3.6527   37.5344 C   0  0  0  0  0  0  0  0  0  0  0  0
   -1.8257   -3.0230   38.6781 N   0  0  0  0  0  0  0  0  0  0  0  0
   -1.7396   -1.6690   38.8904 C   0  0  0  0  0  0  0  0  0  0  0  0
   -2.1409   -1.1401   39.9198 O   0  0  0  0  0  0  0  0  0  0  0  0
   -1.1305   -0.8753   37.7912 C   0  0  0  0  0  0  0  0  0  0  0  0
   -0.9969    0.5115   37.9511 C   0  0  0  0  0  0  0  0  0  0  0  0
   -0.4281    1.2770   36.9371 C   0  0  0  0  0  0  0  0  0  0  0  0
    0.0100    0.6588   35.7697 C   0  0  0  0  0  0  0  0  0  0  0  0
   -0.1219   -0.7261   35.6095 C   0  0  0  0  0  0  0  0  0  0  0  0
   -0.7039   -1.5217   36.6134 C   0  0  0  0  0  0  0  0  0  0  0  0
    1.4765   -5.7603   33.5220 C   0  0  0  0  0  0  0  0  0  0  0  0
    2.5211   -6.2175   34.4683 C   0  0  0  0  0  0  0  0  0  0  0  0
    2.4238   -7.6568   34.7131 N   0  0  0  0  0  0  0  0  0  0  0  0
    1.7766   -5.6318   32.1918 O   0  0  0  0  0  0  0  0  0  0  0  0
   -0.2623   -0.0354   30.6373 O   0  0  0  0  0  0  0  0  0  0  0  0
   -1.1829   -0.1626   31.6734 N   0  0  0  0  0  0  0  0  0  0  0  0
   -7.3091   -2.1600   33.5019 H   0  0  0  0  0  0  0  0  0  0  0  0
   -7.2258   -0.8789   32.2850 H   0  0  0  0  0  0  0  0  0  0  0  0
   -7.5164   -0.4433   33.9891 H   0  0  0  0  0  0  0  0  0  0  0  0
   -3.3021   -2.2381   35.2087 H   0  0  0  0  0  0  0  0  0  0  0  0
   -3.3784   -0.4695   35.5257 H   0  0  0  0  0  0  0  0  0  0  0  0
   -2.4047   -0.1746   33.4738 H   0  0  0  0  0  0  0  0  0  0  0  0
   -1.9492   -2.6420   29.6120 H   0  0  0  0  0  0  0  0  0  0  0  0
    1.5281   -0.7487   28.9969 H   0  0  0  0  0  0  0  0  0  0  0  0
    0.2860   -0.9461   27.7618 H   0  0  0  0  0  0  0  0  0  0  0  0
    0.0933   -3.2092   28.2975 H   0  0  0  0  0  0  0  0  0  0  0  0
    1.1284   -2.6938   30.8014 H   0  0  0  0  0  0  0  0  0  0  0  0
    2.4323   -3.4659   29.9388 H   0  0  0  0  0  0  0  0  0  0  0  0
   -0.3365   -4.7360   29.8255 H   0  0  0  0  0  0  0  0  0  0  0  0
    1.2404   -5.5018   29.6380 H   0  0  0  0  0  0  0  0  0  0  0  0
   -0.1872   -3.1056   34.5554 H   0  0  0  0  0  0  0  0  0  0  0  0
   -1.5787   -4.7251   37.5274 H   0  0  0  0  0  0  0  0  0  0  0  0
   -2.2691   -3.5671   39.4152 H   0  0  0  0  0  0  0  0  0  0  0  0
   -1.3335    0.9913   38.8684 H   0  0  0  0  0  0  0  0  0  0  0  0
   -0.3194    2.3518   37.0625 H   0  0  0  0  0  0  0  0  0  0  0  0
    0.4632    1.2544   34.9792 H   0  0  0  0  0  0  0  0  0  0  0  0
    0.2417   -1.1497   34.6785 H   0  0  0  0  0  0  0  0  0  0  0  0
    3.5145   -5.9683   34.0852 H   0  0  0  0  0  0  0  0  0  0  0  0
    2.4182   -5.6865   35.4217 H   0  0  0  0  0  0  0  0  0  0  0  0
    3.1045   -7.8982   35.4376 H   0  0  0  0  0  0  0  0  0  0  0  0
    1.5145   -7.8298   35.1610 H   0  0  0  0  0  0  0  0  0  0  0  0
  1  2  1  0
  2  3  1  0
  3  4  2  0
  3  5  1  0
  5  6  1  0
  6  7  1  0
  7  8  2  0
  7  9  1  0
  9 10  1  0
 10 11  2  0
 11 12  1  0
 12 13  1  0
 13 14  1  0
 14 15  1  0
 15 16  1  0
 16 17  2  0
 17 18  1  0
 18 19  1  0
 19 20  2  0
 19 21  1  0
 21 22  1  0
 22 23  2  0
 23 24  1  0
 24 25  1  0
 25 26  2  0
 25 27  1  0
 27 28  2  0
 28 29  1  0
 29 30  2  0
 30 31  1  0
 31 32  2  0
 18 33  2  0
 33 34  1  0
 34 35  1  0
 33 36  1  0
 11 37  1  0
 37 38  1  0
 38  9  2  0
 36 16  1  0
 32 22  1  0
 32 27  1  0
  1 39  1  0
  1 40  1  0
  1 41  1  0
  5 42  1  0
  5 43  1  0
  6 44  1  0
 10 45  1  0
 12 46  1  0
 12 47  1  0
 13 48  1  0
 14 49  1  0
 14 50  1  0
 15 51  1  0
 15 52  1  0
 21 53  1  0
 23 54  1  0
 24 55  1  0
 28 56  1  0
 29 57  1  0
 30 58  1  0
 31 59  1  0
 34 60  1  0
 34 61  1  0
 35 62  1  0
 35 63  1  0
M  END
>  <Energy>  (276) 
120.22362710174201

>  <compound_id>  (276) 
587

>  <target_id>  (276) 
1

>  <reference_id>  (276) 
134

>  <inspiration_ids>  (276) 
[59, 134]

>  <energy_score>  (276) 
-59.580571103119155

>  <distance_score>  (276) 
1.974335579908207

>  <path>  (276) 
/opt/xchem-fragalysis-2/maxwin/BulkDock/SCRATCH/505733/C587-P134/C587-P134.minimised.mol

>  <scratch_subdir>  (276) 
/opt/xchem-fragalysis-2/maxwin/BulkDock/SCRATCH/505733/C587-P134

>  <fragmenstein_runtime>  (276) 
7.069241523742676

>  <fragmenstein_outcome>  (276) 
too moved

>  <fragmenstein_mode>  (276) 
expansion

>  <fragmenstein_error>  (276) 


$$$$
C588-P59
     RDKit          3D

 56 59  0  0  0  0  0  0  0  0999 V2000
   -6.9658   -0.1114   35.0290 C   0  0  0  0  0  0  0  0  0  0  0  0
   -5.8701   -1.0149   34.8551 O   0  0  0  0  0  0  0  0  0  0  0  0
   -4.9347   -0.5863   33.9598 C   0  0  0  0  0  0  0  0  0  0  0  0
   -4.9473    0.4906   33.3719 O   0  0  0  0  0  0  0  0  0  0  0  0
   -3.8840   -1.6653   33.7398 C   0  0  0  0  0  0  0  0  0  0  0  0
   -3.0040   -1.2700   32.6739 N   0  0  0  0  0  0  0  0  0  0  0  0
   -1.4411   -1.1722   32.6250 C   0  0  0  0  0  0  0  0  0  0  0  0
   -0.6106   -1.4811   33.4422 N   0  0  0  0  0  0  0  0  0  0  0  0
   -0.7268   -2.0781   34.7430 C   0  0  0  0  0  0  0  0  0  0  0  0
   -1.0403   -3.5689   34.6309 C   0  0  0  0  0  0  0  0  0  0  0  0
    0.1391   -4.5425   34.5651 C   0  0  0  0  0  0  0  0  0  0  0  0
    0.4269   -5.0843   33.1715 C   0  0  0  0  0  0  0  0  0  0  0  0
    1.2446   -4.4259   32.2965 C   0  0  0  0  0  0  0  0  0  0  0  0
    1.9177   -3.1356   32.5656 C   0  0  0  0  0  0  0  0  0  0  0  0
    2.8348   -2.9502   33.5950 C   0  0  0  0  0  0  0  0  0  0  0  0
    3.5258   -1.7989   33.7874 N   0  0  0  0  0  0  0  0  0  0  0  0
    3.2695   -0.8275   32.8842 C   0  0  0  0  0  0  0  0  0  0  0  0
    2.4008   -1.0163   31.8245 C   0  0  0  0  0  0  0  0  0  0  0  0
    1.7259   -2.1755   31.6297 N   0  0  0  0  0  0  0  0  0  0  0  0
    1.4991   -5.0300   30.9878 C   0  0  0  0  0  0  0  0  0  0  0  0
    0.8807   -6.1370   30.5717 C   0  0  0  0  0  0  0  0  0  0  0  0
   -0.0843   -6.7483   31.3925 C   0  0  0  0  0  0  0  0  0  0  0  0
   -0.9280   -7.7245   31.1500 N   0  0  0  0  0  0  0  0  0  0  0  0
   -1.5352   -8.0318   32.3294 N   0  0  0  0  0  0  0  0  0  0  0  0
   -1.0415   -7.2570   33.2738 C   0  0  0  0  0  0  0  0  0  0  0  0
   -1.2471   -7.4643   34.5978 N   0  0  0  0  0  0  0  0  0  0  0  0
   -0.2155   -6.2818   32.7048 N   0  0  0  0  0  0  0  0  0  0  0  0
   -1.0483   -0.6131   31.3428 C   0  0  0  0  0  0  0  0  0  0  0  0
   -1.2827   -1.1593   30.0556 C   0  0  0  0  0  0  0  0  0  0  0  0
   -0.7264   -0.2467   29.1978 C   0  0  0  0  0  0  0  0  0  0  0  0
   -0.5550   -0.1907   27.7391 C   0  0  0  0  0  0  0  0  0  0  0  0
   -0.2260    0.7952   29.9103 O   0  0  0  0  0  0  0  0  0  0  0  0
   -0.4444    0.5812   31.2587 N   0  0  0  0  0  0  0  0  0  0  0  0
   -7.5369   -0.4415   35.9013 H   0  0  0  0  0  0  0  0  0  0  0  0
   -7.6188   -0.1562   34.1533 H   0  0  0  0  0  0  0  0  0  0  0  0
   -6.6177    0.9096   35.2138 H   0  0  0  0  0  0  0  0  0  0  0  0
   -3.3792   -1.8454   34.6844 H   0  0  0  0  0  0  0  0  0  0  0  0
   -4.4179   -2.5587   33.4132 H   0  0  0  0  0  0  0  0  0  0  0  0
   -3.3959   -0.8405   31.8395 H   0  0  0  0  0  0  0  0  0  0  0  0
    0.2107   -1.9311   35.2908 H   0  0  0  0  0  0  0  0  0  0  0  0
   -1.4824   -1.5582   35.3383 H   0  0  0  0  0  0  0  0  0  0  0  0
   -1.6063   -3.8297   35.5330 H   0  0  0  0  0  0  0  0  0  0  0  0
   -1.6646   -3.7269   33.7502 H   0  0  0  0  0  0  0  0  0  0  0  0
    1.0211   -4.0860   35.0181 H   0  0  0  0  0  0  0  0  0  0  0  0
   -0.0622   -5.3709   35.2454 H   0  0  0  0  0  0  0  0  0  0  0  0
    3.0769   -3.7413   34.2948 H   0  0  0  0  0  0  0  0  0  0  0  0
    3.7893    0.1126   33.0278 H   0  0  0  0  0  0  0  0  0  0  0  0
    2.2172   -0.2307   31.1002 H   0  0  0  0  0  0  0  0  0  0  0  0
    2.2382   -4.5507   30.3478 H   0  0  0  0  0  0  0  0  0  0  0  0
    1.1444   -6.5823   29.6289 H   0  0  0  0  0  0  0  0  0  0  0  0
   -0.4600   -7.3009   35.2160 H   0  0  0  0  0  0  0  0  0  0  0  0
   -1.5540   -8.4375   34.7513 H   0  0  0  0  0  0  0  0  0  0  0  0
   -1.7468   -2.0987   29.7963 H   0  0  0  0  0  0  0  0  0  0  0  0
    0.3947   -0.6532   27.4581 H   0  0  0  0  0  0  0  0  0  0  0  0
   -0.5556    0.8428   27.3793 H   0  0  0  0  0  0  0  0  0  0  0  0
   -1.3701   -0.7211   27.2386 H   0  0  0  0  0  0  0  0  0  0  0  0
  1  2  1  0
  2  3  1  0
  3  4  2  0
  3  5  1  0
  5  6  1  0
  6  7  1  0
  7  8  2  3
  8  9  1  0
  9 10  1  0
 10 11  1  0
 11 12  1  0
 12 13  2  0
 13 14  1  0
 14 15  2  0
 15 16  1  0
 16 17  2  0
 17 18  1  0
 18 19  2  0
 13 20  1  0
 20 21  2  0
 21 22  1  0
 22 23  2  0
 23 24  1  0
 24 25  2  0
 25 26  1  0
 25 27  1  0
  7 28  1  0
 28 29  1  0
 29 30  2  0
 30 31  1  0
 30 32  1  0
 32 33  1  0
 27 12  1  0
 33 28  2  0
 19 14  1  0
 27 22  1  0
  1 34  1  0
  1 35  1  0
  1 36  1  0
  5 37  1  0
  5 38  1  0
  6 39  1  0
  9 40  1  0
  9 41  1  0
 10 42  1  0
 10 43  1  0
 11 44  1  0
 11 45  1  0
 15 46  1  0
 17 47  1  0
 18 48  1  0
 20 49  1  0
 21 50  1  0
 26 51  1  0
 26 52  1  0
 29 53  1  0
 31 54  1  0
 31 55  1  0
 31 56  1  0
M  END
>  <Energy>  (277) 
170.82720712374095

>  <compound_id>  (277) 
588

>  <target_id>  (277) 
1

>  <reference_id>  (277) 
59

>  <inspiration_ids>  (277) 
[59, 135]

>  <energy_score>  (277) 
-47.15824977013676

>  <distance_score>  (277) 
1.497931194012986

>  <path>  (277) 
/opt/xchem-fragalysis-2/maxwin/BulkDock/SCRATCH/505733/C588-P59/C588-P59.minimised.mol

>  <scratch_subdir>  (277) 
/opt/xchem-fragalysis-2/maxwin/BulkDock/SCRATCH/505733/C588-P59

>  <fragmenstein_runtime>  (277) 
5.054236173629761

>  <fragmenstein_outcome>  (277) 
too moved

>  <fragmenstein_mode>  (277) 
expansion

>  <fragmenstein_error>  (277) 


$$$$
C588-P135
     RDKit          3D

 56 59  0  0  0  0  0  0  0  0999 V2000
   -5.8501    0.7307   36.7399 C   0  0  0  0  0  0  0  0  0  0  0  0
   -5.9842   -0.1420   35.6127 O   0  0  0  0  0  0  0  0  0  0  0  0
   -5.1582   -0.0410   34.5341 C   0  0  0  0  0  0  0  0  0  0  0  0
   -5.4135   -0.6581   33.5012 O   0  0  0  0  0  0  0  0  0  0  0  0
   -3.9315    0.8742   34.6879 C   0  0  0  0  0  0  0  0  0  0  0  0
   -2.9712    0.6212   33.6478 N   0  0  0  0  0  0  0  0  0  0  0  0
   -2.2416   -0.6848   33.2444 C   0  0  0  0  0  0  0  0  0  0  0  0
   -2.2479   -1.7683   33.7541 N   0  0  0  0  0  0  0  0  0  0  0  0
   -1.4720   -2.9130   33.3633 C   0  0  0  0  0  0  0  0  0  0  0  0
   -0.7362   -3.4337   34.5981 C   0  0  0  0  0  0  0  0  0  0  0  0
   -0.2074   -4.8710   34.4570 C   0  0  0  0  0  0  0  0  0  0  0  0
    0.2654   -5.3095   33.0789 C   0  0  0  0  0  0  0  0  0  0  0  0
    1.1254   -4.5747   32.3112 C   0  0  0  0  0  0  0  0  0  0  0  0
    1.7902   -3.3326   32.7666 C   0  0  0  0  0  0  0  0  0  0  0  0
    2.6637   -3.2974   33.8461 C   0  0  0  0  0  0  0  0  0  0  0  0
    3.2967   -2.1685   34.2504 N   0  0  0  0  0  0  0  0  0  0  0  0
    3.0237   -1.0639   33.5196 C   0  0  0  0  0  0  0  0  0  0  0  0
    2.1737   -1.0915   32.4286 C   0  0  0  0  0  0  0  0  0  0  0  0
    1.5516   -2.2235   32.0227 N   0  0  0  0  0  0  0  0  0  0  0  0
    1.3795   -5.0087   30.9380 C   0  0  0  0  0  0  0  0  0  0  0  0
    0.7641   -6.0617   30.3905 C   0  0  0  0  0  0  0  0  0  0  0  0
   -0.1500   -6.8174   31.1526 C   0  0  0  0  0  0  0  0  0  0  0  0
   -0.9205   -7.8311   30.8318 N   0  0  0  0  0  0  0  0  0  0  0  0
   -1.5194   -8.2657   31.9798 N   0  0  0  0  0  0  0  0  0  0  0  0
   -1.1017   -7.5217   32.9820 C   0  0  0  0  0  0  0  0  0  0  0  0
   -1.3179   -7.7902   34.2924 N   0  0  0  0  0  0  0  0  0  0  0  0
   -0.3176   -6.4749   32.4934 N   0  0  0  0  0  0  0  0  0  0  0  0
   -1.5483   -0.3970   31.9621 C   0  0  0  0  0  0  0  0  0  0  0  0
   -1.5914   -1.1227   30.7356 C   0  0  0  0  0  0  0  0  0  0  0  0
   -0.8568   -0.3742   29.8510 C   0  0  0  0  0  0  0  0  0  0  0  0
   -0.4978   -0.5172   28.4254 C   0  0  0  0  0  0  0  0  0  0  0  0
   -0.3884    0.7273   30.4937 O   0  0  0  0  0  0  0  0  0  0  0  0
   -0.8355    0.7321   31.8055 N   0  0  0  0  0  0  0  0  0  0  0  0
   -5.7780    1.7749   36.4237 H   0  0  0  0  0  0  0  0  0  0  0  0
   -4.9858    0.4362   37.3410 H   0  0  0  0  0  0  0  0  0  0  0  0
   -6.7487    0.6228   37.3538 H   0  0  0  0  0  0  0  0  0  0  0  0
   -4.2607    1.9156   34.6368 H   0  0  0  0  0  0  0  0  0  0  0  0
   -3.4458    0.6800   35.6471 H   0  0  0  0  0  0  0  0  0  0  0  0
   -2.6760    1.3701   33.0413 H   0  0  0  0  0  0  0  0  0  0  0  0
   -2.1265   -3.6614   32.9269 H   0  0  0  0  0  0  0  0  0  0  0  0
   -0.7544   -2.6802   32.5874 H   0  0  0  0  0  0  0  0  0  0  0  0
    0.0774   -2.7454   34.8529 H   0  0  0  0  0  0  0  0  0  0  0  0
   -1.4019   -3.4043   35.4719 H   0  0  0  0  0  0  0  0  0  0  0  0
    0.5883   -5.0498   35.1904 H   0  0  0  0  0  0  0  0  0  0  0  0
   -1.0383   -5.4918   34.7897 H   0  0  0  0  0  0  0  0  0  0  0  0
    2.8907   -4.1840   34.4272 H   0  0  0  0  0  0  0  0  0  0  0  0
    3.5119   -0.1483   33.8338 H   0  0  0  0  0  0  0  0  0  0  0  0
    1.9662   -0.1986   31.8489 H   0  0  0  0  0  0  0  0  0  0  0  0
    2.0812   -4.4240   30.3457 H   0  0  0  0  0  0  0  0  0  0  0  0
    0.9910   -6.3561   29.3798 H   0  0  0  0  0  0  0  0  0  0  0  0
   -0.5942   -7.5426   34.9572 H   0  0  0  0  0  0  0  0  0  0  0  0
   -1.5835   -8.7746   34.4508 H   0  0  0  0  0  0  0  0  0  0  0  0
   -2.1011   -2.0517   30.5338 H   0  0  0  0  0  0  0  0  0  0  0  0
    0.5020   -0.9502   28.3272 H   0  0  0  0  0  0  0  0  0  0  0  0
   -0.5078    0.4535   27.9204 H   0  0  0  0  0  0  0  0  0  0  0  0
   -1.2109   -1.1715   27.9152 H   0  0  0  0  0  0  0  0  0  0  0  0
  1  2  1  0
  2  3  1  0
  3  4  2  0
  3  5  1  0
  5  6  1  0
  6  7  1  0
  7  8  2  3
  8  9  1  0
  9 10  1  0
 10 11  1  0
 11 12  1  0
 12 13  2  0
 13 14  1  0
 14 15  2  0
 15 16  1  0
 16 17  2  0
 17 18  1  0
 18 19  2  0
 13 20  1  0
 20 21  2  0
 21 22  1  0
 22 23  2  0
 23 24  1  0
 24 25  2  0
 25 26  1  0
 25 27  1  0
  7 28  1  0
 28 29  1  0
 29 30  2  0
 30 31  1  0
 30 32  1  0
 32 33  1  0
 27 12  1  0
 33 28  2  0
 19 14  1  0
 27 22  1  0
  1 34  1  0
  1 35  1  0
  1 36  1  0
  5 37  1  0
  5 38  1  0
  6 39  1  0
  9 40  1  0
  9 41  1  0
 10 42  1  0
 10 43  1  0
 11 44  1  0
 11 45  1  0
 15 46  1  0
 17 47  1  0
 18 48  1  0
 20 49  1  0
 21 50  1  0
 26 51  1  0
 26 52  1  0
 29 53  1  0
 31 54  1  0
 31 55  1  0
 31 56  1  0
M  END
>  <Energy>  (278) 
171.41502890973595

>  <compound_id>  (278) 
588

>  <target_id>  (278) 
1

>  <reference_id>  (278) 
135

>  <inspiration_ids>  (278) 
[59, 135]

>  <energy_score>  (278) 
-46.57042798414193

>  <distance_score>  (278) 
1.3396895619442475

>  <path>  (278) 
/opt/xchem-fragalysis-2/maxwin/BulkDock/SCRATCH/505733/C588-P135/C588-P135.minimised.mol

>  <scratch_subdir>  (278) 
/opt/xchem-fragalysis-2/maxwin/BulkDock/SCRATCH/505733/C588-P135

>  <fragmenstein_runtime>  (278) 
5.490086555480957

>  <fragmenstein_outcome>  (278) 
too moved

>  <fragmenstein_mode>  (278) 
expansion

>  <fragmenstein_error>  (278) 


$$$$
C588-P59
     RDKit          3D

 56 59  0  0  0  0  0  0  0  0999 V2000
   -4.0540    2.4672   37.0003 C   0  0  0  0  0  0  0  0  0  0  0  0
   -2.6865    2.3306   36.6112 O   0  0  0  0  0  0  0  0  0  0  0  0
   -2.5133    2.0484   35.2847 C   0  0  0  0  0  0  0  0  0  0  0  0
   -3.4261    1.9536   34.4703 O   0  0  0  0  0  0  0  0  0  0  0  0
   -1.0202    1.9334   34.9783 C   0  0  0  0  0  0  0  0  0  0  0  0
   -0.8028    1.3194   33.7018 N   0  0  0  0  0  0  0  0  0  0  0  0
   -1.0069   -0.1526   33.2373 C   0  0  0  0  0  0  0  0  0  0  0  0
   -1.3174   -1.1293   33.8599 N   0  0  0  0  0  0  0  0  0  0  0  0
   -1.3343   -2.5238   33.4952 C   0  0  0  0  0  0  0  0  0  0  0  0
   -0.6484   -3.2641   34.6528 C   0  0  0  0  0  0  0  0  0  0  0  0
   -0.3583   -4.7615   34.4536 C   0  0  0  0  0  0  0  0  0  0  0  0
    0.1894   -5.2750   33.1285 C   0  0  0  0  0  0  0  0  0  0  0  0
    1.1581   -4.6567   32.3875 C   0  0  0  0  0  0  0  0  0  0  0  0
    1.9051   -3.4720   32.8619 C   0  0  0  0  0  0  0  0  0  0  0  0
    1.9730   -2.3037   32.1044 C   0  0  0  0  0  0  0  0  0  0  0  0
    2.6288   -1.1958   32.5193 N   0  0  0  0  0  0  0  0  0  0  0  0
    3.2246   -1.2978   33.7247 C   0  0  0  0  0  0  0  0  0  0  0  0
    3.1881   -2.4644   34.4699 C   0  0  0  0  0  0  0  0  0  0  0  0
    2.5390   -3.5794   34.0552 N   0  0  0  0  0  0  0  0  0  0  0  0
    1.5162   -5.2312   31.0883 C   0  0  0  0  0  0  0  0  0  0  0  0
    0.8889   -6.2945   30.5732 C   0  0  0  0  0  0  0  0  0  0  0  0
   -0.1474   -6.9149   31.2968 C   0  0  0  0  0  0  0  0  0  0  0  0
   -0.9620   -7.8979   30.9896 N   0  0  0  0  0  0  0  0  0  0  0  0
   -1.6394   -8.2312   32.1283 N   0  0  0  0  0  0  0  0  0  0  0  0
   -1.2226   -7.4539   33.1059 C   0  0  0  0  0  0  0  0  0  0  0  0
   -1.4750   -7.6504   34.4256 N   0  0  0  0  0  0  0  0  0  0  0  0
   -0.3915   -6.4612   32.5894 N   0  0  0  0  0  0  0  0  0  0  0  0
   -0.7965   -0.1455   31.7637 C   0  0  0  0  0  0  0  0  0  0  0  0
   -1.3545   -0.9477   30.7225 C   0  0  0  0  0  0  0  0  0  0  0  0
   -0.8133   -0.4482   29.5614 C   0  0  0  0  0  0  0  0  0  0  0  0
   -0.9059   -0.7862   28.1288 C   0  0  0  0  0  0  0  0  0  0  0  0
   -0.0175    0.6051   29.8656 O   0  0  0  0  0  0  0  0  0  0  0  0
   -0.0254    0.8161   31.2228 N   0  0  0  0  0  0  0  0  0  0  0  0
   -4.6022    1.5391   36.8098 H   0  0  0  0  0  0  0  0  0  0  0  0
   -4.5188    3.3080   36.4759 H   0  0  0  0  0  0  0  0  0  0  0  0
   -4.0818    2.6710   38.0743 H   0  0  0  0  0  0  0  0  0  0  0  0
   -0.5888    2.9386   34.9887 H   0  0  0  0  0  0  0  0  0  0  0  0
   -0.5433    1.3279   35.7552 H   0  0  0  0  0  0  0  0  0  0  0  0
   -0.4578    1.8766   32.9198 H   0  0  0  0  0  0  0  0  0  0  0  0
   -2.3650   -2.8498   33.3605 H   0  0  0  0  0  0  0  0  0  0  0  0
   -0.8107   -2.7211   32.5622 H   0  0  0  0  0  0  0  0  0  0  0  0
    0.2763   -2.7441   34.9215 H   0  0  0  0  0  0  0  0  0  0  0  0
   -1.2767   -3.1604   35.5492 H   0  0  0  0  0  0  0  0  0  0  0  0
    0.3089   -5.1023   35.2561 H   0  0  0  0  0  0  0  0  0  0  0  0
   -1.3131   -5.2447   34.6561 H   0  0  0  0  0  0  0  0  0  0  0  0
    1.4891   -2.2150   31.1379 H   0  0  0  0  0  0  0  0  0  0  0  0
    3.7441   -0.4135   34.0758 H   0  0  0  0  0  0  0  0  0  0  0  0
    3.6816   -2.5330   35.4329 H   0  0  0  0  0  0  0  0  0  0  0  0
    2.3503   -4.7907   30.5457 H   0  0  0  0  0  0  0  0  0  0  0  0
    1.2289   -6.7299   29.6479 H   0  0  0  0  0  0  0  0  0  0  0  0
   -1.6836   -8.6474   34.6010 H   0  0  0  0  0  0  0  0  0  0  0  0
   -0.7459   -7.3716   35.0758 H   0  0  0  0  0  0  0  0  0  0  0  0
   -2.0563   -1.7623   30.8069 H   0  0  0  0  0  0  0  0  0  0  0  0
    0.0415   -1.2068   27.7803 H   0  0  0  0  0  0  0  0  0  0  0  0
   -1.1324    0.1035   27.5332 H   0  0  0  0  0  0  0  0  0  0  0  0
   -1.6958   -1.5223   27.9530 H   0  0  0  0  0  0  0  0  0  0  0  0
  1  2  1  0
  2  3  1  0
  3  4  2  0
  3  5  1  0
  5  6  1  0
  6  7  1  0
  7  8  2  3
  8  9  1  0
  9 10  1  0
 10 11  1  0
 11 12  1  0
 12 13  2  0
 13 14  1  0
 14 15  2  0
 15 16  1  0
 16 17  2  0
 17 18  1  0
 18 19  2  0
 13 20  1  0
 20 21  2  0
 21 22  1  0
 22 23  2  0
 23 24  1  0
 24 25  2  0
 25 26  1  0
 25 27  1  0
  7 28  1  0
 28 29  1  0
 29 30  2  0
 30 31  1  0
 30 32  1  0
 32 33  1  0
 27 12  1  0
 33 28  2  0
 19 14  1  0
 27 22  1  0
  1 34  1  0
  1 35  1  0
  1 36  1  0
  5 37  1  0
  5 38  1  0
  6 39  1  0
  9 40  1  0
  9 41  1  0
 10 42  1  0
 10 43  1  0
 11 44  1  0
 11 45  1  0
 15 46  1  0
 17 47  1  0
 18 48  1  0
 20 49  1  0
 21 50  1  0
 26 51  1  0
 26 52  1  0
 29 53  1  0
 31 54  1  0
 31 55  1  0
 31 56  1  0
M  END
>  <Energy>  (279) 
162.39522261570278

>  <compound_id>  (279) 
588

>  <target_id>  (279) 
1

>  <reference_id>  (279) 
59

>  <inspiration_ids>  (279) 
[59, 136]

>  <energy_score>  (279) 
-54.81745795721076

>  <distance_score>  (279) 
2.037876193482516

>  <path>  (279) 
/opt/xchem-fragalysis-2/maxwin/BulkDock/SCRATCH/505733/C588-P59/C588-P59.minimised.mol

>  <scratch_subdir>  (279) 
/opt/xchem-fragalysis-2/maxwin/BulkDock/SCRATCH/505733/C588-P59

>  <fragmenstein_runtime>  (279) 
5.383775472640991

>  <fragmenstein_outcome>  (279) 
too moved

>  <fragmenstein_mode>  (279) 
expansion

>  <fragmenstein_error>  (279) 


$$$$
C588-P136
     RDKit          3D

 56 59  0  0  0  0  0  0  0  0999 V2000
   -6.4466    1.7659   35.9937 C   0  0  0  0  0  0  0  0  0  0  0  0
   -6.1028    0.4886   35.4583 O   0  0  0  0  0  0  0  0  0  0  0  0
   -5.2090    0.5474   34.4299 C   0  0  0  0  0  0  0  0  0  0  0  0
   -4.6973    1.5730   33.9897 O   0  0  0  0  0  0  0  0  0  0  0  0
   -4.9561   -0.8442   33.8732 C   0  0  0  0  0  0  0  0  0  0  0  0
   -3.8279   -0.8355   32.9804 N   0  0  0  0  0  0  0  0  0  0  0  0
   -2.4118   -1.4601   33.1319 C   0  0  0  0  0  0  0  0  0  0  0  0
   -1.9566   -2.1620   33.9946 N   0  0  0  0  0  0  0  0  0  0  0  0
   -0.6448   -2.7714   33.9727 C   0  0  0  0  0  0  0  0  0  0  0  0
   -0.6496   -4.0234   34.8606 C   0  0  0  0  0  0  0  0  0  0  0  0
    0.5425   -4.9587   34.6599 C   0  0  0  0  0  0  0  0  0  0  0  0
    0.6912   -5.4268   33.2193 C   0  0  0  0  0  0  0  0  0  0  0  0
    1.4992   -4.7716   32.3247 C   0  0  0  0  0  0  0  0  0  0  0  0
    2.2607   -3.5395   32.6663 C   0  0  0  0  0  0  0  0  0  0  0  0
    2.0705   -2.3596   31.9426 C   0  0  0  0  0  0  0  0  0  0  0  0
    2.6544   -1.1847   32.2731 N   0  0  0  0  0  0  0  0  0  0  0  0
    3.4382   -1.2230   33.3687 C   0  0  0  0  0  0  0  0  0  0  0  0
    3.6576   -2.3925   34.0760 C   0  0  0  0  0  0  0  0  0  0  0  0
    3.0920   -3.5754   33.7330 N   0  0  0  0  0  0  0  0  0  0  0  0
    1.5287   -5.2412   30.9416 C   0  0  0  0  0  0  0  0  0  0  0  0
    0.7297   -6.2158   30.4999 C   0  0  0  0  0  0  0  0  0  0  0  0
   -0.1569   -6.8601   31.3816 C   0  0  0  0  0  0  0  0  0  0  0  0
   -1.0513   -7.7912   31.1540 N   0  0  0  0  0  0  0  0  0  0  0  0
   -1.5856   -8.1341   32.3573 N   0  0  0  0  0  0  0  0  0  0  0  0
   -1.0119   -7.4204   33.3054 C   0  0  0  0  0  0  0  0  0  0  0  0
   -1.2250   -7.6208   34.6283 N   0  0  0  0  0  0  0  0  0  0  0  0
   -0.1195   -6.5053   32.7327 N   0  0  0  0  0  0  0  0  0  0  0  0
   -1.6573   -1.0393   31.9336 C   0  0  0  0  0  0  0  0  0  0  0  0
   -1.5698   -1.6729   30.6629 C   0  0  0  0  0  0  0  0  0  0  0  0
   -0.8970   -0.7748   29.8679 C   0  0  0  0  0  0  0  0  0  0  0  0
   -0.4994   -0.7449   28.4444 C   0  0  0  0  0  0  0  0  0  0  0  0
   -0.5648    0.3098   30.6153 O   0  0  0  0  0  0  0  0  0  0  0  0
   -1.0551    0.1588   31.8996 N   0  0  0  0  0  0  0  0  0  0  0  0
   -7.1841    1.6134   36.7865 H   0  0  0  0  0  0  0  0  0  0  0  0
   -6.8943    2.4024   35.2245 H   0  0  0  0  0  0  0  0  0  0  0  0
   -5.5653    2.2471   36.4293 H   0  0  0  0  0  0  0  0  0  0  0  0
   -4.7670   -1.5320   34.7031 H   0  0  0  0  0  0  0  0  0  0  0  0
   -5.8498   -1.1672   33.3311 H   0  0  0  0  0  0  0  0  0  0  0  0
   -3.8423   -0.2284   32.1707 H   0  0  0  0  0  0  0  0  0  0  0  0
   -0.4170   -3.0590   32.9485 H   0  0  0  0  0  0  0  0  0  0  0  0
    0.1118   -2.0652   34.3302 H   0  0  0  0  0  0  0  0  0  0  0  0
   -0.7091   -3.7215   35.9134 H   0  0  0  0  0  0  0  0  0  0  0  0
   -1.5357   -4.6180   34.6647 H   0  0  0  0  0  0  0  0  0  0  0  0
    1.4331   -4.4526   35.0332 H   0  0  0  0  0  0  0  0  0  0  0  0
    0.4649   -5.8109   35.3367 H   0  0  0  0  0  0  0  0  0  0  0  0
    1.4115   -2.3137   31.0835 H   0  0  0  0  0  0  0  0  0  0  0  0
    3.8972   -0.2851   33.6601 H   0  0  0  0  0  0  0  0  0  0  0  0
    4.3024   -2.4101   34.9476 H   0  0  0  0  0  0  0  0  0  0  0  0
    2.2399   -4.7836   30.2571 H   0  0  0  0  0  0  0  0  0  0  0  0
    0.7998   -6.5569   29.4841 H   0  0  0  0  0  0  0  0  0  0  0  0
   -1.5929   -8.5715   34.8025 H   0  0  0  0  0  0  0  0  0  0  0  0
   -0.4475   -7.5055   35.2669 H   0  0  0  0  0  0  0  0  0  0  0  0
   -1.9810   -2.6239   30.3626 H   0  0  0  0  0  0  0  0  0  0  0  0
    0.1139   -1.6188   28.2065 H   0  0  0  0  0  0  0  0  0  0  0  0
    0.0802    0.1528   28.2086 H   0  0  0  0  0  0  0  0  0  0  0  0
   -1.3875   -0.7561   27.8056 H   0  0  0  0  0  0  0  0  0  0  0  0
  1  2  1  0
  2  3  1  0
  3  4  2  0
  3  5  1  0
  5  6  1  0
  6  7  1  0
  7  8  2  3
  8  9  1  0
  9 10  1  0
 10 11  1  0
 11 12  1  0
 12 13  2  0
 13 14  1  0
 14 15  2  0
 15 16  1  0
 16 17  2  0
 17 18  1  0
 18 19  2  0
 13 20  1  0
 20 21  2  0
 21 22  1  0
 22 23  2  0
 23 24  1  0
 24 25  2  0
 25 26  1  0
 25 27  1  0
  7 28  1  0
 28 29  1  0
 29 30  2  0
 30 31  1  0
 30 32  1  0
 32 33  1  0
 27 12  1  0
 33 28  2  0
 19 14  1  0
 27 22  1  0
  1 34  1  0
  1 35  1  0
  1 36  1  0
  5 37  1  0
  5 38  1  0
  6 39  1  0
  9 40  1  0
  9 41  1  0
 10 42  1  0
 10 43  1  0
 11 44  1  0
 11 45  1  0
 15 46  1  0
 17 47  1  0
 18 48  1  0
 20 49  1  0
 21 50  1  0
 26 51  1  0
 26 52  1  0
 29 53  1  0
 31 54  1  0
 31 55  1  0
 31 56  1  0
M  END
>  <Energy>  (280) 
165.225279384158

>  <compound_id>  (280) 
588

>  <target_id>  (280) 
1

>  <reference_id>  (280) 
136

>  <inspiration_ids>  (280) 
[59, 136]

>  <energy_score>  (280) 
-51.98740118875378

>  <distance_score>  (280) 
1.0859786690510456

>  <path>  (280) 
/opt/xchem-fragalysis-2/maxwin/BulkDock/SCRATCH/505733/C588-P136/C588-P136.minimised.mol

>  <scratch_subdir>  (280) 
/opt/xchem-fragalysis-2/maxwin/BulkDock/SCRATCH/505733/C588-P136

>  <fragmenstein_runtime>  (280) 
5.52107310295105

>  <fragmenstein_outcome>  (280) 
too moved

>  <fragmenstein_mode>  (280) 
expansion

>  <fragmenstein_error>  (280) 


$$$$
C589-P59
     RDKit          3D

 59 62  0  0  0  0  0  0  0  0999 V2000
   -7.1602   -0.7310   34.9370 C   0  0  0  0  0  0  0  0  0  0  0  0
   -5.9941    0.0682   35.1507 O   0  0  0  0  0  0  0  0  0  0  0  0
   -5.0613    0.1083   34.1671 C   0  0  0  0  0  0  0  0  0  0  0  0
   -4.5376    1.1676   33.8277 O   0  0  0  0  0  0  0  0  0  0  0  0
   -4.6866   -1.2385   33.5431 C   0  0  0  0  0  0  0  0  0  0  0  0
   -3.5743   -1.0804   32.6373 N   0  0  0  0  0  0  0  0  0  0  0  0
   -2.1592   -1.1895   32.8502 C   0  0  0  0  0  0  0  0  0  0  0  0
   -1.5099   -1.5313   33.8540 N   0  0  0  0  0  0  0  0  0  0  0  0
   -0.0618   -1.5327   33.9628 C   0  0  0  0  0  0  0  0  0  0  0  0
    0.3642   -2.6986   34.8482 C   0  0  0  0  0  0  0  0  0  0  0  0
    0.0759   -4.2180   34.0105 C   0  0  0  0  0  0  0  0  0  0  0  0
    1.0825   -5.5638   35.1010 N   0  0  0  0  0  0  0  0  0  0  0  0
    0.4603   -6.1664   36.5267 C   0  0  0  0  0  0  0  0  0  0  0  0
   -0.5483   -6.0512   37.0313 O   0  0  0  0  0  0  0  0  0  0  0  0
    1.6593   -6.8769   36.9578 N   0  0  0  0  0  0  0  0  0  0  0  0
    1.9353   -7.5264   38.1276 C   0  0  0  0  0  0  0  0  0  0  0  0
    3.1240   -8.1748   38.5172 C   0  0  0  0  0  0  0  0  0  0  0  0
    3.0427   -8.6910   39.7469 N   0  0  0  0  0  0  0  0  0  0  0  0
    1.7931   -8.3786   40.1361 N   0  0  0  0  0  0  0  0  0  0  0  0
    1.0953   -7.6709   39.2020 C   0  0  0  0  0  0  0  0  0  0  0  0
    0.6154   -4.8915   34.0809 C   0  0  0  0  0  0  0  0  0  0  0  0
    1.9581   -4.7168   33.3209 C   0  0  0  0  0  0  0  0  0  0  0  0
    2.0830   -4.9445   31.8873 C   0  0  0  0  0  0  0  0  0  0  0  0
    1.2467   -5.7296   31.1902 C   0  0  0  0  0  0  0  0  0  0  0  0
    0.1810   -6.4051   31.8247 C   0  0  0  0  0  0  0  0  0  0  0  0
   -0.6550   -7.3256   31.3920 N   0  0  0  0  0  0  0  0  0  0  0  0
   -1.4278   -7.7312   32.4578 N   0  0  0  0  0  0  0  0  0  0  0  0
   -1.0648   -7.0345   33.5126 C   0  0  0  0  0  0  0  0  0  0  0  0
   -0.1112   -6.1198   33.1500 N   0  0  0  0  0  0  0  0  0  0  0  0
   -1.4802   -0.7904   31.5963 C   0  0  0  0  0  0  0  0  0  0  0  0
   -1.6603   -1.3413   30.2987 C   0  0  0  0  0  0  0  0  0  0  0  0
   -0.8800   -0.5646   29.4808 C   0  0  0  0  0  0  0  0  0  0  0  0
   -0.6140   -0.5487   28.0312 C   0  0  0  0  0  0  0  0  0  0  0  0
   -0.2459    0.3739   30.2300 O   0  0  0  0  0  0  0  0  0  0  0  0
   -0.6234    0.2424   31.5536 N   0  0  0  0  0  0  0  0  0  0  0  0
   -6.9784   -1.7435   35.3031 H   0  0  0  0  0  0  0  0  0  0  0  0
   -7.4539   -0.7428   33.8829 H   0  0  0  0  0  0  0  0  0  0  0  0
   -7.9796   -0.2942   35.5144 H   0  0  0  0  0  0  0  0  0  0  0  0
   -4.4254   -1.9369   34.3429 H   0  0  0  0  0  0  0  0  0  0  0  0
   -5.5370   -1.6228   32.9770 H   0  0  0  0  0  0  0  0  0  0  0  0
   -3.7374   -0.6889   31.7159 H   0  0  0  0  0  0  0  0  0  0  0  0
    0.4612   -1.6215   33.0058 H   0  0  0  0  0  0  0  0  0  0  0  0
    0.2580   -0.5967   34.4339 H   0  0  0  0  0  0  0  0  0  0  0  0
    1.4346   -2.6183   35.0760 H   0  0  0  0  0  0  0  0  0  0  0  0
   -0.1917   -2.7310   35.7937 H   0  0  0  0  0  0  0  0  0  0  0  0
   -1.0903   -4.2813   34.3832 H   0  0  0  0  0  0  0  0  0  0  0  0
   -0.0570   -3.8391   32.8053 H   0  0  0  0  0  0  0  0  0  0  0  0
    2.3521   -6.8410   36.2239 H   0  0  0  0  0  0  0  0  0  0  0  0
    4.0470   -8.2910   37.9655 H   0  0  0  0  0  0  0  0  0  0  0  0
    1.4851   -8.6780   41.0558 H   0  0  0  0  0  0  0  0  0  0  0  0
    0.0826   -7.3411   39.3853 H   0  0  0  0  0  0  0  0  0  0  0  0
    2.8431   -4.3797   33.8644 H   0  0  0  0  0  0  0  0  0  0  0  0
    2.9111   -4.4476   31.3861 H   0  0  0  0  0  0  0  0  0  0  0  0
    1.3841   -5.8778   30.1244 H   0  0  0  0  0  0  0  0  0  0  0  0
   -1.4550   -7.1269   34.5152 H   0  0  0  0  0  0  0  0  0  0  0  0
   -2.2813   -2.1710   29.9975 H   0  0  0  0  0  0  0  0  0  0  0  0
   -1.4412   -1.0105   27.4840 H   0  0  0  0  0  0  0  0  0  0  0  0
    0.3029   -1.1025   27.8101 H   0  0  0  0  0  0  0  0  0  0  0  0
   -0.4970    0.4756   27.6643 H   0  0  0  0  0  0  0  0  0  0  0  0
  1  2  1  0
  2  3  1  0
  3  4  2  0
  3  5  1  0
  5  6  1  0
  6  7  1  0
  7  8  2  3
  8  9  1  0
  9 10  1  0
 10 11  1  0
 11 12  1  0
 12 13  1  0
 13 14  2  0
 13 15  1  0
 15 16  1  0
 16 17  1  0
 17 18  2  0
 18 19  1  0
 19 20  1  0
 12 21  1  0
 21 22  2  0
 22 23  1  0
 23 24  2  0
 24 25  1  0
 25 26  2  0
 26 27  1  0
 27 28  2  0
 28 29  1  0
  7 30  1  0
 30 31  1  0
 31 32  2  0
 32 33  1  0
 32 34  1  0
 34 35  1  0
 20 16  2  0
 29 21  1  0
 35 30  2  0
 29 25  1  0
  1 36  1  0
  1 37  1  0
  1 38  1  0
  5 39  1  0
  5 40  1  0
  6 41  1  0
  9 42  1  0
  9 43  1  0
 10 44  1  0
 10 45  1  0
 11 46  1  0
 11 47  1  0
 15 48  1  0
 17 49  1  0
 19 50  1  0
 20 51  1  0
 22 52  1  0
 23 53  1  0
 24 54  1  0
 28 55  1  0
 31 56  1  0
 33 57  1  0
 33 58  1  0
 33 59  1  0
M  END
>  <Energy>  (281) 
768.101963561258

>  <compound_id>  (281) 
589

>  <target_id>  (281) 
1

>  <reference_id>  (281) 
59

>  <inspiration_ids>  (281) 
[59, 140]

>  <energy_score>  (281) 
625.5642434274329

>  <distance_score>  (281) 
1.4759902905469986

>  <path>  (281) 
/opt/xchem-fragalysis-2/maxwin/BulkDock/SCRATCH/505733/C589-P59/C589-P59.minimised.mol

>  <scratch_subdir>  (281) 
/opt/xchem-fragalysis-2/maxwin/BulkDock/SCRATCH/505733/C589-P59

>  <fragmenstein_runtime>  (281) 
12.342238903045654

>  <fragmenstein_outcome>  (281) 
too moved

>  <fragmenstein_mode>  (281) 
expansion

>  <fragmenstein_error>  (281) 


$$$$
C589-P140
     RDKit          3D

 59 62  0  0  0  0  0  0  0  0999 V2000
   -6.5937    0.8251   35.3292 C   0  0  0  0  0  0  0  0  0  0  0  0
   -5.2826    0.2879   35.5295 O   0  0  0  0  0  0  0  0  0  0  0  0
   -4.4290    0.5486   34.5042 C   0  0  0  0  0  0  0  0  0  0  0  0
   -4.6863    1.2107   33.5015 O   0  0  0  0  0  0  0  0  0  0  0  0
   -3.0632   -0.0871   34.7445 C   0  0  0  0  0  0  0  0  0  0  0  0
   -2.3595   -0.0564   33.4911 N   0  0  0  0  0  0  0  0  0  0  0  0
   -1.0757   -0.5617   33.1172 C   0  0  0  0  0  0  0  0  0  0  0  0
   -0.1745   -1.0962   33.7906 N   0  0  0  0  0  0  0  0  0  0  0  0
   -0.1469   -1.2929   35.2201 C   0  0  0  0  0  0  0  0  0  0  0  0
   -0.2604   -2.7803   35.5401 C   0  0  0  0  0  0  0  0  0  0  0  0
    0.9127   -3.6958   34.6411 C   0  0  0  0  0  0  0  0  0  0  0  0
    1.6643   -5.1302   35.8285 N   0  0  0  0  0  0  0  0  0  0  0  0
    1.4384   -5.0894   37.4902 C   0  0  0  0  0  0  0  0  0  0  0  0
    0.8195   -4.4211   38.1617 O   0  0  0  0  0  0  0  0  0  0  0  0
    2.2310   -6.2682   37.8035 N   0  0  0  0  0  0  0  0  0  0  0  0
    2.3794   -6.9515   38.9742 C   0  0  0  0  0  0  0  0  0  0  0  0
    1.9483   -6.5995   40.2686 C   0  0  0  0  0  0  0  0  0  0  0  0
    2.2219   -7.5481   41.1681 N   0  0  0  0  0  0  0  0  0  0  0  0
    2.7576   -8.5335   40.4275 N   0  0  0  0  0  0  0  0  0  0  0  0
    2.9560   -8.1857   39.1191 C   0  0  0  0  0  0  0  0  0  0  0  0
    1.1523   -4.5232   34.7933 C   0  0  0  0  0  0  0  0  0  0  0  0
    2.1712   -5.0310   33.7237 C   0  0  0  0  0  0  0  0  0  0  0  0
    1.7377   -5.5065   32.4156 C   0  0  0  0  0  0  0  0  0  0  0  0
    0.5440   -6.0857   32.2152 C   0  0  0  0  0  0  0  0  0  0  0  0
   -0.3631   -6.2434   33.2861 C   0  0  0  0  0  0  0  0  0  0  0  0
   -1.4213   -7.0130   33.4256 N   0  0  0  0  0  0  0  0  0  0  0  0
   -1.8737   -6.8892   34.7236 N   0  0  0  0  0  0  0  0  0  0  0  0
   -1.1054   -6.0155   35.3336 C   0  0  0  0  0  0  0  0  0  0  0  0
   -0.1586   -5.5355   34.4628 N   0  0  0  0  0  0  0  0  0  0  0  0
   -0.8801   -0.4197   31.6702 C   0  0  0  0  0  0  0  0  0  0  0  0
    0.2485   -0.7400   30.8782 C   0  0  0  0  0  0  0  0  0  0  0  0
   -0.1137   -0.3818   29.6039 C   0  0  0  0  0  0  0  0  0  0  0  0
    0.5577   -0.4086   28.2963 C   0  0  0  0  0  0  0  0  0  0  0  0
   -1.3781    0.1083   29.6172 O   0  0  0  0  0  0  0  0  0  0  0  0
   -1.8674    0.0806   30.9040 N   0  0  0  0  0  0  0  0  0  0  0  0
   -7.1914    0.5924   36.2149 H   0  0  0  0  0  0  0  0  0  0  0  0
   -7.0667    0.3555   34.4614 H   0  0  0  0  0  0  0  0  0  0  0  0
   -6.5521    1.9129   35.2177 H   0  0  0  0  0  0  0  0  0  0  0  0
   -2.5551    0.5169   35.5003 H   0  0  0  0  0  0  0  0  0  0  0  0
   -3.2023   -1.1190   35.0786 H   0  0  0  0  0  0  0  0  0  0  0  0
   -2.8602    0.2360   32.6444 H   0  0  0  0  0  0  0  0  0  0  0  0
    0.8131   -0.9194   35.5958 H   0  0  0  0  0  0  0  0  0  0  0  0
   -0.9025   -0.7380   35.7717 H   0  0  0  0  0  0  0  0  0  0  0  0
   -0.1049   -2.9244   36.6093 H   0  0  0  0  0  0  0  0  0  0  0  0
   -1.2569   -3.1509   35.2752 H   0  0  0  0  0  0  0  0  0  0  0  0
    0.4893   -3.5510   33.4518 H   0  0  0  0  0  0  0  0  0  0  0  0
    1.7792   -2.8100   34.6851 H   0  0  0  0  0  0  0  0  0  0  0  0
    2.5876   -6.6686   36.9485 H   0  0  0  0  0  0  0  0  0  0  0  0
    1.4454   -5.6965   40.5907 H   0  0  0  0  0  0  0  0  0  0  0  0
    2.9697   -9.4153   40.8837 H   0  0  0  0  0  0  0  0  0  0  0  0
    3.4147   -8.8737   38.4274 H   0  0  0  0  0  0  0  0  0  0  0  0
    3.2409   -4.9454   33.9229 H   0  0  0  0  0  0  0  0  0  0  0  0
    2.4327   -5.3814   31.5908 H   0  0  0  0  0  0  0  0  0  0  0  0
    0.2577   -6.4621   31.2388 H   0  0  0  0  0  0  0  0  0  0  0  0
   -1.1758   -5.6978   36.3638 H   0  0  0  0  0  0  0  0  0  0  0  0
    1.1908   -1.1504   31.2060 H   0  0  0  0  0  0  0  0  0  0  0  0
   -0.1580   -0.2376   27.4880 H   0  0  0  0  0  0  0  0  0  0  0  0
    1.0394   -1.3774   28.1372 H   0  0  0  0  0  0  0  0  0  0  0  0
    1.3243    0.3702   28.2433 H   0  0  0  0  0  0  0  0  0  0  0  0
  1  2  1  0
  2  3  1  0
  3  4  2  0
  3  5  1  0
  5  6  1  0
  6  7  1  0
  7  8  2  3
  8  9  1  0
  9 10  1  0
 10 11  1  0
 11 12  1  0
 12 13  1  0
 13 14  2  0
 13 15  1  0
 15 16  1  0
 16 17  1  0
 17 18  2  0
 18 19  1  0
 19 20  1  0
 12 21  1  0
 21 22  2  0
 22 23  1  0
 23 24  2  0
 24 25  1  0
 25 26  2  0
 26 27  1  0
 27 28  2  0
 28 29  1  0
  7 30  1  0
 30 31  1  0
 31 32  2  0
 32 33  1  0
 32 34  1  0
 34 35  1  0
 20 16  2  0
 29 21  1  0
 35 30  2  0
 29 25  1  0
  1 36  1  0
  1 37  1  0
  1 38  1  0
  5 39  1  0
  5 40  1  0
  6 41  1  0
  9 42  1  0
  9 43  1  0
 10 44  1  0
 10 45  1  0
 11 46  1  0
 11 47  1  0
 15 48  1  0
 17 49  1  0
 19 50  1  0
 20 51  1  0
 22 52  1  0
 23 53  1  0
 24 54  1  0
 28 55  1  0
 31 56  1  0
 33 57  1  0
 33 58  1  0
 33 59  1  0
M  END
>  <Energy>  (282) 
748.79540791380987

>  <compound_id>  (282) 
589

>  <target_id>  (282) 
1

>  <reference_id>  (282) 
140

>  <inspiration_ids>  (282) 
[59, 140]

>  <energy_score>  (282) 
606.2576877799904

>  <distance_score>  (282) 
1.7582126069142208

>  <path>  (282) 
/opt/xchem-fragalysis-2/maxwin/BulkDock/SCRATCH/505733/C589-P140/C589-P140.minimised.mol

>  <scratch_subdir>  (282) 
/opt/xchem-fragalysis-2/maxwin/BulkDock/SCRATCH/505733/C589-P140

>  <fragmenstein_runtime>  (282) 
13.182430505752563

>  <fragmenstein_outcome>  (282) 
too moved

>  <fragmenstein_mode>  (282) 
expansion

>  <fragmenstein_error>  (282) 


$$$$
C590-P59
     RDKit          3D

 59 62  0  0  0  0  0  0  0  0999 V2000
   -2.4245    3.3037   35.7081 C   0  0  0  0  0  0  0  0  0  0  0  0
   -1.3426    2.9486   34.8487 O   0  0  0  0  0  0  0  0  0  0  0  0
   -0.2155    2.5488   35.5106 C   0  0  0  0  0  0  0  0  0  0  0  0
   -0.0979    2.5426   36.7319 O   0  0  0  0  0  0  0  0  0  0  0  0
    0.9197    2.2060   34.5529 C   0  0  0  0  0  0  0  0  0  0  0  0
    0.4586    1.6160   33.3274 N   0  0  0  0  0  0  0  0  0  0  0  0
   -0.3804    0.3247   33.0746 C   0  0  0  0  0  0  0  0  0  0  0  0
   -0.9009   -0.4298   33.8488 N   0  0  0  0  0  0  0  0  0  0  0  0
   -1.7046   -1.6123   33.7103 C   0  0  0  0  0  0  0  0  0  0  0  0
   -1.0145   -2.7617   32.9986 C   0  0  0  0  0  0  0  0  0  0  0  0
    0.1180   -3.4993   33.7481 C   0  0  0  0  0  0  0  0  0  0  0  0
    0.3231   -4.8159   33.0057 C   0  0  0  0  0  0  0  0  0  0  0  0
    0.6412   -4.6879   31.5757 C   0  0  0  0  0  0  0  0  0  0  0  0
    0.2552   -5.6074   30.6778 C   0  0  0  0  0  0  0  0  0  0  0  0
   -0.4612   -6.7406   31.1244 C   0  0  0  0  0  0  0  0  0  0  0  0
   -1.0789   -7.7163   30.4950 N   0  0  0  0  0  0  0  0  0  0  0  0
   -1.6527   -8.5260   31.4417 N   0  0  0  0  0  0  0  0  0  0  0  0
   -1.3630   -8.0246   32.6178 C   0  0  0  0  0  0  0  0  0  0  0  0
   -0.5848   -6.9122   32.4927 N   0  0  0  0  0  0  0  0  0  0  0  0
   -0.1037   -6.0174   33.4638 C   0  0  0  0  0  0  0  0  0  0  0  0
   -0.0903   -6.4075   34.7809 N   0  0  0  0  0  0  0  0  0  0  0  0
    0.7902   -5.9063   35.9792 C   0  0  0  0  0  0  0  0  0  0  0  0
    1.5555   -5.0572   36.0290 O   0  0  0  0  0  0  0  0  0  0  0  0
    0.3913   -6.9715   37.0537 N   0  0  0  0  0  0  0  0  0  0  0  0
    0.9144   -7.2178   38.2883 C   0  0  0  0  0  0  0  0  0  0  0  0
    2.0413   -6.6493   38.9143 C   0  0  0  0  0  0  0  0  0  0  0  0
    2.2856   -7.1997   40.1082 N   0  0  0  0  0  0  0  0  0  0  0  0
    1.2859   -8.0834   40.2602 N   0  0  0  0  0  0  0  0  0  0  0  0
    0.4552   -8.1537   39.1776 C   0  0  0  0  0  0  0  0  0  0  0  0
   -0.4488    0.1887   31.5905 C   0  0  0  0  0  0  0  0  0  0  0  0
   -1.3848   -0.4273   30.7040 C   0  0  0  0  0  0  0  0  0  0  0  0
   -0.8553   -0.2473   29.4474 C   0  0  0  0  0  0  0  0  0  0  0  0
   -1.2192   -0.6522   28.0789 C   0  0  0  0  0  0  0  0  0  0  0  0
    0.2808    0.4786   29.5507 O   0  0  0  0  0  0  0  0  0  0  0  0
    0.5295    0.7634   30.8660 N   0  0  0  0  0  0  0  0  0  0  0  0
   -2.7125    2.4548   36.3361 H   0  0  0  0  0  0  0  0  0  0  0  0
   -2.1578    4.1696   36.3220 H   0  0  0  0  0  0  0  0  0  0  0  0
   -3.2789    3.5742   35.0813 H   0  0  0  0  0  0  0  0  0  0  0  0
    1.4706    3.1274   34.3416 H   0  0  0  0  0  0  0  0  0  0  0  0
    1.5912    1.5031   35.0556 H   0  0  0  0  0  0  0  0  0  0  0  0
    0.8185    1.9661   32.4382 H   0  0  0  0  0  0  0  0  0  0  0  0
   -2.6402   -1.3623   33.1967 H   0  0  0  0  0  0  0  0  0  0  0  0
   -2.0064   -1.9449   34.7104 H   0  0  0  0  0  0  0  0  0  0  0  0
   -1.8051   -3.4828   32.7585 H   0  0  0  0  0  0  0  0  0  0  0  0
   -0.6215   -2.4323   32.0367 H   0  0  0  0  0  0  0  0  0  0  0  0
   -0.2004   -3.6610   34.7815 H   0  0  0  0  0  0  0  0  0  0  0  0
    1.0388   -2.9068   33.7640 H   0  0  0  0  0  0  0  0  0  0  0  0
    1.1925   -3.8055   31.2555 H   0  0  0  0  0  0  0  0  0  0  0  0
    0.4716   -5.4761   29.6271 H   0  0  0  0  0  0  0  0  0  0  0  0
   -1.7308   -8.3811   33.5615 H   0  0  0  0  0  0  0  0  0  0  0  0
   -0.5990   -7.2302   35.0551 H   0  0  0  0  0  0  0  0  0  0  0  0
   -0.3742   -7.5231   36.7146 H   0  0  0  0  0  0  0  0  0  0  0  0
    2.7009   -5.8740   38.5441 H   0  0  0  0  0  0  0  0  0  0  0  0
    1.2505   -8.6265   41.1173 H   0  0  0  0  0  0  0  0  0  0  0  0
   -0.3515   -8.8687   39.1572 H   0  0  0  0  0  0  0  0  0  0  0  0
   -2.2982   -0.9465   30.9431 H   0  0  0  0  0  0  0  0  0  0  0  0
   -1.2149    0.2080   27.4026 H   0  0  0  0  0  0  0  0  0  0  0  0
   -0.5052   -1.3921   27.7076 H   0  0  0  0  0  0  0  0  0  0  0  0
   -2.2178   -1.0987   28.0551 H   0  0  0  0  0  0  0  0  0  0  0  0
  1  2  1  0
  2  3  1  0
  3  4  2  0
  3  5  1  0
  5  6  1  0
  6  7  1  0
  7  8  2  3
  8  9  1  0
  9 10  1  0
 10 11  1  0
 11 12  1  0
 12 13  1  0
 13 14  2  0
 14 15  1  0
 15 16  2  0
 16 17  1  0
 17 18  2  0
 18 19  1  0
 19 20  1  0
 20 21  1  0
 21 22  1  0
 22 23  2  0
 22 24  1  0
 24 25  1  0
 25 26  1  0
 26 27  2  0
 27 28  1  0
 28 29  1  0
  7 30  1  0
 30 31  1  0
 31 32  2  0
 32 33  1  0
 32 34  1  0
 34 35  1  0
 20 12  2  0
 29 25  2  0
 35 30  2  0
 19 15  1  0
  1 36  1  0
  1 37  1  0
  1 38  1  0
  5 39  1  0
  5 40  1  0
  6 41  1  0
  9 42  1  0
  9 43  1  0
 10 44  1  0
 10 45  1  0
 11 46  1  0
 11 47  1  0
 13 48  1  0
 14 49  1  0
 18 50  1  0
 21 51  1  0
 24 52  1  0
 26 53  1  0
 28 54  1  0
 29 55  1  0
 31 56  1  0
 33 57  1  0
 33 58  1  0
 33 59  1  0
M  END
>  <Energy>  (283) 
101.81360079261982

>  <compound_id>  (283) 
590

>  <target_id>  (283) 
1

>  <reference_id>  (283) 
59

>  <inspiration_ids>  (283) 
[59, 144]

>  <energy_score>  (283) 
-53.525938622370234

>  <distance_score>  (283) 
2.861728885252711

>  <path>  (283) 
/opt/xchem-fragalysis-2/maxwin/BulkDock/SCRATCH/505733/C590-P59/C590-P59.minimised.mol

>  <scratch_subdir>  (283) 
/opt/xchem-fragalysis-2/maxwin/BulkDock/SCRATCH/505733/C590-P59

>  <fragmenstein_runtime>  (283) 
7.302556753158569

>  <fragmenstein_outcome>  (283) 
too moved

>  <fragmenstein_mode>  (283) 
expansion

>  <fragmenstein_error>  (283) 


$$$$
C590-P144
     RDKit          3D

 59 62  0  0  0  0  0  0  0  0999 V2000
   -4.6521   -0.8838   37.4887 C   0  0  0  0  0  0  0  0  0  0  0  0
   -3.4161   -1.3114   36.9153 O   0  0  0  0  0  0  0  0  0  0  0  0
   -3.2885   -1.0097   35.5899 C   0  0  0  0  0  0  0  0  0  0  0  0
   -4.1531   -0.4746   34.9056 O   0  0  0  0  0  0  0  0  0  0  0  0
   -1.9155   -1.4326   35.0876 C   0  0  0  0  0  0  0  0  0  0  0  0
   -1.7350   -1.0472   33.7136 N   0  0  0  0  0  0  0  0  0  0  0  0
   -0.5983   -1.3965   32.7000 C   0  0  0  0  0  0  0  0  0  0  0  0
    0.4312   -2.0038   32.8559 N   0  0  0  0  0  0  0  0  0  0  0  0
    0.9160   -2.4486   34.1408 C   0  0  0  0  0  0  0  0  0  0  0  0
    2.2697   -3.1185   33.9038 C   0  0  0  0  0  0  0  0  0  0  0  0
    2.2132   -4.6470   34.0133 C   0  0  0  0  0  0  0  0  0  0  0  0
    1.1741   -5.4062   33.2019 C   0  0  0  0  0  0  0  0  0  0  0  0
    1.0489   -5.0324   31.7832 C   0  0  0  0  0  0  0  0  0  0  0  0
    0.1846   -5.6349   30.9488 C   0  0  0  0  0  0  0  0  0  0  0  0
   -0.6423   -6.6664   31.4457 C   0  0  0  0  0  0  0  0  0  0  0  0
   -1.4825   -7.4862   30.8566 N   0  0  0  0  0  0  0  0  0  0  0  0
   -2.0287   -8.2867   31.8249 N   0  0  0  0  0  0  0  0  0  0  0  0
   -1.5000   -7.9461   32.9777 C   0  0  0  0  0  0  0  0  0  0  0  0
   -0.5827   -6.9466   32.8004 N   0  0  0  0  0  0  0  0  0  0  0  0
    0.3388   -6.3648   33.6890 C   0  0  0  0  0  0  0  0  0  0  0  0
    0.3755   -6.8278   34.9824 N   0  0  0  0  0  0  0  0  0  0  0  0
    1.5957   -7.0885   35.9328 C   0  0  0  0  0  0  0  0  0  0  0  0
    2.7187   -7.0210   35.7277 O   0  0  0  0  0  0  0  0  0  0  0  0
    0.8294   -7.3651   37.2632 N   0  0  0  0  0  0  0  0  0  0  0  0
    1.2982   -7.6850   38.4989 C   0  0  0  0  0  0  0  0  0  0  0  0
    2.6187   -7.9325   38.9172 C   0  0  0  0  0  0  0  0  0  0  0  0
    2.6876   -8.2189   40.2216 N   0  0  0  0  0  0  0  0  0  0  0  0
    1.4072   -8.1364   40.6277 N   0  0  0  0  0  0  0  0  0  0  0  0
    0.5395   -7.7932   39.6331 C   0  0  0  0  0  0  0  0  0  0  0  0
   -0.8986   -0.8811   31.3695 C   0  0  0  0  0  0  0  0  0  0  0  0
   -0.2653   -1.2150   30.1461 C   0  0  0  0  0  0  0  0  0  0  0  0
   -0.8248   -0.3728   29.2248 C   0  0  0  0  0  0  0  0  0  0  0  0
   -0.6125   -0.1359   27.7887 C   0  0  0  0  0  0  0  0  0  0  0  0
   -1.7606    0.3927   29.8375 O   0  0  0  0  0  0  0  0  0  0  0  0
   -1.8368    0.0608   31.1789 N   0  0  0  0  0  0  0  0  0  0  0  0
   -4.6637   -1.1932   38.5374 H   0  0  0  0  0  0  0  0  0  0  0  0
   -4.7348    0.2067   37.4470 H   0  0  0  0  0  0  0  0  0  0  0  0
   -5.4977   -1.3567   36.9798 H   0  0  0  0  0  0  0  0  0  0  0  0
   -1.1561   -0.9487   35.7081 H   0  0  0  0  0  0  0  0  0  0  0  0
   -1.8490   -2.5185   35.1858 H   0  0  0  0  0  0  0  0  0  0  0  0
   -2.5043   -0.5896   33.2172 H   0  0  0  0  0  0  0  0  0  0  0  0
    0.2208   -3.1364   34.6303 H   0  0  0  0  0  0  0  0  0  0  0  0
    1.0657   -1.5825   34.7960 H   0  0  0  0  0  0  0  0  0  0  0  0
    2.7083   -2.8203   32.9437 H   0  0  0  0  0  0  0  0  0  0  0  0
    2.9696   -2.7660   34.6732 H   0  0  0  0  0  0  0  0  0  0  0  0
    2.0557   -4.8230   35.0793 H   0  0  0  0  0  0  0  0  0  0  0  0
    3.2050   -5.0475   33.7698 H   0  0  0  0  0  0  0  0  0  0  0  0
    1.6811   -4.2327   31.4050 H   0  0  0  0  0  0  0  0  0  0  0  0
    0.1038   -5.3451   29.9067 H   0  0  0  0  0  0  0  0  0  0  0  0
   -1.7202   -8.4033   33.9303 H   0  0  0  0  0  0  0  0  0  0  0  0
   -0.4815   -7.0571   35.4596 H   0  0  0  0  0  0  0  0  0  0  0  0
   -0.1577   -7.2755   37.1092 H   0  0  0  0  0  0  0  0  0  0  0  0
    3.5270   -7.9243   38.3283 H   0  0  0  0  0  0  0  0  0  0  0  0
    1.2009   -8.3169   41.6045 H   0  0  0  0  0  0  0  0  0  0  0  0
   -0.5102   -7.6694   39.8376 H   0  0  0  0  0  0  0  0  0  0  0  0
    0.5259   -1.9307   29.9854 H   0  0  0  0  0  0  0  0  0  0  0  0
   -0.4626    0.9297   27.5899 H   0  0  0  0  0  0  0  0  0  0  0  0
    0.2715   -0.6738   27.4361 H   0  0  0  0  0  0  0  0  0  0  0  0
   -1.4821   -0.4730   27.2181 H   0  0  0  0  0  0  0  0  0  0  0  0
  1  2  1  0
  2  3  1  0
  3  4  2  0
  3  5  1  0
  5  6  1  0
  6  7  1  0
  7  8  2  3
  8  9  1  0
  9 10  1  0
 10 11  1  0
 11 12  1  0
 12 13  1  0
 13 14  2  0
 14 15  1  0
 15 16  2  0
 16 17  1  0
 17 18  2  0
 18 19  1  0
 19 20  1  0
 20 21  1  0
 21 22  1  0
 22 23  2  0
 22 24  1  0
 24 25  1  0
 25 26  1  0
 26 27  2  0
 27 28  1  0
 28 29  1  0
  7 30  1  0
 30 31  1  0
 31 32  2  0
 32 33  1  0
 32 34  1  0
 34 35  1  0
 20 12  2  0
 29 25  2  0
 35 30  2  0
 19 15  1  0
  1 36  1  0
  1 37  1  0
  1 38  1  0
  5 39  1  0
  5 40  1  0
  6 41  1  0
  9 42  1  0
  9 43  1  0
 10 44  1  0
 10 45  1  0
 11 46  1  0
 11 47  1  0
 13 48  1  0
 14 49  1  0
 18 50  1  0
 21 51  1  0
 24 52  1  0
 26 53  1  0
 28 54  1  0
 29 55  1  0
 31 56  1  0
 33 57  1  0
 33 58  1  0
 33 59  1  0
M  END
>  <Energy>  (284) 
80.101028774858065

>  <compound_id>  (284) 
590

>  <target_id>  (284) 
1

>  <reference_id>  (284) 
144

>  <inspiration_ids>  (284) 
[59, 144]

>  <energy_score>  (284) 
-75.23851064012999

>  <distance_score>  (284) 
1.5680273004078094

>  <path>  (284) 
/opt/xchem-fragalysis-2/maxwin/BulkDock/SCRATCH/505733/C590-P144/C590-P144.minimised.mol

>  <scratch_subdir>  (284) 
/opt/xchem-fragalysis-2/maxwin/BulkDock/SCRATCH/505733/C590-P144

>  <fragmenstein_runtime>  (284) 
8.363188982009888

>  <fragmenstein_outcome>  (284) 
too moved

>  <fragmenstein_mode>  (284) 
expansion

>  <fragmenstein_error>  (284) 


$$$$
C593-P59
     RDKit          3D

 59 62  0  0  0  0  0  0  0  0999 V2000
   -6.3544   -0.7138   34.9590 C   0  0  0  0  0  0  0  0  0  0  0  0
   -5.2722   -1.5499   34.5401 O   0  0  0  0  0  0  0  0  0  0  0  0
   -4.4406   -0.9518   33.6434 C   0  0  0  0  0  0  0  0  0  0  0  0
   -4.5460    0.2114   33.2559 O   0  0  0  0  0  0  0  0  0  0  0  0
   -3.3684   -1.9172   33.1418 C   0  0  0  0  0  0  0  0  0  0  0  0
   -2.6038   -1.2510   32.1306 N   0  0  0  0  0  0  0  0  0  0  0  0
   -1.4108   -1.7584   31.2554 C   0  0  0  0  0  0  0  0  0  0  0  0
   -0.8036   -2.8052   31.2837 N   0  0  0  0  0  0  0  0  0  0  0  0
    0.4089   -2.9618   30.4475 C   0  0  0  0  0  0  0  0  0  0  0  0
    0.3727   -4.2495   29.6268 C   0  0  0  0  0  0  0  0  0  0  0  0
    1.3411   -5.3174   30.1375 C   0  0  0  0  0  0  0  0  0  0  0  0
    1.0157   -5.7034   31.5510 C   0  0  0  0  0  0  0  0  0  0  0  0
    1.7254   -5.1106   32.5367 C   0  0  0  0  0  0  0  0  0  0  0  0
    1.3935   -5.2568   33.9316 C   0  0  0  0  0  0  0  0  0  0  0  0
    0.3906   -6.0747   34.2908 C   0  0  0  0  0  0  0  0  0  0  0  0
    0.0461   -6.2886   35.9724 S   0  0  0  0  0  0  0  0  0  0  0  0
    0.8182   -7.9036   36.2647 C   0  0  0  0  0  0  0  0  0  0  0  0
    2.2518   -7.8975   36.7417 C   0  0  0  0  0  0  0  0  0  0  0  0
    2.5870   -8.3969   38.0120 C   0  0  0  0  0  0  0  0  0  0  0  0
    3.9140   -8.4408   38.4122 C   0  0  0  0  0  0  0  0  0  0  0  0
    4.9278   -8.0356   37.6310 N   0  0  0  0  0  0  0  0  0  0  0  0
    4.6015   -7.5792   36.4051 C   0  0  0  0  0  0  0  0  0  0  0  0
    3.3037   -7.4978   35.9193 C   0  0  0  0  0  0  0  0  0  0  0  0
   -0.3176   -6.7390   33.2792 N   0  0  0  0  0  0  0  0  0  0  0  0
   -1.3447   -7.6391   33.3158 C   0  0  0  0  0  0  0  0  0  0  0  0
   -1.6587   -8.0388   32.1031 N   0  0  0  0  0  0  0  0  0  0  0  0
   -0.8412   -7.3736   31.2229 N   0  0  0  0  0  0  0  0  0  0  0  0
   -0.0393   -6.5977   31.9256 C   0  0  0  0  0  0  0  0  0  0  0  0
   -1.1286   -0.6863   30.3278 C   0  0  0  0  0  0  0  0  0  0  0  0
   -1.3550   -0.6886   28.9387 C   0  0  0  0  0  0  0  0  0  0  0  0
   -0.7798    0.4811   28.5306 C   0  0  0  0  0  0  0  0  0  0  0  0
   -0.5524    1.0783   27.2183 C   0  0  0  0  0  0  0  0  0  0  0  0
   -0.3143    1.1729   29.6020 O   0  0  0  0  0  0  0  0  0  0  0  0
   -0.5729    0.4547   30.7546 N   0  0  0  0  0  0  0  0  0  0  0  0
   -5.9771    0.1848   35.4569 H   0  0  0  0  0  0  0  0  0  0  0  0
   -6.9590   -1.2780   35.6745 H   0  0  0  0  0  0  0  0  0  0  0  0
   -6.9865   -0.4520   34.1046 H   0  0  0  0  0  0  0  0  0  0  0  0
   -2.7231   -2.2003   33.9758 H   0  0  0  0  0  0  0  0  0  0  0  0
   -3.8700   -2.7771   32.6968 H   0  0  0  0  0  0  0  0  0  0  0  0
   -2.8149   -0.2825   31.8867 H   0  0  0  0  0  0  0  0  0  0  0  0
    1.2816   -2.9151   31.1052 H   0  0  0  0  0  0  0  0  0  0  0  0
    0.5907   -2.1500   29.7396 H   0  0  0  0  0  0  0  0  0  0  0  0
    0.6681   -4.0056   28.5987 H   0  0  0  0  0  0  0  0  0  0  0  0
   -0.6437   -4.6444   29.5732 H   0  0  0  0  0  0  0  0  0  0  0  0
    1.3198   -6.2098   29.5099 H   0  0  0  0  0  0  0  0  0  0  0  0
    2.3683   -4.9368   30.0587 H   0  0  0  0  0  0  0  0  0  0  0  0
    2.5323   -4.4149   32.3156 H   0  0  0  0  0  0  0  0  0  0  0  0
    1.9741   -4.6893   34.6545 H   0  0  0  0  0  0  0  0  0  0  0  0
    0.7487   -8.5261   35.3712 H   0  0  0  0  0  0  0  0  0  0  0  0
    0.1949   -8.4041   37.0151 H   0  0  0  0  0  0  0  0  0  0  0  0
    1.8180   -8.7475   38.6955 H   0  0  0  0  0  0  0  0  0  0  0  0
    4.1953   -8.8133   39.3927 H   0  0  0  0  0  0  0  0  0  0  0  0
    5.4457   -7.2683   35.7950 H   0  0  0  0  0  0  0  0  0  0  0  0
    3.1421   -7.1326   34.9145 H   0  0  0  0  0  0  0  0  0  0  0  0
   -1.8106   -7.9685   34.2316 H   0  0  0  0  0  0  0  0  0  0  0  0
   -1.7905   -1.4642   28.3228 H   0  0  0  0  0  0  0  0  0  0  0  0
    0.4748    0.8945   26.8941 H   0  0  0  0  0  0  0  0  0  0  0  0
   -1.2434    0.6617   26.4807 H   0  0  0  0  0  0  0  0  0  0  0  0
   -0.7119    2.1609   27.2464 H   0  0  0  0  0  0  0  0  0  0  0  0
  1  2  1  0
  2  3  1  0
  3  4  2  0
  3  5  1  0
  5  6  1  0
  6  7  1  0
  7  8  2  3
  8  9  1  0
  9 10  1  0
 10 11  1  0
 11 12  1  0
 12 13  2  0
 13 14  1  0
 14 15  2  0
 15 16  1  0
 16 17  1  0
 17 18  1  0
 18 19  2  0
 19 20  1  0
 20 21  2  0
 21 22  1  0
 22 23  2  0
 15 24  1  0
 24 25  1  0
 25 26  2  0
 26 27  1  0
 27 28  2  0
  7 29  1  0
 29 30  1  0
 30 31  2  0
 31 32  1  0
 31 33  1  0
 33 34  1  0
 28 12  1  0
 34 29  2  0
 23 18  1  0
 28 24  1  0
  1 35  1  0
  1 36  1  0
  1 37  1  0
  5 38  1  0
  5 39  1  0
  6 40  1  0
  9 41  1  0
  9 42  1  0
 10 43  1  0
 10 44  1  0
 11 45  1  0
 11 46  1  0
 13 47  1  0
 14 48  1  0
 17 49  1  0
 17 50  1  0
 19 51  1  0
 20 52  1  0
 22 53  1  0
 23 54  1  0
 25 55  1  0
 30 56  1  0
 32 57  1  0
 32 58  1  0
 32 59  1  0
M  END
>  <Energy>  (285) 
116.76804437988591

>  <compound_id>  (285) 
593

>  <target_id>  (285) 
1

>  <reference_id>  (285) 
59

>  <inspiration_ids>  (285) 
[59, 149]

>  <energy_score>  (285) 
-32.14783645660788

>  <distance_score>  (285) 
1.4948654357665592

>  <path>  (285) 
/opt/xchem-fragalysis-2/maxwin/BulkDock/SCRATCH/505733/C593-P59/C593-P59.minimised.mol

>  <scratch_subdir>  (285) 
/opt/xchem-fragalysis-2/maxwin/BulkDock/SCRATCH/505733/C593-P59

>  <fragmenstein_runtime>  (285) 
7.400809288024902

>  <fragmenstein_outcome>  (285) 
too moved

>  <fragmenstein_mode>  (285) 
expansion

>  <fragmenstein_error>  (285) 


$$$$
C593-P149
     RDKit          3D

 59 62  0  0  0  0  0  0  0  0999 V2000
   -1.6748   -2.9245   36.9967 C   0  0  0  0  0  0  0  0  0  0  0  0
   -2.5262   -1.8985   36.4701 O   0  0  0  0  0  0  0  0  0  0  0  0
   -2.3911   -1.4546   35.1924 C   0  0  0  0  0  0  0  0  0  0  0  0
   -3.1235   -0.5644   34.7581 O   0  0  0  0  0  0  0  0  0  0  0  0
   -1.2896   -2.0856   34.3447 C   0  0  0  0  0  0  0  0  0  0  0  0
   -1.1578   -1.3941   33.0928 N   0  0  0  0  0  0  0  0  0  0  0  0
   -0.3349   -1.7503   31.8189 C   0  0  0  0  0  0  0  0  0  0  0  0
    0.4436   -2.6456   31.6159 N   0  0  0  0  0  0  0  0  0  0  0  0
    1.1874   -2.8546   30.3783 C   0  0  0  0  0  0  0  0  0  0  0  0
    0.5546   -4.0136   29.6119 C   0  0  0  0  0  0  0  0  0  0  0  0
    1.0342   -5.3864   30.0780 C   0  0  0  0  0  0  0  0  0  0  0  0
    0.7198   -5.7672   31.4966 C   0  0  0  0  0  0  0  0  0  0  0  0
    1.4584   -5.2377   32.4929 C   0  0  0  0  0  0  0  0  0  0  0  0
    1.1776   -5.4712   33.8865 C   0  0  0  0  0  0  0  0  0  0  0  0
    0.2348   -6.3606   34.2426 C   0  0  0  0  0  0  0  0  0  0  0  0
   -0.1323   -6.7420   35.8872 S   0  0  0  0  0  0  0  0  0  0  0  0
    1.3147   -6.2977   36.8632 C   0  0  0  0  0  0  0  0  0  0  0  0
    2.4571   -7.2823   36.9311 C   0  0  0  0  0  0  0  0  0  0  0  0
    2.7015   -8.0075   38.1106 C   0  0  0  0  0  0  0  0  0  0  0  0
    3.8412   -8.7860   38.2230 C   0  0  0  0  0  0  0  0  0  0  0  0
    4.7432   -8.9074   37.2363 N   0  0  0  0  0  0  0  0  0  0  0  0
    4.4898   -8.2319   36.0963 C   0  0  0  0  0  0  0  0  0  0  0  0
    3.3813   -7.4200   35.8966 C   0  0  0  0  0  0  0  0  0  0  0  0
   -0.4944   -6.9761   33.2082 N   0  0  0  0  0  0  0  0  0  0  0  0
   -1.4938   -7.9119   33.2147 C   0  0  0  0  0  0  0  0  0  0  0  0
   -1.8336   -8.2347   31.9859 N   0  0  0  0  0  0  0  0  0  0  0  0
   -1.0771   -7.4798   31.1301 N   0  0  0  0  0  0  0  0  0  0  0  0
   -0.2889   -6.7159   31.8590 C   0  0  0  0  0  0  0  0  0  0  0  0
   -0.6646   -0.7681   30.7914 C   0  0  0  0  0  0  0  0  0  0  0  0
   -1.1175   -0.9894   29.4694 C   0  0  0  0  0  0  0  0  0  0  0  0
   -1.0067    0.2368   28.8768 C   0  0  0  0  0  0  0  0  0  0  0  0
   -1.1698    0.7165   27.5033 C   0  0  0  0  0  0  0  0  0  0  0  0
   -0.6243    1.1530   29.7991 O   0  0  0  0  0  0  0  0  0  0  0  0
   -0.4708    0.5364   31.0270 N   0  0  0  0  0  0  0  0  0  0  0  0
   -1.7095   -3.8207   36.3730 H   0  0  0  0  0  0  0  0  0  0  0  0
   -2.0438   -3.1866   37.9922 H   0  0  0  0  0  0  0  0  0  0  0  0
   -0.6521   -2.5513   37.0970 H   0  0  0  0  0  0  0  0  0  0  0  0
   -0.3362   -2.0125   34.8736 H   0  0  0  0  0  0  0  0  0  0  0  0
   -1.5337   -3.1323   34.1528 H   0  0  0  0  0  0  0  0  0  0  0  0
   -1.7840   -0.6132   32.8849 H   0  0  0  0  0  0  0  0  0  0  0  0
    2.2347   -3.0730   30.6160 H   0  0  0  0  0  0  0  0  0  0  0  0
    1.2462   -1.9669   29.7417 H   0  0  0  0  0  0  0  0  0  0  0  0
    0.8248   -3.9072   28.5552 H   0  0  0  0  0  0  0  0  0  0  0  0
   -0.5389   -3.9708   29.6651 H   0  0  0  0  0  0  0  0  0  0  0  0
    0.5582   -6.1409   29.4607 H   0  0  0  0  0  0  0  0  0  0  0  0
    2.1079   -5.4688   29.8826 H   0  0  0  0  0  0  0  0  0  0  0  0
    2.2708   -4.5448   32.2902 H   0  0  0  0  0  0  0  0  0  0  0  0
    1.7659   -4.8854   34.5809 H   0  0  0  0  0  0  0  0  0  0  0  0
    0.9300   -6.1646   37.8829 H   0  0  0  0  0  0  0  0  0  0  0  0
    1.6986   -5.3051   36.6085 H   0  0  0  0  0  0  0  0  0  0  0  0
    2.0139   -7.9544   38.9508 H   0  0  0  0  0  0  0  0  0  0  0  0
    4.0543   -9.3446   39.1290 H   0  0  0  0  0  0  0  0  0  0  0  0
    5.2412   -8.3512   35.3197 H   0  0  0  0  0  0  0  0  0  0  0  0
    3.2891   -6.8786   34.9651 H   0  0  0  0  0  0  0  0  0  0  0  0
   -1.9175   -8.3261   34.1181 H   0  0  0  0  0  0  0  0  0  0  0  0
   -1.3788   -1.9166   28.9810 H   0  0  0  0  0  0  0  0  0  0  0  0
   -0.1970    0.9711   27.0755 H   0  0  0  0  0  0  0  0  0  0  0  0
   -1.6490   -0.0384   26.8748 H   0  0  0  0  0  0  0  0  0  0  0  0
   -1.7959    1.6141   27.4794 H   0  0  0  0  0  0  0  0  0  0  0  0
  1  2  1  0
  2  3  1  0
  3  4  2  0
  3  5  1  0
  5  6  1  0
  6  7  1  0
  7  8  2  3
  8  9  1  0
  9 10  1  0
 10 11  1  0
 11 12  1  0
 12 13  2  0
 13 14  1  0
 14 15  2  0
 15 16  1  0
 16 17  1  0
 17 18  1  0
 18 19  2  0
 19 20  1  0
 20 21  2  0
 21 22  1  0
 22 23  2  0
 15 24  1  0
 24 25  1  0
 25 26  2  0
 26 27  1  0
 27 28  2  0
  7 29  1  0
 29 30  1  0
 30 31  2  0
 31 32  1  0
 31 33  1  0
 33 34  1  0
 28 12  1  0
 34 29  2  0
 23 18  1  0
 28 24  1  0
  1 35  1  0
  1 36  1  0
  1 37  1  0
  5 38  1  0
  5 39  1  0
  6 40  1  0
  9 41  1  0
  9 42  1  0
 10 43  1  0
 10 44  1  0
 11 45  1  0
 11 46  1  0
 13 47  1  0
 14 48  1  0
 17 49  1  0
 17 50  1  0
 19 51  1  0
 20 52  1  0
 22 53  1  0
 23 54  1  0
 25 55  1  0
 30 56  1  0
 32 57  1  0
 32 58  1  0
 32 59  1  0
M  END
>  <Energy>  (286) 
125.04062779836286

>  <compound_id>  (286) 
593

>  <target_id>  (286) 
1

>  <reference_id>  (286) 
149

>  <inspiration_ids>  (286) 
[59, 149]

>  <energy_score>  (286) 
-23.87525303812913

>  <distance_score>  (286) 
2.1347842148079437

>  <path>  (286) 
/opt/xchem-fragalysis-2/maxwin/BulkDock/SCRATCH/505733/C593-P149/C593-P149.minimised.mol

>  <scratch_subdir>  (286) 
/opt/xchem-fragalysis-2/maxwin/BulkDock/SCRATCH/505733/C593-P149

>  <fragmenstein_runtime>  (286) 
9.464239358901978

>  <fragmenstein_outcome>  (286) 
too moved

>  <fragmenstein_mode>  (286) 
expansion

>  <fragmenstein_error>  (286) 


$$$$
C594-P59
     RDKit          3D

 59 62  0  0  0  0  0  0  0  0999 V2000
   -6.3754   -0.4070   35.2178 C   0  0  0  0  0  0  0  0  0  0  0  0
   -5.0367   -0.9065   35.3092 O   0  0  0  0  0  0  0  0  0  0  0  0
   -4.2086   -0.4019   34.3524 C   0  0  0  0  0  0  0  0  0  0  0  0
   -4.5375    0.4109   33.4899 O   0  0  0  0  0  0  0  0  0  0  0  0
   -2.7981   -0.9797   34.4740 C   0  0  0  0  0  0  0  0  0  0  0  0
   -2.0796   -0.6288   33.2798 N   0  0  0  0  0  0  0  0  0  0  0  0
   -0.7978   -1.2540   32.6434 C   0  0  0  0  0  0  0  0  0  0  0  0
   -0.0677   -2.1235   33.0460 N   0  0  0  0  0  0  0  0  0  0  0  0
   -0.1328   -2.7559   34.3376 C   0  0  0  0  0  0  0  0  0  0  0  0
    1.2642   -3.2591   34.7295 C   0  0  0  0  0  0  0  0  0  0  0  0
    2.0386   -4.0726   33.6720 C   0  0  0  0  0  0  0  0  0  0  0  0
    1.2031   -5.0390   32.8583 C   0  0  0  0  0  0  0  0  0  0  0  0
    0.9763   -4.6478   31.4596 C   0  0  0  0  0  0  0  0  0  0  0  0
    0.1958   -5.3569   30.6284 C   0  0  0  0  0  0  0  0  0  0  0  0
   -0.4515   -6.5164   31.1102 C   0  0  0  0  0  0  0  0  0  0  0  0
   -1.2914   -7.3618   30.5507 N   0  0  0  0  0  0  0  0  0  0  0  0
   -1.6788   -8.2613   31.5078 N   0  0  0  0  0  0  0  0  0  0  0  0
   -1.0495   -7.9468   32.6152 C   0  0  0  0  0  0  0  0  0  0  0  0
   -0.2225   -6.8759   32.4292 N   0  0  0  0  0  0  0  0  0  0  0  0
    0.6349   -6.1863   33.3061 C   0  0  0  0  0  0  0  0  0  0  0  0
    1.0235   -6.8496   34.8729 S   0  0  0  0  0  0  0  0  0  0  0  0
   -0.4694   -6.5088   35.8360 C   0  0  0  0  0  0  0  0  0  0  0  0
   -0.2578   -6.5493   37.3337 C   0  0  0  0  0  0  0  0  0  0  0  0
    0.1578   -7.7058   38.0148 C   0  0  0  0  0  0  0  0  0  0  0  0
    0.2420   -7.7023   39.4003 C   0  0  0  0  0  0  0  0  0  0  0  0
   -0.0718   -6.6340   40.1501 N   0  0  0  0  0  0  0  0  0  0  0  0
   -0.4766   -5.5281   39.4909 C   0  0  0  0  0  0  0  0  0  0  0  0
   -0.5769   -5.4340   38.1094 C   0  0  0  0  0  0  0  0  0  0  0  0
   -0.6078   -0.6838   31.3254 C   0  0  0  0  0  0  0  0  0  0  0  0
   -0.5220   -1.3452   30.0795 C   0  0  0  0  0  0  0  0  0  0  0  0
   -0.4482   -0.3273   29.1648 C   0  0  0  0  0  0  0  0  0  0  0  0
   -0.3585   -0.2773   27.7005 C   0  0  0  0  0  0  0  0  0  0  0  0
   -0.4740    0.8634   29.8122 O   0  0  0  0  0  0  0  0  0  0  0  0
   -0.6125    0.6462   31.1676 N   0  0  0  0  0  0  0  0  0  0  0  0
   -6.9653   -0.8793   36.0083 H   0  0  0  0  0  0  0  0  0  0  0  0
   -6.3913    0.6764   35.3722 H   0  0  0  0  0  0  0  0  0  0  0  0
   -6.8187   -0.6708   34.2521 H   0  0  0  0  0  0  0  0  0  0  0  0
   -2.3161   -0.5505   35.3557 H   0  0  0  0  0  0  0  0  0  0  0  0
   -2.8781   -2.0641   34.5638 H   0  0  0  0  0  0  0  0  0  0  0  0
   -2.4973    0.0328   32.6217 H   0  0  0  0  0  0  0  0  0  0  0  0
   -0.4638   -2.0671   35.1210 H   0  0  0  0  0  0  0  0  0  0  0  0
   -0.8393   -3.5903   34.3045 H   0  0  0  0  0  0  0  0  0  0  0  0
    1.8855   -2.3941   34.9973 H   0  0  0  0  0  0  0  0  0  0  0  0
    1.1707   -3.8479   35.6492 H   0  0  0  0  0  0  0  0  0  0  0  0
    2.5456   -3.3621   33.0051 H   0  0  0  0  0  0  0  0  0  0  0  0
    2.8601   -4.6094   34.1637 H   0  0  0  0  0  0  0  0  0  0  0  0
    1.4575   -3.7416   31.0972 H   0  0  0  0  0  0  0  0  0  0  0  0
    0.0294   -5.0381   29.6066 H   0  0  0  0  0  0  0  0  0  0  0  0
   -1.1645   -8.4252   33.5672 H   0  0  0  0  0  0  0  0  0  0  0  0
   -1.2437   -7.2405   35.5823 H   0  0  0  0  0  0  0  0  0  0  0  0
   -0.8624   -5.5291   35.5487 H   0  0  0  0  0  0  0  0  0  0  0  0
    0.4000   -8.6159   37.4719 H   0  0  0  0  0  0  0  0  0  0  0  0
    0.5590   -8.5851   39.9480 H   0  0  0  0  0  0  0  0  0  0  0  0
   -0.7346   -4.6853   40.1271 H   0  0  0  0  0  0  0  0  0  0  0  0
   -0.9205   -4.5061   37.6650 H   0  0  0  0  0  0  0  0  0  0  0  0
   -0.5451   -2.4032   29.8760 H   0  0  0  0  0  0  0  0  0  0  0  0
   -1.2194   -0.7834   27.2554 H   0  0  0  0  0  0  0  0  0  0  0  0
    0.5592   -0.7708   27.3725 H   0  0  0  0  0  0  0  0  0  0  0  0
   -0.3424    0.7526   27.3307 H   0  0  0  0  0  0  0  0  0  0  0  0
  1  2  1  0
  2  3  1  0
  3  4  2  0
  3  5  1  0
  5  6  1  0
  6  7  1  0
  7  8  2  3
  8  9  1  0
  9 10  1  0
 10 11  1  0
 11 12  1  0
 12 13  1  0
 13 14  2  0
 14 15  1  0
 15 16  2  0
 16 17  1  0
 17 18  2  0
 18 19  1  0
 19 20  1  0
 20 21  1  0
 21 22  1  0
 22 23  1  0
 23 24  2  0
 24 25  1  0
 25 26  2  0
 26 27  1  0
 27 28  2  0
  7 29  1  0
 29 30  1  0
 30 31  2  0
 31 32  1  0
 31 33  1  0
 33 34  1  0
 20 12  2  0
 28 23  1  0
 34 29  2  0
 19 15  1  0
  1 35  1  0
  1 36  1  0
  1 37  1  0
  5 38  1  0
  5 39  1  0
  6 40  1  0
  9 41  1  0
  9 42  1  0
 10 43  1  0
 10 44  1  0
 11 45  1  0
 11 46  1  0
 13 47  1  0
 14 48  1  0
 18 49  1  0
 22 50  1  0
 22 51  1  0
 24 52  1  0
 25 53  1  0
 27 54  1  0
 28 55  1  0
 30 56  1  0
 32 57  1  0
 32 58  1  0
 32 59  1  0
M  END
>  <Energy>  (287) 
110.3329281790606

>  <compound_id>  (287) 
594

>  <target_id>  (287) 
1

>  <reference_id>  (287) 
59

>  <inspiration_ids>  (287) 
[59, 150]

>  <energy_score>  (287) 
-30.99745444188966

>  <distance_score>  (287) 
1.5249216661515523

>  <path>  (287) 
/opt/xchem-fragalysis-2/maxwin/BulkDock/SCRATCH/505733/C594-P59/C594-P59.minimised.mol

>  <scratch_subdir>  (287) 
/opt/xchem-fragalysis-2/maxwin/BulkDock/SCRATCH/505733/C594-P59

>  <fragmenstein_runtime>  (287) 
5.151593446731567

>  <fragmenstein_outcome>  (287) 
too moved

>  <fragmenstein_mode>  (287) 
expansion

>  <fragmenstein_error>  (287) 


$$$$
C594-P150
     RDKit          3D

 59 62  0  0  0  0  0  0  0  0999 V2000
   -1.5104    0.2197   38.0745 C   0  0  0  0  0  0  0  0  0  0  0  0
   -2.5711    0.1616   37.1117 O   0  0  0  0  0  0  0  0  0  0  0  0
   -2.3454    0.3223   35.7788 C   0  0  0  0  0  0  0  0  0  0  0  0
   -3.2929    0.3717   34.9977 O   0  0  0  0  0  0  0  0  0  0  0  0
   -0.8845    0.4537   35.3410 C   0  0  0  0  0  0  0  0  0  0  0  0
   -0.7478    0.3729   33.9124 N   0  0  0  0  0  0  0  0  0  0  0  0
   -0.7246   -0.8692   32.9594 C   0  0  0  0  0  0  0  0  0  0  0  0
   -0.7361   -2.0478   33.2087 N   0  0  0  0  0  0  0  0  0  0  0  0
   -0.8182   -2.6944   34.4875 C   0  0  0  0  0  0  0  0  0  0  0  0
    0.5635   -3.0599   35.0147 C   0  0  0  0  0  0  0  0  0  0  0  0
    1.4618   -3.8651   34.0602 C   0  0  0  0  0  0  0  0  0  0  0  0
    0.8563   -4.9578   33.1919 C   0  0  0  0  0  0  0  0  0  0  0  0
    1.0954   -4.7498   31.7466 C   0  0  0  0  0  0  0  0  0  0  0  0
    0.5541   -5.5281   30.7955 C   0  0  0  0  0  0  0  0  0  0  0  0
   -0.2518   -6.6203   31.1770 C   0  0  0  0  0  0  0  0  0  0  0  0
   -0.9048   -7.5223   30.4788 N   0  0  0  0  0  0  0  0  0  0  0  0
   -1.5554   -8.3383   31.3633 N   0  0  0  0  0  0  0  0  0  0  0  0
   -1.2896   -7.9132   32.5748 C   0  0  0  0  0  0  0  0  0  0  0  0
   -0.4526   -6.8274   32.5322 N   0  0  0  0  0  0  0  0  0  0  0  0
    0.0880   -6.0195   33.5583 C   0  0  0  0  0  0  0  0  0  0  0  0
   -0.5008   -6.3605   35.1516 S   0  0  0  0  0  0  0  0  0  0  0  0
    0.8760   -6.5035   36.2882 C   0  0  0  0  0  0  0  0  0  0  0  0
    0.3884   -6.5587   37.7264 C   0  0  0  0  0  0  0  0  0  0  0  0
    0.7591   -7.6005   38.5885 C   0  0  0  0  0  0  0  0  0  0  0  0
    0.2917   -7.6230   39.8934 C   0  0  0  0  0  0  0  0  0  0  0  0
   -0.5088   -6.6742   40.4039 N   0  0  0  0  0  0  0  0  0  0  0  0
   -0.8623   -5.6707   39.5739 C   0  0  0  0  0  0  0  0  0  0  0  0
   -0.4394   -5.5633   38.2565 C   0  0  0  0  0  0  0  0  0  0  0  0
   -0.6747   -0.4433   31.5678 C   0  0  0  0  0  0  0  0  0  0  0  0
   -0.8795   -1.2167   30.3972 C   0  0  0  0  0  0  0  0  0  0  0  0
   -0.6772   -0.3327   29.3709 C   0  0  0  0  0  0  0  0  0  0  0  0
   -0.6914   -0.4398   27.9081 C   0  0  0  0  0  0  0  0  0  0  0  0
   -0.3858    0.8898   29.8784 O   0  0  0  0  0  0  0  0  0  0  0  0
   -0.4029    0.8343   31.2568 N   0  0  0  0  0  0  0  0  0  0  0  0
   -0.8815   -0.6709   37.9932 H   0  0  0  0  0  0  0  0  0  0  0  0
   -0.9237    1.1344   37.9558 H   0  0  0  0  0  0  0  0  0  0  0  0
   -1.9638    0.2311   39.0695 H   0  0  0  0  0  0  0  0  0  0  0  0
   -0.5304    1.4382   35.6631 H   0  0  0  0  0  0  0  0  0  0  0  0
   -0.2636   -0.3067   35.8140 H   0  0  0  0  0  0  0  0  0  0  0  0
   -0.6446    1.2249   33.3613 H   0  0  0  0  0  0  0  0  0  0  0  0
   -1.3754   -2.1204   35.2288 H   0  0  0  0  0  0  0  0  0  0  0  0
   -1.3984   -3.6032   34.3533 H   0  0  0  0  0  0  0  0  0  0  0  0
    1.1036   -2.1414   35.2772 H   0  0  0  0  0  0  0  0  0  0  0  0
    0.4446   -3.6003   35.9573 H   0  0  0  0  0  0  0  0  0  0  0  0
    1.9492   -3.1190   33.4166 H   0  0  0  0  0  0  0  0  0  0  0  0
    2.2962   -4.2950   34.6281 H   0  0  0  0  0  0  0  0  0  0  0  0
    1.7016   -3.9007   31.4373 H   0  0  0  0  0  0  0  0  0  0  0  0
    0.7164   -5.3301   29.7424 H   0  0  0  0  0  0  0  0  0  0  0  0
   -1.6724   -8.3450   33.4881 H   0  0  0  0  0  0  0  0  0  0  0  0
    1.5718   -5.6670   36.2023 H   0  0  0  0  0  0  0  0  0  0  0  0
    1.4322   -7.4145   36.0424 H   0  0  0  0  0  0  0  0  0  0  0  0
    1.3964   -8.4063   38.2431 H   0  0  0  0  0  0  0  0  0  0  0  0
    0.5524   -8.4305   40.5699 H   0  0  0  0  0  0  0  0  0  0  0  0
   -1.5273   -4.9294   40.0092 H   0  0  0  0  0  0  0  0  0  0  0  0
   -0.7785   -4.7233   37.6606 H   0  0  0  0  0  0  0  0  0  0  0  0
   -1.1207   -2.2666   30.3258 H   0  0  0  0  0  0  0  0  0  0  0  0
   -1.1142   -1.3998   27.6010 H   0  0  0  0  0  0  0  0  0  0  0  0
    0.3289   -0.3582   27.5253 H   0  0  0  0  0  0  0  0  0  0  0  0
   -1.2956    0.3568   27.4635 H   0  0  0  0  0  0  0  0  0  0  0  0
  1  2  1  0
  2  3  1  0
  3  4  2  0
  3  5  1  0
  5  6  1  0
  6  7  1  0
  7  8  2  3
  8  9  1  0
  9 10  1  0
 10 11  1  0
 11 12  1  0
 12 13  1  0
 13 14  2  0
 14 15  1  0
 15 16  2  0
 16 17  1  0
 17 18  2  0
 18 19  1  0
 19 20  1  0
 20 21  1  0
 21 22  1  0
 22 23  1  0
 23 24  2  0
 24 25  1  0
 25 26  2  0
 26 27  1  0
 27 28  2  0
  7 29  1  0
 29 30  1  0
 30 31  2  0
 31 32  1  0
 31 33  1  0
 33 34  1  0
 20 12  2  0
 28 23  1  0
 34 29  2  0
 19 15  1  0
  1 35  1  0
  1 36  1  0
  1 37  1  0
  5 38  1  0
  5 39  1  0
  6 40  1  0
  9 41  1  0
  9 42  1  0
 10 43  1  0
 10 44  1  0
 11 45  1  0
 11 46  1  0
 13 47  1  0
 14 48  1  0
 18 49  1  0
 22 50  1  0
 22 51  1  0
 24 52  1  0
 25 53  1  0
 27 54  1  0
 28 55  1  0
 30 56  1  0
 32 57  1  0
 32 58  1  0
 32 59  1  0
M  END
>  <Energy>  (288) 
121.33447385841309

>  <compound_id>  (288) 
594

>  <target_id>  (288) 
1

>  <reference_id>  (288) 
150

>  <inspiration_ids>  (288) 
[59, 150]

>  <energy_score>  (288) 
-19.995908762538875

>  <distance_score>  (288) 
2.2162835221130535

>  <path>  (288) 
/opt/xchem-fragalysis-2/maxwin/BulkDock/SCRATCH/505733/C594-P150/C594-P150.minimised.mol

>  <scratch_subdir>  (288) 
/opt/xchem-fragalysis-2/maxwin/BulkDock/SCRATCH/505733/C594-P150

>  <fragmenstein_runtime>  (288) 
5.921441078186035

>  <fragmenstein_outcome>  (288) 
too moved

>  <fragmenstein_mode>  (288) 
expansion

>  <fragmenstein_error>  (288) 


$$$$
C595-P59
     RDKit          3D

 56 60  0  0  0  0  0  0  0  0999 V2000
   -2.5874   -1.5207   36.4207 C   0  0  0  0  0  0  0  0  0  0  0  0
   -1.6206   -0.7287   35.7334 O   0  0  0  0  0  0  0  0  0  0  0  0
   -0.3298   -1.1432   35.8987 C   0  0  0  0  0  0  0  0  0  0  0  0
    0.0196   -2.0715   36.6240 O   0  0  0  0  0  0  0  0  0  0  0  0
    0.6178   -0.2683   35.0857 C   0  0  0  0  0  0  0  0  0  0  0  0
    0.2336   -0.2224   33.7010 N   0  0  0  0  0  0  0  0  0  0  0  0
    0.6130   -1.1620   32.5052 C   0  0  0  0  0  0  0  0  0  0  0  0
    1.3771   -2.0933   32.4521 N   0  0  0  0  0  0  0  0  0  0  0  0
    2.1314   -2.6387   33.5463 C   0  0  0  0  0  0  0  0  0  0  0  0
    2.5660   -4.0618   33.1842 C   0  0  0  0  0  0  0  0  0  0  0  0
    1.5404   -4.9920   32.5439 C   0  0  0  0  0  0  0  0  0  0  0  0
    1.9053   -5.4913   31.2152 C   0  0  0  0  0  0  0  0  0  0  0  0
    1.1501   -6.3765   30.5446 C   0  0  0  0  0  0  0  0  0  0  0  0
   -0.0046   -6.9209   31.1483 C   0  0  0  0  0  0  0  0  0  0  0  0
   -0.8895   -7.8110   30.7502 N   0  0  0  0  0  0  0  0  0  0  0  0
   -1.7359   -8.0506   31.8028 N   0  0  0  0  0  0  0  0  0  0  0  0
   -1.3529   -7.2817   32.7993 C   0  0  0  0  0  0  0  0  0  0  0  0
   -0.3279   -6.4586   32.4123 N   0  0  0  0  0  0  0  0  0  0  0  0
    0.3631   -5.4197   33.0678 C   0  0  0  0  0  0  0  0  0  0  0  0
   -0.3894   -4.6197   34.4068 S   0  0  0  0  0  0  0  0  0  0  0  0
    0.0748   -5.5627   35.7784 C   0  0  0  0  0  0  0  0  0  0  0  0
    0.2981   -6.8123   35.5570 N   0  0  0  0  0  0  0  0  0  0  0  0
    0.6202   -7.6248   36.6131 C   0  0  0  0  0  0  0  0  0  0  0  0
    0.7537   -8.8275   36.4630 O   0  0  0  0  0  0  0  0  0  0  0  0
    0.7677   -6.9326   37.8662 C   0  0  0  0  0  0  0  0  0  0  0  0
    1.2560   -7.6859   39.3006 S   0  0  0  0  0  0  0  0  0  0  0  0
    1.0522   -6.2316   40.1826 C   0  0  0  0  0  0  0  0  0  0  0  0
    0.6549   -5.1847   39.3756 C   0  0  0  0  0  0  0  0  0  0  0  0
    0.5069   -5.5996   38.0326 C   0  0  0  0  0  0  0  0  0  0  0  0
    0.1277   -4.8762   36.9649 N   0  0  0  0  0  0  0  0  0  0  0  0
   -0.0945   -0.7659   31.2934 C   0  0  0  0  0  0  0  0  0  0  0  0
   -0.0204   -1.3476   30.0024 C   0  0  0  0  0  0  0  0  0  0  0  0
   -0.7700   -0.5203   29.2112 C   0  0  0  0  0  0  0  0  0  0  0  0
   -1.0376   -0.4549   27.7676 C   0  0  0  0  0  0  0  0  0  0  0  0
   -1.3340    0.4390   29.9822 O   0  0  0  0  0  0  0  0  0  0  0  0
   -0.9320    0.2840   31.2952 N   0  0  0  0  0  0  0  0  0  0  0  0
   -2.4901   -2.5736   36.1438 H   0  0  0  0  0  0  0  0  0  0  0  0
   -3.5826   -1.1764   36.1265 H   0  0  0  0  0  0  0  0  0  0  0  0
   -2.4790   -1.3947   37.5022 H   0  0  0  0  0  0  0  0  0  0  0  0
    0.5775    0.7403   35.5119 H   0  0  0  0  0  0  0  0  0  0  0  0
    1.6461   -0.6127   35.2136 H   0  0  0  0  0  0  0  0  0  0  0  0
   -0.3869    0.5159   33.3685 H   0  0  0  0  0  0  0  0  0  0  0  0
    3.0258   -2.0323   33.7311 H   0  0  0  0  0  0  0  0  0  0  0  0
    1.5664   -2.6696   34.4764 H   0  0  0  0  0  0  0  0  0  0  0  0
    2.9567   -4.5507   34.0870 H   0  0  0  0  0  0  0  0  0  0  0  0
    3.4383   -3.9710   32.5223 H   0  0  0  0  0  0  0  0  0  0  0  0
    2.8022   -5.0977   30.7428 H   0  0  0  0  0  0  0  0  0  0  0  0
    1.4590   -6.7245   29.5705 H   0  0  0  0  0  0  0  0  0  0  0  0
   -1.7587   -7.2911   33.7984 H   0  0  0  0  0  0  0  0  0  0  0  0
    1.2417   -6.2136   41.2477 H   0  0  0  0  0  0  0  0  0  0  0  0
    0.4811   -4.1823   39.7469 H   0  0  0  0  0  0  0  0  0  0  0  0
   -0.0045   -3.8615   36.9560 H   0  0  0  0  0  0  0  0  0  0  0  0
    0.5655   -2.1997   29.6928 H   0  0  0  0  0  0  0  0  0  0  0  0
   -1.6357    0.4243   27.5083 H   0  0  0  0  0  0  0  0  0  0  0  0
   -0.0957   -0.3965   27.2174 H   0  0  0  0  0  0  0  0  0  0  0  0
   -1.5878   -1.3432   27.4465 H   0  0  0  0  0  0  0  0  0  0  0  0
  1  2  1  0
  2  3  1  0
  3  4  2  0
  3  5  1  0
  5  6  1  0
  6  7  1  0
  7  8  2  3
  8  9  1  0
  9 10  1  0
 10 11  1  0
 11 12  1  0
 12 13  2  0
 13 14  1  0
 14 15  2  0
 15 16  1  0
 16 17  2  0
 17 18  1  0
 18 19  1  0
 19 20  1  0
 20 21  1  0
 21 22  2  0
 22 23  1  0
 23 24  2  0
 23 25  1  0
 25 26  1  0
 26 27  1  0
 27 28  2  0
 28 29  1  0
 29 30  1  0
  7 31  1  0
 31 32  1  0
 32 33  2  0
 33 34  1  0
 33 35  1  0
 35 36  1  0
 19 11  2  0
 30 21  1  0
 36 31  2  0
 18 14  1  0
 29 25  2  0
  1 37  1  0
  1 38  1  0
  1 39  1  0
  5 40  1  0
  5 41  1  0
  6 42  1  0
  9 43  1  0
  9 44  1  0
 10 45  1  0
 10 46  1  0
 12 47  1  0
 13 48  1  0
 17 49  1  0
 27 50  1  0
 28 51  1  0
 30 52  1  0
 32 53  1  0
 34 54  1  0
 34 55  1  0
 34 56  1  0
M  END
>  <Energy>  (289) 
37.138235725319397

>  <compound_id>  (289) 
595

>  <target_id>  (289) 
1

>  <reference_id>  (289) 
59

>  <inspiration_ids>  (289) 
[59, 153]

>  <energy_score>  (289) 
-83.31819014635693

>  <distance_score>  (289) 
2.5494534340946258

>  <path>  (289) 
/opt/xchem-fragalysis-2/maxwin/BulkDock/SCRATCH/505733/C595-P59/C595-P59.minimised.mol

>  <scratch_subdir>  (289) 
/opt/xchem-fragalysis-2/maxwin/BulkDock/SCRATCH/505733/C595-P59

>  <fragmenstein_runtime>  (289) 
7.798853874206543

>  <fragmenstein_outcome>  (289) 
too moved

>  <fragmenstein_mode>  (289) 
expansion

>  <fragmenstein_error>  (289) 


$$$$
C595-P153
     RDKit          3D

 56 60  0  0  0  0  0  0  0  0999 V2000
   -0.6811   -1.0262   38.3213 C   0  0  0  0  0  0  0  0  0  0  0  0
    0.0660   -0.3410   37.3150 O   0  0  0  0  0  0  0  0  0  0  0  0
   -0.3110   -0.6411   36.0331 C   0  0  0  0  0  0  0  0  0  0  0  0
   -1.1769   -1.4550   35.7462 O   0  0  0  0  0  0  0  0  0  0  0  0
    0.5394    0.1748   35.0674 C   0  0  0  0  0  0  0  0  0  0  0  0
    0.0877    0.1300   33.7020 N   0  0  0  0  0  0  0  0  0  0  0  0
    0.3444   -0.9287   32.5781 C   0  0  0  0  0  0  0  0  0  0  0  0
    1.0435   -1.9100   32.5715 N   0  0  0  0  0  0  0  0  0  0  0  0
    1.7564   -2.4506   33.6917 C   0  0  0  0  0  0  0  0  0  0  0  0
    2.2319   -3.8580   33.3214 C   0  0  0  0  0  0  0  0  0  0  0  0
    1.2635   -4.7668   32.5734 C   0  0  0  0  0  0  0  0  0  0  0  0
    1.6181   -5.0742   31.1849 C   0  0  0  0  0  0  0  0  0  0  0  0
    0.9278   -5.9607   30.4481 C   0  0  0  0  0  0  0  0  0  0  0  0
   -0.1131   -6.7106   31.0443 C   0  0  0  0  0  0  0  0  0  0  0  0
   -0.8710   -7.6940   30.6085 N   0  0  0  0  0  0  0  0  0  0  0  0
   -1.6443   -8.1170   31.6613 N   0  0  0  0  0  0  0  0  0  0  0  0
   -1.3512   -7.3635   32.6992 C   0  0  0  0  0  0  0  0  0  0  0  0
   -0.4534   -6.3892   32.3467 N   0  0  0  0  0  0  0  0  0  0  0  0
    0.1352   -5.3354   33.0660 C   0  0  0  0  0  0  0  0  0  0  0  0
   -0.6806   -4.7093   34.4557 S   0  0  0  0  0  0  0  0  0  0  0  0
    0.0082   -5.5742   35.7736 C   0  0  0  0  0  0  0  0  0  0  0  0
    0.7747   -6.5593   35.4650 N   0  0  0  0  0  0  0  0  0  0  0  0
    1.3402   -7.2892   36.4705 C   0  0  0  0  0  0  0  0  0  0  0  0
    2.0944   -8.2068   36.2003 O   0  0  0  0  0  0  0  0  0  0  0  0
    0.9922   -6.8557   37.7966 C   0  0  0  0  0  0  0  0  0  0  0  0
    1.5564   -7.5957   39.2094 S   0  0  0  0  0  0  0  0  0  0  0  0
    0.5977   -6.5593   40.1837 C   0  0  0  0  0  0  0  0  0  0  0  0
   -0.1077   -5.6410   39.4321 C   0  0  0  0  0  0  0  0  0  0  0  0
    0.1506   -5.8060   38.0513 C   0  0  0  0  0  0  0  0  0  0  0  0
   -0.3491   -5.1128   37.0137 N   0  0  0  0  0  0  0  0  0  0  0  0
   -0.3251   -0.5602   31.3373 C   0  0  0  0  0  0  0  0  0  0  0  0
   -0.2567   -1.2287   30.0880 C   0  0  0  0  0  0  0  0  0  0  0  0
   -0.8483   -0.3645   29.2089 C   0  0  0  0  0  0  0  0  0  0  0  0
   -0.9820   -0.3411   27.7457 C   0  0  0  0  0  0  0  0  0  0  0  0
   -1.3560    0.6882   29.8940 O   0  0  0  0  0  0  0  0  0  0  0  0
   -1.0508    0.5654   31.2389 N   0  0  0  0  0  0  0  0  0  0  0  0
   -1.7469   -0.7921   38.2365 H   0  0  0  0  0  0  0  0  0  0  0  0
   -0.3280   -0.6836   39.2978 H   0  0  0  0  0  0  0  0  0  0  0  0
   -0.5136   -2.1053   38.2511 H   0  0  0  0  0  0  0  0  0  0  0  0
    0.4946    1.2192   35.3961 H   0  0  0  0  0  0  0  0  0  0  0  0
    1.5795   -0.1510   35.1439 H   0  0  0  0  0  0  0  0  0  0  0  0
   -0.5000    0.8769   33.3355 H   0  0  0  0  0  0  0  0  0  0  0  0
    2.6330   -1.8369   33.9282 H   0  0  0  0  0  0  0  0  0  0  0  0
    1.1367   -2.5007   34.5887 H   0  0  0  0  0  0  0  0  0  0  0  0
    2.5606   -4.3694   34.2361 H   0  0  0  0  0  0  0  0  0  0  0  0
    3.1512   -3.7513   32.7285 H   0  0  0  0  0  0  0  0  0  0  0  0
    2.4234   -4.5057   30.7260 H   0  0  0  0  0  0  0  0  0  0  0  0
    1.1925   -6.1394   29.4171 H   0  0  0  0  0  0  0  0  0  0  0  0
   -1.7319   -7.4908   33.7015 H   0  0  0  0  0  0  0  0  0  0  0  0
    0.6008   -6.6741   41.2593 H   0  0  0  0  0  0  0  0  0  0  0  0
   -0.7723   -4.9043   39.8664 H   0  0  0  0  0  0  0  0  0  0  0  0
   -1.0167   -4.3502   37.0667 H   0  0  0  0  0  0  0  0  0  0  0  0
    0.2601   -2.1476   29.8572 H   0  0  0  0  0  0  0  0  0  0  0  0
   -0.0011   -0.4821   27.2867 H   0  0  0  0  0  0  0  0  0  0  0  0
   -1.6517   -1.1381   27.4118 H   0  0  0  0  0  0  0  0  0  0  0  0
   -1.3827    0.6139   27.3924 H   0  0  0  0  0  0  0  0  0  0  0  0
  1  2  1  0
  2  3  1  0
  3  4  2  0
  3  5  1  0
  5  6  1  0
  6  7  1  0
  7  8  2  3
  8  9  1  0
  9 10  1  0
 10 11  1  0
 11 12  1  0
 12 13  2  0
 13 14  1  0
 14 15  2  0
 15 16  1  0
 16 17  2  0
 17 18  1  0
 18 19  1  0
 19 20  1  0
 20 21  1  0
 21 22  2  0
 22 23  1  0
 23 24  2  0
 23 25  1  0
 25 26  1  0
 26 27  1  0
 27 28  2  0
 28 29  1  0
 29 30  1  0
  7 31  1  0
 31 32  1  0
 32 33  2  0
 33 34  1  0
 33 35  1  0
 35 36  1  0
 19 11  2  0
 30 21  1  0
 36 31  2  0
 18 14  1  0
 29 25  2  0
  1 37  1  0
  1 38  1  0
  1 39  1  0
  5 40  1  0
  5 41  1  0
  6 42  1  0
  9 43  1  0
  9 44  1  0
 10 45  1  0
 10 46  1  0
 12 47  1  0
 13 48  1  0
 17 49  1  0
 27 50  1  0
 28 51  1  0
 30 52  1  0
 32 53  1  0
 34 54  1  0
 34 55  1  0
 34 56  1  0
M  END
>  <Energy>  (290) 
45.672593898675679

>  <compound_id>  (290) 
595

>  <target_id>  (290) 
1

>  <reference_id>  (290) 
153

>  <inspiration_ids>  (290) 
[59, 153]

>  <energy_score>  (290) 
-74.78383197299866

>  <distance_score>  (290) 
2.71410744541139

>  <path>  (290) 
/opt/xchem-fragalysis-2/maxwin/BulkDock/SCRATCH/505733/C595-P153/C595-P153.minimised.mol

>  <scratch_subdir>  (290) 
/opt/xchem-fragalysis-2/maxwin/BulkDock/SCRATCH/505733/C595-P153

>  <fragmenstein_runtime>  (290) 
6.791995286941528

>  <fragmenstein_outcome>  (290) 
too moved

>  <fragmenstein_mode>  (290) 
expansion

>  <fragmenstein_error>  (290) 


$$$$
C599-P59
     RDKit          3D

 52 56  0  0  0  0  0  0  0  0999 V2000
   -7.6305   -0.5691   34.8209 C   0  0  0  0  0  0  0  0  0  0  0  0
   -6.5192    0.2955   35.0750 O   0  0  0  0  0  0  0  0  0  0  0  0
   -5.4536    0.2548   34.2419 C   0  0  0  0  0  0  0  0  0  0  0  0
   -4.7255    1.2355   34.0672 O   0  0  0  0  0  0  0  0  0  0  0  0
   -5.1435   -1.0866   33.5856 C   0  0  0  0  0  0  0  0  0  0  0  0
   -3.8085   -0.9938   33.0403 N   0  0  0  0  0  0  0  0  0  0  0  0
   -3.0086   -1.9894   32.1623 C   0  0  0  0  0  0  0  0  0  0  0  0
   -3.2753   -3.0681   31.8092 O   0  0  0  0  0  0  0  0  0  0  0  0
   -1.6625   -1.2986   31.9026 C   0  0  0  0  0  0  0  0  0  0  0  0
   -0.7826   -1.8841   30.8357 C   0  0  0  0  0  0  0  0  0  0  0  0
    0.1183   -0.6837   30.5292 C   0  0  0  0  0  0  0  0  0  0  0  0
    0.9703   -0.9119   29.2572 C   0  0  0  0  0  0  0  0  0  0  0  0
    2.1161   -1.9569   29.4677 C   0  0  0  0  0  0  0  0  0  0  0  0
    2.4652   -2.1517   30.9181 C   0  0  0  0  0  0  0  0  0  0  0  0
    2.9171   -3.3240   31.4488 N   0  0  0  0  0  0  0  0  0  0  0  0
    2.5290   -3.3057   32.7094 C   0  0  0  0  0  0  0  0  0  0  0  0
    2.1554   -4.6745   33.7295 S   0  0  0  0  0  0  0  0  0  0  0  0
    1.3007   -5.6567   32.5599 C   0  0  0  0  0  0  0  0  0  0  0  0
    1.8029   -5.8409   31.3248 C   0  0  0  0  0  0  0  0  0  0  0  0
    1.0934   -6.6091   30.3380 C   0  0  0  0  0  0  0  0  0  0  0  0
   -0.0338   -7.2680   30.6371 C   0  0  0  0  0  0  0  0  0  0  0  0
   -0.5463   -7.1757   31.9488 C   0  0  0  0  0  0  0  0  0  0  0  0
   -1.5636   -7.7711   32.5205 N   0  0  0  0  0  0  0  0  0  0  0  0
   -1.6014   -7.3508   33.8268 N   0  0  0  0  0  0  0  0  0  0  0  0
   -0.6147   -6.5023   34.0130 C   0  0  0  0  0  0  0  0  0  0  0  0
    0.1174   -6.3595   32.8653 N   0  0  0  0  0  0  0  0  0  0  0  0
    2.1611   -2.0461   33.0979 N   0  0  0  0  0  0  0  0  0  0  0  0
    1.9819   -1.3576   31.9290 C   0  0  0  0  0  0  0  0  0  0  0  0
    1.0782   -0.2296   31.6916 C   0  0  0  0  0  0  0  0  0  0  0  0
   -0.8609    0.3469   30.4000 O   0  0  0  0  0  0  0  0  0  0  0  0
   -1.8563    0.0989   31.4680 N   0  0  0  0  0  0  0  0  0  0  0  0
   -8.5104   -0.1335   35.3017 H   0  0  0  0  0  0  0  0  0  0  0  0
   -7.8339   -0.6564   33.7501 H   0  0  0  0  0  0  0  0  0  0  0  0
   -7.4420   -1.5494   35.2658 H   0  0  0  0  0  0  0  0  0  0  0  0
   -5.1299   -1.8839   34.3314 H   0  0  0  0  0  0  0  0  0  0  0  0
   -5.8386   -1.3104   32.7769 H   0  0  0  0  0  0  0  0  0  0  0  0
   -3.3141   -0.1052   33.0836 H   0  0  0  0  0  0  0  0  0  0  0  0
   -1.1416   -1.3147   32.8692 H   0  0  0  0  0  0  0  0  0  0  0  0
   -1.3781   -2.1609   29.9552 H   0  0  0  0  0  0  0  0  0  0  0  0
   -0.2615   -2.7826   31.1754 H   0  0  0  0  0  0  0  0  0  0  0  0
    1.4181    0.0466   28.9612 H   0  0  0  0  0  0  0  0  0  0  0  0
    0.3430   -1.2044   28.4061 H   0  0  0  0  0  0  0  0  0  0  0  0
    3.0046   -1.6537   28.9039 H   0  0  0  0  0  0  0  0  0  0  0  0
    1.7849   -2.9203   29.0608 H   0  0  0  0  0  0  0  0  0  0  0  0
    2.7645   -5.4595   30.9985 H   0  0  0  0  0  0  0  0  0  0  0  0
    1.5776   -6.6747   29.3716 H   0  0  0  0  0  0  0  0  0  0  0  0
   -0.5433   -7.9046   29.9254 H   0  0  0  0  0  0  0  0  0  0  0  0
   -0.3865   -5.9924   34.9370 H   0  0  0  0  0  0  0  0  0  0  0  0
    1.7808   -1.8133   34.0038 H   0  0  0  0  0  0  0  0  0  0  0  0
    1.6403    0.6596   31.3787 H   0  0  0  0  0  0  0  0  0  0  0  0
    0.5548    0.0650   32.6059 H   0  0  0  0  0  0  0  0  0  0  0  0
   -1.5140    0.7330   32.1893 H   0  0  0  0  0  0  0  0  0  0  0  0
  1  2  1  0
  2  3  1  0
  3  4  2  0
  3  5  1  0
  5  6  1  0
  6  7  1  0
  7  8  2  0
  7  9  1  0
  9 10  1  0
 10 11  1  0
 11 12  1  0
 12 13  1  0
 13 14  1  0
 14 15  1  0
 15 16  2  0
 16 17  1  0
 17 18  1  0
 18 19  2  0
 19 20  1  0
 20 21  2  0
 21 22  1  0
 22 23  2  0
 23 24  1  0
 24 25  2  0
 25 26  1  0
 16 27  1  0
 27 28  1  0
 28 29  1  0
 11 30  1  0
 30 31  1  0
 31  9  1  0
 29 11  1  0
 28 14  2  0
 26 18  1  0
 26 22  1  0
  1 32  1  0
  1 33  1  0
  1 34  1  0
  5 35  1  0
  5 36  1  0
  6 37  1  0
  9 38  1  0
 10 39  1  0
 10 40  1  0
 12 41  1  0
 12 42  1  0
 13 43  1  0
 13 44  1  0
 19 45  1  0
 20 46  1  0
 21 47  1  0
 25 48  1  0
 27 49  1  0
 29 50  1  0
 29 51  1  0
 31 52  1  0
M  END
>  <Energy>  (291) 
144.22303182964592

>  <compound_id>  (291) 
599

>  <target_id>  (291) 
1

>  <reference_id>  (291) 
59

>  <inspiration_ids>  (291) 
[59, 157]

>  <energy_score>  (291) 
-48.513996467375534

>  <distance_score>  (291) 
1.3119907096044994

>  <path>  (291) 
/opt/xchem-fragalysis-2/maxwin/BulkDock/SCRATCH/505733/C599-P59/C599-P59.minimised.mol

>  <scratch_subdir>  (291) 
/opt/xchem-fragalysis-2/maxwin/BulkDock/SCRATCH/505733/C599-P59

>  <fragmenstein_runtime>  (291) 
4.096665382385254

>  <fragmenstein_outcome>  (291) 
too moved

>  <fragmenstein_mode>  (291) 
expansion

>  <fragmenstein_error>  (291) 


$$$$
C599-P157
     RDKit          3D

 52 56  0  0  0  0  0  0  0  0999 V2000
   -5.7813   -1.1166   35.8172 C   0  0  0  0  0  0  0  0  0  0  0  0
   -5.2731    0.1421   35.3644 O   0  0  0  0  0  0  0  0  0  0  0  0
   -4.5277    0.2206   34.2385 C   0  0  0  0  0  0  0  0  0  0  0  0
   -4.1835    1.3083   33.7732 O   0  0  0  0  0  0  0  0  0  0  0  0
   -4.1152   -1.0785   33.5689 C   0  0  0  0  0  0  0  0  0  0  0  0
   -3.2090   -0.8051   32.4707 N   0  0  0  0  0  0  0  0  0  0  0  0
   -2.5209   -1.7657   31.4740 C   0  0  0  0  0  0  0  0  0  0  0  0
   -2.5150   -2.9329   31.4291 O   0  0  0  0  0  0  0  0  0  0  0  0
   -1.7453   -0.8726   30.4189 C   0  0  0  0  0  0  0  0  0  0  0  0
   -0.7430    0.1261   30.9434 C   0  0  0  0  0  0  0  0  0  0  0  0
    0.4079   -0.7595   31.3820 C   0  0  0  0  0  0  0  0  0  0  0  0
    1.8227   -0.2468   31.0355 C   0  0  0  0  0  0  0  0  0  0  0  0
    2.9511   -1.2414   31.4766 C   0  0  0  0  0  0  0  0  0  0  0  0
    2.5798   -2.0285   32.6970 C   0  0  0  0  0  0  0  0  0  0  0  0
    3.1950   -3.1876   33.1110 N   0  0  0  0  0  0  0  0  0  0  0  0
    2.3157   -3.7593   33.9130 C   0  0  0  0  0  0  0  0  0  0  0  0
    2.1173   -5.4640   34.2031 S   0  0  0  0  0  0  0  0  0  0  0  0
    1.2344   -5.8207   32.7313 C   0  0  0  0  0  0  0  0  0  0  0  0
    1.6599   -5.3635   31.5320 C   0  0  0  0  0  0  0  0  0  0  0  0
    0.9055   -5.6348   30.3288 C   0  0  0  0  0  0  0  0  0  0  0  0
   -0.1638   -6.4427   30.3569 C   0  0  0  0  0  0  0  0  0  0  0  0
   -0.5898   -7.0002   31.5796 C   0  0  0  0  0  0  0  0  0  0  0  0
   -1.5688   -7.8255   31.8567 N   0  0  0  0  0  0  0  0  0  0  0  0
   -1.5911   -7.9798   33.2174 N   0  0  0  0  0  0  0  0  0  0  0  0
   -0.6062   -7.2764   33.7309 C   0  0  0  0  0  0  0  0  0  0  0  0
    0.0887   -6.6396   32.7378 N   0  0  0  0  0  0  0  0  0  0  0  0
    1.2808   -2.9229   34.2269 N   0  0  0  0  0  0  0  0  0  0  0  0
    1.3732   -1.8934   33.3378 C   0  0  0  0  0  0  0  0  0  0  0  0
    0.2804   -1.0063   32.9192 C   0  0  0  0  0  0  0  0  0  0  0  0
    0.2225   -1.9838   30.6460 O   0  0  0  0  0  0  0  0  0  0  0  0
   -0.8346   -1.7416   29.6729 N   0  0  0  0  0  0  0  0  0  0  0  0
   -6.4409   -0.9254   36.6683 H   0  0  0  0  0  0  0  0  0  0  0  0
   -6.3682   -1.6045   35.0338 H   0  0  0  0  0  0  0  0  0  0  0  0
   -4.9613   -1.7555   36.1555 H   0  0  0  0  0  0  0  0  0  0  0  0
   -3.5762   -1.7212   34.2676 H   0  0  0  0  0  0  0  0  0  0  0  0
   -4.9831   -1.5959   33.1540 H   0  0  0  0  0  0  0  0  0  0  0  0
   -3.0735    0.1534   32.1659 H   0  0  0  0  0  0  0  0  0  0  0  0
   -2.4567   -0.3842   29.7566 H   0  0  0  0  0  0  0  0  0  0  0  0
   -1.1104    0.7596   31.7535 H   0  0  0  0  0  0  0  0  0  0  0  0
   -0.4245    0.7953   30.1327 H   0  0  0  0  0  0  0  0  0  0  0  0
    1.9870    0.7152   31.5376 H   0  0  0  0  0  0  0  0  0  0  0  0
    1.9253   -0.0706   29.9578 H   0  0  0  0  0  0  0  0  0  0  0  0
    3.8815   -0.6904   31.6497 H   0  0  0  0  0  0  0  0  0  0  0  0
    3.1355   -1.9467   30.6570 H   0  0  0  0  0  0  0  0  0  0  0  0
    2.5587   -4.7683   31.4015 H   0  0  0  0  0  0  0  0  0  0  0  0
    1.2205   -5.1446   29.4123 H   0  0  0  0  0  0  0  0  0  0  0  0
   -0.7597   -6.6481   29.4808 H   0  0  0  0  0  0  0  0  0  0  0  0
   -0.3612   -7.2150   34.7813 H   0  0  0  0  0  0  0  0  0  0  0  0
    0.4581   -3.1980   34.7437 H   0  0  0  0  0  0  0  0  0  0  0  0
   -0.6686   -1.4796   33.1790 H   0  0  0  0  0  0  0  0  0  0  0  0
    0.3464   -0.0581   33.4661 H   0  0  0  0  0  0  0  0  0  0  0  0
   -1.2708   -2.6671   29.5793 H   0  0  0  0  0  0  0  0  0  0  0  0
  1  2  1  0
  2  3  1  0
  3  4  2  0
  3  5  1  0
  5  6  1  0
  6  7  1  0
  7  8  2  0
  7  9  1  0
  9 10  1  0
 10 11  1  0
 11 12  1  0
 12 13  1  0
 13 14  1  0
 14 15  1  0
 15 16  2  0
 16 17  1  0
 17 18  1  0
 18 19  2  0
 19 20  1  0
 20 21  2  0
 21 22  1  0
 22 23  2  0
 23 24  1  0
 24 25  2  0
 25 26  1  0
 16 27  1  0
 27 28  1  0
 28 29  1  0
 11 30  1  0
 30 31  1  0
 31  9  1  0
 29 11  1  0
 28 14  2  0
 26 18  1  0
 26 22  1  0
  1 32  1  0
  1 33  1  0
  1 34  1  0
  5 35  1  0
  5 36  1  0
  6 37  1  0
  9 38  1  0
 10 39  1  0
 10 40  1  0
 12 41  1  0
 12 42  1  0
 13 43  1  0
 13 44  1  0
 19 45  1  0
 20 46  1  0
 21 47  1  0
 25 48  1  0
 27 49  1  0
 29 50  1  0
 29 51  1  0
 31 52  1  0
M  END
>  <Energy>  (292) 
132.82645491347554

>  <compound_id>  (292) 
599

>  <target_id>  (292) 
1

>  <reference_id>  (292) 
157

>  <inspiration_ids>  (292) 
[59, 157]

>  <energy_score>  (292) 
-59.91057338354534

>  <distance_score>  (292) 
1.5144278071216268

>  <path>  (292) 
/opt/xchem-fragalysis-2/maxwin/BulkDock/SCRATCH/505733/C599-P157/C599-P157.minimised.mol

>  <scratch_subdir>  (292) 
/opt/xchem-fragalysis-2/maxwin/BulkDock/SCRATCH/505733/C599-P157

>  <fragmenstein_runtime>  (292) 
4.1069042682647705

>  <fragmenstein_outcome>  (292) 
too moved

>  <fragmenstein_mode>  (292) 
expansion

>  <fragmenstein_error>  (292) 


$$$$
C600-P59
     RDKit          3D

 52 54  0  0  0  0  0  0  0  0999 V2000
   -6.7683   -0.2905   34.5602 C   0  0  0  0  0  0  0  0  0  0  0  0
   -5.7947   -1.3035   34.2937 O   0  0  0  0  0  0  0  0  0  0  0  0
   -4.7664   -0.9250   33.4822 C   0  0  0  0  0  0  0  0  0  0  0  0
   -4.5800    0.2054   33.0493 O   0  0  0  0  0  0  0  0  0  0  0  0
   -3.8745   -2.1190   33.2020 C   0  0  0  0  0  0  0  0  0  0  0  0
   -2.8434   -1.8350   32.2495 N   0  0  0  0  0  0  0  0  0  0  0  0
   -1.8909   -2.8062   31.4430 C   0  0  0  0  0  0  0  0  0  0  0  0
   -1.7590   -4.0143   31.5042 N   0  0  0  0  0  0  0  0  0  0  0  0
   -0.6550   -4.7543   30.8610 C   0  0  0  0  0  0  0  0  0  0  0  0
   -0.6603   -6.3047   31.0892 C   0  0  0  0  0  0  0  0  0  0  0  0
   -1.2332   -7.0295   32.3252 C   0  0  0  0  0  0  0  0  0  0  0  0
   -0.9530   -6.5427   33.7719 C   0  0  0  0  0  0  0  0  0  0  0  0
   -0.1164   -7.5452   34.3789 N   0  0  0  0  0  0  0  0  0  0  0  0
    1.2058   -7.2041   34.2646 C   0  0  0  0  0  0  0  0  0  0  0  0
    2.1719   -7.8934   34.4911 O   0  0  0  0  0  0  0  0  0  0  0  0
    1.2683   -5.8204   33.8378 C   0  0  0  0  0  0  0  0  0  0  0  0
    2.3469   -5.0370   33.5187 C   0  0  0  0  0  0  0  0  0  0  0  0
    2.0607   -3.6961   33.3153 C   0  0  0  0  0  0  0  0  0  0  0  0
    3.3617   -2.6177   32.8002 S   0  0  0  0  0  0  0  0  0  0  0  0
    3.6153   -2.9163   31.4048 O   0  0  0  0  0  0  0  0  0  0  0  0
    4.3979   -2.6755   33.8093 O   0  0  0  0  0  0  0  0  0  0  0  0
    2.7946   -1.1335   32.8399 F   0  0  0  0  0  0  0  0  0  0  0  0
    0.7816   -3.1716   33.5727 C   0  0  0  0  0  0  0  0  0  0  0  0
   -0.2783   -4.0141   33.8992 C   0  0  0  0  0  0  0  0  0  0  0  0
   -0.0398   -5.3645   33.8611 C   0  0  0  0  0  0  0  0  0  0  0  0
   -1.1074   -1.8901   30.6048 C   0  0  0  0  0  0  0  0  0  0  0  0
   -0.9558   -1.8659   29.2021 C   0  0  0  0  0  0  0  0  0  0  0  0
   -0.3467   -0.6623   28.9484 C   0  0  0  0  0  0  0  0  0  0  0  0
    0.0479    0.0438   27.7224 C   0  0  0  0  0  0  0  0  0  0  0  0
   -0.1087   -0.0173   30.1170 O   0  0  0  0  0  0  0  0  0  0  0  0
   -0.6023   -0.7699   31.1597 N   0  0  0  0  0  0  0  0  0  0  0  0
   -7.4827   -0.2610   33.7342 H   0  0  0  0  0  0  0  0  0  0  0  0
   -7.3054   -0.5734   35.4699 H   0  0  0  0  0  0  0  0  0  0  0  0
   -6.3087    0.6883   34.7258 H   0  0  0  0  0  0  0  0  0  0  0  0
   -3.4030   -2.3545   34.1564 H   0  0  0  0  0  0  0  0  0  0  0  0
   -4.5010   -2.9251   32.8210 H   0  0  0  0  0  0  0  0  0  0  0  0
   -2.6309   -0.8653   31.9996 H   0  0  0  0  0  0  0  0  0  0  0  0
   -0.6653   -4.5905   29.7767 H   0  0  0  0  0  0  0  0  0  0  0  0
    0.3106   -4.3599   31.1851 H   0  0  0  0  0  0  0  0  0  0  0  0
    0.3853   -6.6268   30.9787 H   0  0  0  0  0  0  0  0  0  0  0  0
   -1.1584   -6.7584   30.2221 H   0  0  0  0  0  0  0  0  0  0  0  0
   -0.8846   -8.0711   32.2303 H   0  0  0  0  0  0  0  0  0  0  0  0
   -2.2951   -7.1701   32.1893 H   0  0  0  0  0  0  0  0  0  0  0  0
   -1.8439   -6.4553   34.3898 H   0  0  0  0  0  0  0  0  0  0  0  0
   -0.4275   -8.4853   34.6203 H   0  0  0  0  0  0  0  0  0  0  0  0
    3.3513   -5.4400   33.4583 H   0  0  0  0  0  0  0  0  0  0  0  0
    0.5970   -2.1007   33.4898 H   0  0  0  0  0  0  0  0  0  0  0  0
   -1.2744   -3.6176   34.0540 H   0  0  0  0  0  0  0  0  0  0  0  0
   -1.3120   -2.5753   28.4700 H   0  0  0  0  0  0  0  0  0  0  0  0
    0.9718   -0.3813   27.3221 H   0  0  0  0  0  0  0  0  0  0  0  0
   -0.7407   -0.0310   26.9691 H   0  0  0  0  0  0  0  0  0  0  0  0
    0.2219    1.1075   27.9138 H   0  0  0  0  0  0  0  0  0  0  0  0
  1  2  1  0
  2  3  1  0
  3  4  2  0
  3  5  1  0
  5  6  1  0
  6  7  1  0
  7  8  2  3
  8  9  1  0
  9 10  1  0
 10 11  1  0
 11 12  1  0
 12 13  1  0
 13 14  1  0
 14 15  2  0
 14 16  1  0
 16 17  2  0
 17 18  1  0
 18 19  1  0
 19 20  2  0
 19 21  2  0
 19 22  1  0
 18 23  2  0
 23 24  1  0
 24 25  2  0
  7 26  1  0
 26 27  1  0
 27 28  2  0
 28 29  1  0
 28 30  1  0
 30 31  1  0
 25 12  1  0
 31 26  2  0
 25 16  1  0
  1 32  1  0
  1 33  1  0
  1 34  1  0
  5 35  1  0
  5 36  1  0
  6 37  1  0
  9 38  1  0
  9 39  1  0
 10 40  1  0
 10 41  1  0
 11 42  1  0
 11 43  1  0
 12 44  1  0
 13 45  1  0
 17 46  1  0
 23 47  1  0
 24 48  1  0
 27 49  1  0
 29 50  1  0
 29 51  1  0
 29 52  1  0
M  END
>  <Energy>  (293) 
117.19714212155846

>  <compound_id>  (293) 
600

>  <target_id>  (293) 
1

>  <reference_id>  (293) 
59

>  <inspiration_ids>  (293) 
[59, 158]

>  <energy_score>  (293) 
-14.926694865977595

>  <distance_score>  (293) 
1.9702659756642877

>  <path>  (293) 
/opt/xchem-fragalysis-2/maxwin/BulkDock/SCRATCH/505733/C600-P59/C600-P59.minimised.mol

>  <scratch_subdir>  (293) 
/opt/xchem-fragalysis-2/maxwin/BulkDock/SCRATCH/505733/C600-P59

>  <fragmenstein_runtime>  (293) 
5.685828685760498

>  <fragmenstein_outcome>  (293) 
too moved

>  <fragmenstein_mode>  (293) 
expansion

>  <fragmenstein_error>  (293) 


$$$$
C600-P158
     RDKit          3D

 52 54  0  0  0  0  0  0  0  0999 V2000
   -5.8852   -1.1323   33.9934 C   0  0  0  0  0  0  0  0  0  0  0  0
   -4.5006   -1.3447   34.2709 O   0  0  0  0  0  0  0  0  0  0  0  0
   -3.8530   -2.1112   33.3425 C   0  0  0  0  0  0  0  0  0  0  0  0
   -4.4014   -2.6597   32.3902 O   0  0  0  0  0  0  0  0  0  0  0  0
   -2.3515   -2.1242   33.6245 C   0  0  0  0  0  0  0  0  0  0  0  0
   -1.6400   -1.9234   32.4038 N   0  0  0  0  0  0  0  0  0  0  0  0
   -1.0276   -2.9633   31.3898 C   0  0  0  0  0  0  0  0  0  0  0  0
   -1.0882   -4.1760   31.3705 N   0  0  0  0  0  0  0  0  0  0  0  0
   -0.3681   -5.0127   30.3950 C   0  0  0  0  0  0  0  0  0  0  0  0
   -0.5054   -6.5695   30.6692 C   0  0  0  0  0  0  0  0  0  0  0  0
   -1.0624   -7.0839   32.0053 C   0  0  0  0  0  0  0  0  0  0  0  0
   -0.1620   -7.0048   33.2286 C   0  0  0  0  0  0  0  0  0  0  0  0
   -0.9343   -6.9569   34.4404 N   0  0  0  0  0  0  0  0  0  0  0  0
   -0.7030   -5.8049   35.1577 C   0  0  0  0  0  0  0  0  0  0  0  0
   -1.1352   -5.5087   36.2489 O   0  0  0  0  0  0  0  0  0  0  0  0
    0.2637   -5.0161   34.4085 C   0  0  0  0  0  0  0  0  0  0  0  0
    0.7512   -3.7559   34.6439 C   0  0  0  0  0  0  0  0  0  0  0  0
    1.6945   -3.2683   33.7440 C   0  0  0  0  0  0  0  0  0  0  0  0
    2.2972   -1.6166   33.9869 S   0  0  0  0  0  0  0  0  0  0  0  0
    1.1539   -0.7355   34.1083 O   0  0  0  0  0  0  0  0  0  0  0  0
    3.3764   -1.3827   33.0489 O   0  0  0  0  0  0  0  0  0  0  0  0
    2.9890   -1.6222   35.4212 F   0  0  0  0  0  0  0  0  0  0  0  0
    2.1869   -4.0553   32.7009 C   0  0  0  0  0  0  0  0  0  0  0  0
    1.6909   -5.3347   32.5308 C   0  0  0  0  0  0  0  0  0  0  0  0
    0.6754   -5.7818   33.3410 C   0  0  0  0  0  0  0  0  0  0  0  0
   -0.4252   -2.0827   30.3819 C   0  0  0  0  0  0  0  0  0  0  0  0
   -0.7306   -1.9751   29.0071 C   0  0  0  0  0  0  0  0  0  0  0  0
   -0.2339   -0.7475   28.6464 C   0  0  0  0  0  0  0  0  0  0  0  0
   -0.2785    0.0602   27.4235 C   0  0  0  0  0  0  0  0  0  0  0  0
    0.3873   -0.1774   29.7061 O   0  0  0  0  0  0  0  0  0  0  0  0
    0.2621   -1.0004   30.7991 N   0  0  0  0  0  0  0  0  0  0  0  0
   -6.4443   -2.0560   34.1565 H   0  0  0  0  0  0  0  0  0  0  0  0
   -6.2573   -0.3751   34.6891 H   0  0  0  0  0  0  0  0  0  0  0  0
   -6.0321   -0.7626   32.9733 H   0  0  0  0  0  0  0  0  0  0  0  0
   -2.1154   -1.2901   34.2946 H   0  0  0  0  0  0  0  0  0  0  0  0
   -2.0188   -3.0273   34.1205 H   0  0  0  0  0  0  0  0  0  0  0  0
   -1.4606   -0.9776   32.0686 H   0  0  0  0  0  0  0  0  0  0  0  0
    0.6885   -4.7375   30.3442 H   0  0  0  0  0  0  0  0  0  0  0  0
   -0.7219   -4.8110   29.3777 H   0  0  0  0  0  0  0  0  0  0  0  0
    0.4613   -7.0370   30.4705 H   0  0  0  0  0  0  0  0  0  0  0  0
   -1.1465   -6.9864   29.8830 H   0  0  0  0  0  0  0  0  0  0  0  0
   -1.9679   -6.5409   32.2230 H   0  0  0  0  0  0  0  0  0  0  0  0
   -1.3750   -8.1290   31.8816 H   0  0  0  0  0  0  0  0  0  0  0  0
    0.4775   -7.8685   33.3072 H   0  0  0  0  0  0  0  0  0  0  0  0
   -1.4732   -7.7237   34.8264 H   0  0  0  0  0  0  0  0  0  0  0  0
    0.3846   -3.1697   35.4811 H   0  0  0  0  0  0  0  0  0  0  0  0
    2.9308   -3.6599   32.0115 H   0  0  0  0  0  0  0  0  0  0  0  0
    1.9898   -5.9172   31.6838 H   0  0  0  0  0  0  0  0  0  0  0  0
   -1.3359   -2.6260   28.3959 H   0  0  0  0  0  0  0  0  0  0  0  0
    0.7133    0.1093   26.9676 H   0  0  0  0  0  0  0  0  0  0  0  0
   -0.9859   -0.3560   26.7028 H   0  0  0  0  0  0  0  0  0  0  0  0
   -0.6005    1.0824   27.6475 H   0  0  0  0  0  0  0  0  0  0  0  0
  1  2  1  0
  2  3  1  0
  3  4  2  0
  3  5  1  0
  5  6  1  0
  6  7  1  0
  7  8  2  3
  8  9  1  0
  9 10  1  0
 10 11  1  0
 11 12  1  0
 12 13  1  0
 13 14  1  0
 14 15  2  0
 14 16  1  0
 16 17  2  0
 17 18  1  0
 18 19  1  0
 19 20  2  0
 19 21  2  0
 19 22  1  0
 18 23  2  0
 23 24  1  0
 24 25  2  0
  7 26  1  0
 26 27  1  0
 27 28  2  0
 28 29  1  0
 28 30  1  0
 30 31  1  0
 25 12  1  0
 31 26  2  0
 25 16  1  0
  1 32  1  0
  1 33  1  0
  1 34  1  0
  5 35  1  0
  5 36  1  0
  6 37  1  0
  9 38  1  0
  9 39  1  0
 10 40  1  0
 10 41  1  0
 11 42  1  0
 11 43  1  0
 12 44  1  0
 13 45  1  0
 17 46  1  0
 23 47  1  0
 24 48  1  0
 27 49  1  0
 29 50  1  0
 29 51  1  0
 29 52  1  0
M  END
>  <Energy>  (294) 
106.67355560492027

>  <compound_id>  (294) 
600

>  <target_id>  (294) 
1

>  <reference_id>  (294) 
158

>  <inspiration_ids>  (294) 
[59, 158]

>  <energy_score>  (294) 
-25.450281382619096

>  <distance_score>  (294) 
2.261906744232851

>  <path>  (294) 
/opt/xchem-fragalysis-2/maxwin/BulkDock/SCRATCH/505733/C600-P158/C600-P158.minimised.mol

>  <scratch_subdir>  (294) 
/opt/xchem-fragalysis-2/maxwin/BulkDock/SCRATCH/505733/C600-P158

>  <fragmenstein_runtime>  (294) 
4.282790184020996

>  <fragmenstein_outcome>  (294) 
too moved

>  <fragmenstein_mode>  (294) 
expansion

>  <fragmenstein_error>  (294) 


$$$$
C601-P59
     RDKit          3D

 43 45  0  0  0  0  0  0  0  0999 V2000
   -6.9598   -0.4525   34.3722 C   0  0  0  0  0  0  0  0  0  0  0  0
   -5.8109   -1.3028   34.3333 O   0  0  0  0  0  0  0  0  0  0  0  0
   -4.7124   -0.7461   33.7463 C   0  0  0  0  0  0  0  0  0  0  0  0
   -4.6328    0.4068   33.3362 O   0  0  0  0  0  0  0  0  0  0  0  0
   -3.5961   -1.7770   33.6641 C   0  0  0  0  0  0  0  0  0  0  0  0
   -2.3730   -1.2066   33.1095 N   0  0  0  0  0  0  0  0  0  0  0  0
   -1.9585   -1.5015   31.8439 C   0  0  0  0  0  0  0  0  0  0  0  0
   -2.2130   -2.6709   31.1802 N   0  0  0  0  0  0  0  0  0  0  0  0
   -1.6711   -2.5689   29.6067 S   0  0  0  0  0  4  0  0  0  0  0  0
   -0.3809   -3.6006   29.5031 N   0  0  0  0  0  0  0  0  0  0  0  0
    0.3293   -4.2204   30.6059 C   0  0  0  0  0  0  0  0  0  0  0  0
   -0.2538   -5.5783   30.9947 C   0  0  0  0  0  0  0  0  0  0  0  0
    0.2823   -5.9145   32.3387 C   0  0  0  0  0  0  0  0  0  0  0  0
    1.5000   -6.3310   32.4434 N   0  0  0  0  0  0  0  0  0  0  0  0
    2.0014   -6.3749   33.7117 C   0  0  0  0  0  0  0  0  0  0  0  0
    1.3047   -6.1433   34.8246 C   0  0  0  0  0  0  0  0  0  0  0  0
   -0.1125   -5.8090   34.6822 C   0  0  0  0  0  0  0  0  0  0  0  0
   -0.8350   -5.6651   35.6573 O   0  0  0  0  0  0  0  0  0  0  0  0
   -0.5379   -5.6626   33.4014 N   0  0  0  0  0  0  0  0  0  0  0  0
   -0.9816   -1.0543   29.8530 C   0  0  0  0  0  0  0  0  0  0  0  0
   -1.1445   -0.5218   31.1306 C   0  0  0  0  0  0  0  0  0  0  0  0
   -0.6317    0.6616   31.4317 N   0  0  0  0  0  0  0  0  0  0  0  0
   -0.0233    1.0163   30.1484 O   0  0  0  0  0  0  0  0  0  0  0  0
   -0.2916   -0.0395   29.2913 C   0  0  0  0  0  0  0  0  0  0  0  0
    0.1738    0.0546   27.9016 C   0  0  0  0  0  0  0  0  0  0  0  0
   -6.7114    0.5328   34.7775 H   0  0  0  0  0  0  0  0  0  0  0  0
   -7.6998   -0.9172   35.0299 H   0  0  0  0  0  0  0  0  0  0  0  0
   -7.3888   -0.3794   33.3698 H   0  0  0  0  0  0  0  0  0  0  0  0
   -3.3815   -2.1069   34.6847 H   0  0  0  0  0  0  0  0  0  0  0  0
   -3.9693   -2.6063   33.0578 H   0  0  0  0  0  0  0  0  0  0  0  0
   -2.1967   -0.2537   33.4308 H   0  0  0  0  0  0  0  0  0  0  0  0
   -2.6370   -2.6239   28.6465 H   0  0  0  0  0  0  0  0  0  0  0  0
   -0.4849   -4.2534   28.7238 H   0  0  0  0  0  0  0  0  0  0  0  0
    1.3699   -4.3696   30.2903 H   0  0  0  0  0  0  0  0  0  0  0  0
    0.3897   -3.5411   31.4655 H   0  0  0  0  0  0  0  0  0  0  0  0
   -1.3322   -5.5429   31.0944 H   0  0  0  0  0  0  0  0  0  0  0  0
    0.0125   -6.3566   30.2745 H   0  0  0  0  0  0  0  0  0  0  0  0
    3.0622   -6.5908   33.7956 H   0  0  0  0  0  0  0  0  0  0  0  0
    1.7253   -6.1793   35.8192 H   0  0  0  0  0  0  0  0  0  0  0  0
   -1.4794   -5.3086   33.3011 H   0  0  0  0  0  0  0  0  0  0  0  0
    0.8754   -0.7539   27.6750 H   0  0  0  0  0  0  0  0  0  0  0  0
    0.6862    1.0043   27.7187 H   0  0  0  0  0  0  0  0  0  0  0  0
   -0.6700   -0.0093   27.2076 H   0  0  0  0  0  0  0  0  0  0  0  0
  1  2  1  0
  2  3  1  0
  3  4  2  0
  3  5  1  0
  5  6  1  0
  6  7  1  0
  7  8  2  0
  8  9  1  0
  9 10  1  0
 10 11  1  0
 11 12  1  0
 12 13  1  0
 13 14  2  0
 14 15  1  0
 15 16  2  0
 16 17  1  0
 17 18  2  0
 17 19  1  0
  9 20  1  0
 20 21  1  0
 21 22  2  0
 22 23  1  0
 23 24  1  0
 24 25  1  0
 21  7  1  0
 19 13  1  0
 24 20  2  0
  1 26  1  0
  1 27  1  0
  1 28  1  0
  5 29  1  0
  5 30  1  0
  6 31  1  0
  9 32  1  0
 10 33  1  0
 11 34  1  0
 11 35  1  0
 12 36  1  0
 12 37  1  0
 15 38  1  0
 16 39  1  0
 19 40  1  0
 25 41  1  0
 25 42  1  0
 25 43  1  0
M  END
>  <Energy>  (295) 
60.40732991089299

>  <compound_id>  (295) 
601

>  <target_id>  (295) 
1

>  <reference_id>  (295) 
59

>  <inspiration_ids>  (295) 
[59, 159]

>  <energy_score>  (295) 
-110.31819049842534

>  <distance_score>  (295) 
1.432157423481293

>  <path>  (295) 
/opt/xchem-fragalysis-2/maxwin/BulkDock/SCRATCH/505733/C601-P59/C601-P59.minimised.mol

>  <scratch_subdir>  (295) 
/opt/xchem-fragalysis-2/maxwin/BulkDock/SCRATCH/505733/C601-P59

>  <fragmenstein_runtime>  (295) 
3.2662174701690674

>  <fragmenstein_outcome>  (295) 
too moved

>  <fragmenstein_mode>  (295) 
expansion

>  <fragmenstein_error>  (295) 


$$$$
C601-P159
     RDKit          3D

 43 45  0  0  0  0  0  0  0  0999 V2000
   -5.2673   -0.6369   36.6366 C   0  0  0  0  0  0  0  0  0  0  0  0
   -4.4051   -0.7895   35.5085 O   0  0  0  0  0  0  0  0  0  0  0  0
   -3.2953    0.0054   35.5544 C   0  0  0  0  0  0  0  0  0  0  0  0
   -3.0026    0.7337   36.4962 O   0  0  0  0  0  0  0  0  0  0  0  0
   -2.4352   -0.1310   34.3004 C   0  0  0  0  0  0  0  0  0  0  0  0
   -3.1204   -0.8476   33.2171 N   0  0  0  0  0  0  0  0  0  0  0  0
   -2.4572   -1.1736   32.0705 C   0  0  0  0  0  0  0  0  0  0  0  0
   -2.7907   -2.3077   31.3996 N   0  0  0  0  0  0  0  0  0  0  0  0
   -1.8326   -2.5312   30.0414 S   0  0  0  0  0  4  0  0  0  0  0  0
   -0.9488   -3.7339   30.7697 N   0  0  0  0  0  0  0  0  0  0  0  0
   -0.0039   -4.5721   30.0461 C   0  0  0  0  0  0  0  0  0  0  0  0
   -0.0062   -6.0126   30.5826 C   0  0  0  0  0  0  0  0  0  0  0  0
    0.3373   -5.9973   32.0352 C   0  0  0  0  0  0  0  0  0  0  0  0
    1.5173   -5.5939   32.3596 N   0  0  0  0  0  0  0  0  0  0  0  0
    1.7733   -5.4173   33.6844 C   0  0  0  0  0  0  0  0  0  0  0  0
    0.9084   -5.6803   34.6629 C   0  0  0  0  0  0  0  0  0  0  0  0
   -0.3949   -6.2347   34.2832 C   0  0  0  0  0  0  0  0  0  0  0  0
   -1.1983   -6.5911   35.1335 O   0  0  0  0  0  0  0  0  0  0  0  0
   -0.6164   -6.3445   32.9412 N   0  0  0  0  0  0  0  0  0  0  0  0
   -1.0864   -1.0490   30.2869 C   0  0  0  0  0  0  0  0  0  0  0  0
   -1.4077   -0.3633   31.4599 C   0  0  0  0  0  0  0  0  0  0  0  0
   -0.8067    0.7843   31.7342 N   0  0  0  0  0  0  0  0  0  0  0  0
   -0.0077    0.9668   30.5251 O   0  0  0  0  0  0  0  0  0  0  0  0
   -0.2534   -0.1406   29.7328 C   0  0  0  0  0  0  0  0  0  0  0  0
    0.3445   -0.1831   28.3893 C   0  0  0  0  0  0  0  0  0  0  0  0
   -4.7883   -1.0390   37.5345 H   0  0  0  0  0  0  0  0  0  0  0  0
   -6.1803   -1.2066   36.4440 H   0  0  0  0  0  0  0  0  0  0  0  0
   -5.5446    0.4126   36.7793 H   0  0  0  0  0  0  0  0  0  0  0  0
   -2.1969    0.8871   33.9781 H   0  0  0  0  0  0  0  0  0  0  0  0
   -1.5222   -0.6646   34.5859 H   0  0  0  0  0  0  0  0  0  0  0  0
   -3.7114   -1.5999   33.5750 H   0  0  0  0  0  0  0  0  0  0  0  0
   -2.7371   -2.7561   29.0483 H   0  0  0  0  0  0  0  0  0  0  0  0
   -0.5448   -3.4349   31.6587 H   0  0  0  0  0  0  0  0  0  0  0  0
    0.9979   -4.1309   30.1142 H   0  0  0  0  0  0  0  0  0  0  0  0
   -0.2607   -4.5860   28.9859 H   0  0  0  0  0  0  0  0  0  0  0  0
   -0.9543   -6.5294   30.4272 H   0  0  0  0  0  0  0  0  0  0  0  0
    0.7630   -6.5856   30.0591 H   0  0  0  0  0  0  0  0  0  0  0  0
    2.7542   -5.0146   33.9283 H   0  0  0  0  0  0  0  0  0  0  0  0
    1.1191   -5.5282   35.7119 H   0  0  0  0  0  0  0  0  0  0  0  0
   -1.5235   -6.6915   32.6688 H   0  0  0  0  0  0  0  0  0  0  0  0
    0.8909   -1.1192   28.2395 H   0  0  0  0  0  0  0  0  0  0  0  0
    1.0472    0.6430   28.2423 H   0  0  0  0  0  0  0  0  0  0  0  0
   -0.4341   -0.1042   27.6246 H   0  0  0  0  0  0  0  0  0  0  0  0
  1  2  1  0
  2  3  1  0
  3  4  2  0
  3  5  1  0
  5  6  1  0
  6  7  1  0
  7  8  2  0
  8  9  1  0
  9 10  1  0
 10 11  1  0
 11 12  1  0
 12 13  1  0
 13 14  2  0
 14 15  1  0
 15 16  2  0
 16 17  1  0
 17 18  2  0
 17 19  1  0
  9 20  1  0
 20 21  1  0
 21 22  2  0
 22 23  1  0
 23 24  1  0
 24 25  1  0
 21  7  1  0
 19 13  1  0
 24 20  2  0
  1 26  1  0
  1 27  1  0
  1 28  1  0
  5 29  1  0
  5 30  1  0
  6 31  1  0
  9 32  1  0
 10 33  1  0
 11 34  1  0
 11 35  1  0
 12 36  1  0
 12 37  1  0
 15 38  1  0
 16 39  1  0
 19 40  1  0
 25 41  1  0
 25 42  1  0
 25 43  1  0
M  END
>  <Energy>  (296) 
62.662676316649055

>  <compound_id>  (296) 
601

>  <target_id>  (296) 
1

>  <reference_id>  (296) 
159

>  <inspiration_ids>  (296) 
[59, 159]

>  <energy_score>  (296) 
-108.06284409266885

>  <distance_score>  (296) 
1.7162782768967872

>  <path>  (296) 
/opt/xchem-fragalysis-2/maxwin/BulkDock/SCRATCH/505733/C601-P159/C601-P159.minimised.mol

>  <scratch_subdir>  (296) 
/opt/xchem-fragalysis-2/maxwin/BulkDock/SCRATCH/505733/C601-P159

>  <fragmenstein_runtime>  (296) 
2.8979568481445312

>  <fragmenstein_outcome>  (296) 
too moved

>  <fragmenstein_mode>  (296) 
expansion

>  <fragmenstein_error>  (296) 


$$$$
C601-P59
     RDKit          2D

  0  0  0  0  0  0  0  0  0  0999 V2000
M  END
>  <compound_id>  (297) 
601

>  <target_id>  (297) 
1

>  <reference_id>  (297) 
59

>  <inspiration_ids>  (297) 
[59, 162]

>  <energy_score>  (297) 
nan

>  <distance_score>  (297) 
nan

>  <path>  (297) 
/opt/xchem-fragalysis-2/maxwin/BulkDock/SCRATCH/505733/C601-P59/C601-P59.minimised.mol

>  <scratch_subdir>  (297) 
/opt/xchem-fragalysis-2/maxwin/BulkDock/SCRATCH/505733/C601-P59

>  <fragmenstein_runtime>  (297) 
0.5761888027191162

>  <fragmenstein_outcome>  (297) 
crashed

>  <fragmenstein_mode>  (297) 
expansion

>  <fragmenstein_error>  (297) 
PoisonError: None has poison atoms [14, 15, 16, 16, 15, 14, 20, 6, 5, 20, 6, 5]

$$$$
C602-P59
     RDKit          3D

 49 50  0  0  0  0  0  0  0  0999 V2000
   -6.8419   -0.1159   34.7616 C   0  0  0  0  0  0  0  0  0  0  0  0
   -5.7102   -0.9845   34.8314 O   0  0  0  0  0  0  0  0  0  0  0  0
   -4.6782   -0.6278   34.0152 C   0  0  0  0  0  0  0  0  0  0  0  0
   -4.6419    0.3651   33.2943 O   0  0  0  0  0  0  0  0  0  0  0  0
   -3.5903   -1.6861   34.0626 C   0  0  0  0  0  0  0  0  0  0  0  0
   -2.4104   -1.2526   33.3075 N   0  0  0  0  0  0  0  0  0  0  0  0
   -2.0071   -2.0984   32.2024 C   0  0  0  0  0  0  0  0  0  0  0  0
   -3.1544   -2.5822   31.5444 O   0  0  0  0  0  0  0  0  0  0  0  0
   -1.2879   -3.2036   32.7995 N   0  0  0  0  0  0  0  0  0  0  0  0
   -0.7890   -4.2671   31.9220 C   0  0  0  0  0  0  0  0  0  0  0  0
   -1.0666   -5.7139   32.4413 C   0  0  0  0  0  0  0  0  0  0  0  0
   -0.0433   -6.3586   33.2841 C   0  0  0  0  0  0  0  0  0  0  0  0
    1.1778   -5.8296   33.2373 N   0  0  0  0  0  0  0  0  0  0  0  0
    2.0067   -6.1461   34.2318 C   0  0  0  0  0  0  0  0  0  0  0  0
    3.3134   -5.4345   34.2115 C   0  0  0  0  0  0  0  0  0  0  0  0
    1.6502   -7.0250   35.2298 C   0  0  0  0  0  0  0  0  0  0  0  0
    0.4167   -7.6079   35.0874 C   0  0  0  0  0  0  0  0  0  0  0  0
    0.0384   -8.6031   35.9318 O   0  0  0  0  0  0  0  0  0  0  0  0
   -0.4493   -7.3317   34.1165 N   0  0  0  0  0  0  0  0  0  0  0  0
   -1.1489   -1.2353   31.2492 C   0  0  0  0  0  0  0  0  0  0  0  0
   -0.5897   -0.0845   31.6776 N   0  0  0  0  0  0  0  0  0  0  0  0
   -0.0214    0.5152   30.5745 O   0  0  0  0  0  0  0  0  0  0  0  0
   -0.2375   -0.2501   29.4805 C   0  0  0  0  0  0  0  0  0  0  0  0
    0.2721    0.2501   28.1890 C   0  0  0  0  0  0  0  0  0  0  0  0
   -0.9381   -1.3764   29.8402 C   0  0  0  0  0  0  0  0  0  0  0  0
   -1.3753   -2.4320   28.9161 C   0  0  0  0  0  0  0  0  0  0  0  0
   -7.3448   -0.2480   33.7997 H   0  0  0  0  0  0  0  0  0  0  0  0
   -6.5484    0.9257   34.9227 H   0  0  0  0  0  0  0  0  0  0  0  0
   -7.5370   -0.4036   35.5553 H   0  0  0  0  0  0  0  0  0  0  0  0
   -4.0677   -2.5687   33.6441 H   0  0  0  0  0  0  0  0  0  0  0  0
   -3.3075   -1.8559   35.1053 H   0  0  0  0  0  0  0  0  0  0  0  0
   -2.5373   -0.3001   32.9648 H   0  0  0  0  0  0  0  0  0  0  0  0
   -3.5867   -1.7638   31.2569 H   0  0  0  0  0  0  0  0  0  0  0  0
   -0.5342   -2.8054   33.3535 H   0  0  0  0  0  0  0  0  0  0  0  0
    0.2709   -4.1024   31.6993 H   0  0  0  0  0  0  0  0  0  0  0  0
   -1.2980   -4.1992   30.9623 H   0  0  0  0  0  0  0  0  0  0  0  0
   -1.9345   -5.7061   33.0821 H   0  0  0  0  0  0  0  0  0  0  0  0
   -1.2603   -6.3712   31.5863 H   0  0  0  0  0  0  0  0  0  0  0  0
    3.4986   -4.9677   33.2383 H   0  0  0  0  0  0  0  0  0  0  0  0
    4.1335   -6.1320   34.4081 H   0  0  0  0  0  0  0  0  0  0  0  0
    3.3257   -4.6517   34.9762 H   0  0  0  0  0  0  0  0  0  0  0  0
    2.3066   -7.2825   36.0487 H   0  0  0  0  0  0  0  0  0  0  0  0
   -0.7030   -9.0295   35.4436 H   0  0  0  0  0  0  0  0  0  0  0  0
    0.9745   -0.4664   27.7526 H   0  0  0  0  0  0  0  0  0  0  0  0
    0.7938    1.2046   28.3096 H   0  0  0  0  0  0  0  0  0  0  0  0
   -0.5512    0.4014   27.4840 H   0  0  0  0  0  0  0  0  0  0  0  0
   -2.3114   -2.8612   29.2615 H   0  0  0  0  0  0  0  0  0  0  0  0
   -1.5442   -2.0262   27.9141 H   0  0  0  0  0  0  0  0  0  0  0  0
   -0.6240   -3.2237   28.8444 H   0  0  0  0  0  0  0  0  0  0  0  0
  1  2  1  0
  2  3  1  0
  3  4  2  0
  3  5  1  0
  5  6  1  0
  6  7  1  0
  7  8  1  0
  7  9  1  0
  9 10  1  0
 10 11  1  0
 11 12  1  0
 12 13  2  0
 13 14  1  0
 14 15  1  0
 14 16  2  0
 16 17  1  0
 17 18  1  0
 17 19  2  0
  7 20  1  0
 20 21  2  0
 21 22  1  0
 22 23  1  0
 23 24  1  0
 23 25  2  0
 25 26  1  0
 19 12  1  0
 25 20  1  0
  1 27  1  0
  1 28  1  0
  1 29  1  0
  5 30  1  0
  5 31  1  0
  6 32  1  0
  8 33  1  0
  9 34  1  0
 10 35  1  0
 10 36  1  0
 11 37  1  0
 11 38  1  0
 15 39  1  0
 15 40  1  0
 15 41  1  0
 16 42  1  0
 18 43  1  0
 24 44  1  0
 24 45  1  0
 24 46  1  0
 26 47  1  0
 26 48  1  0
 26 49  1  0
M  END
>  <Energy>  (298) 
-98.666389320303949

>  <compound_id>  (298) 
602

>  <target_id>  (298) 
1

>  <reference_id>  (298) 
59

>  <inspiration_ids>  (298) 
[59, 163]

>  <energy_score>  (298) 
-48.48624253196665

>  <distance_score>  (298) 
1.5191241911865077

>  <path>  (298) 
/opt/xchem-fragalysis-2/maxwin/BulkDock/SCRATCH/505733/C602-P59/C602-P59.minimised.mol

>  <scratch_subdir>  (298) 
/opt/xchem-fragalysis-2/maxwin/BulkDock/SCRATCH/505733/C602-P59

>  <fragmenstein_runtime>  (298) 
4.674241781234741

>  <fragmenstein_outcome>  (298) 
too moved

>  <fragmenstein_mode>  (298) 
expansion

>  <fragmenstein_error>  (298) 


$$$$
C602-P163
     RDKit          3D

 49 50  0  0  0  0  0  0  0  0999 V2000
   -6.3295   -0.6258   33.9818 C   0  0  0  0  0  0  0  0  0  0  0  0
   -5.1176   -1.3057   34.3114 O   0  0  0  0  0  0  0  0  0  0  0  0
   -3.9926   -0.7247   33.7960 C   0  0  0  0  0  0  0  0  0  0  0  0
   -3.9739    0.3064   33.1328 O   0  0  0  0  0  0  0  0  0  0  0  0
   -2.7617   -1.5063   34.2409 C   0  0  0  0  0  0  0  0  0  0  0  0
   -1.6201   -1.4042   33.3198 N   0  0  0  0  0  0  0  0  0  0  0  0
   -1.8118   -1.9870   32.0072 C   0  0  0  0  0  0  0  0  0  0  0  0
   -3.0923   -2.5308   31.8115 O   0  0  0  0  0  0  0  0  0  0  0  0
   -0.8464   -3.0539   31.7943 N   0  0  0  0  0  0  0  0  0  0  0  0
   -0.8593   -4.1658   32.7398 C   0  0  0  0  0  0  0  0  0  0  0  0
   -0.7541   -5.5416   32.0399 C   0  0  0  0  0  0  0  0  0  0  0  0
   -0.1606   -6.5213   32.9823 C   0  0  0  0  0  0  0  0  0  0  0  0
    1.1371   -6.2813   33.2064 N   0  0  0  0  0  0  0  0  0  0  0  0
    1.5793   -6.4748   34.4490 C   0  0  0  0  0  0  0  0  0  0  0  0
    2.9373   -5.9325   34.7234 C   0  0  0  0  0  0  0  0  0  0  0  0
    0.7946   -7.0599   35.4120 C   0  0  0  0  0  0  0  0  0  0  0  0
   -0.4471   -7.4566   34.9822 C   0  0  0  0  0  0  0  0  0  0  0  0
   -1.2363   -8.2020   35.7891 O   0  0  0  0  0  0  0  0  0  0  0  0
   -0.9694   -7.2256   33.7771 N   0  0  0  0  0  0  0  0  0  0  0  0
   -1.4407   -0.9340   30.9432 C   0  0  0  0  0  0  0  0  0  0  0  0
   -1.1414    0.3276   31.3076 N   0  0  0  0  0  0  0  0  0  0  0  0
   -0.6939    0.9609   30.1698 O   0  0  0  0  0  0  0  0  0  0  0  0
   -0.7329    0.1028   29.1268 C   0  0  0  0  0  0  0  0  0  0  0  0
   -0.2644    0.6057   27.8268 C   0  0  0  0  0  0  0  0  0  0  0  0
   -1.1911   -1.1211   29.5482 C   0  0  0  0  0  0  0  0  0  0  0  0
   -1.2981   -2.3275   28.7084 C   0  0  0  0  0  0  0  0  0  0  0  0
   -6.4644   -0.5824   32.8975 H   0  0  0  0  0  0  0  0  0  0  0  0
   -6.3310    0.3732   34.4259 H   0  0  0  0  0  0  0  0  0  0  0  0
   -7.1606   -1.1945   34.4081 H   0  0  0  0  0  0  0  0  0  0  0  0
   -3.0224   -2.5451   34.4118 H   0  0  0  0  0  0  0  0  0  0  0  0
   -2.4593   -1.0929   35.2096 H   0  0  0  0  0  0  0  0  0  0  0  0
   -1.4626   -0.4028   33.1601 H   0  0  0  0  0  0  0  0  0  0  0  0
   -3.0376   -2.8257   30.8930 H   0  0  0  0  0  0  0  0  0  0  0  0
    0.0628   -2.5977   31.8878 H   0  0  0  0  0  0  0  0  0  0  0  0
   -0.0264   -4.0071   33.4368 H   0  0  0  0  0  0  0  0  0  0  0  0
   -1.7443   -4.1575   33.3585 H   0  0  0  0  0  0  0  0  0  0  0  0
   -1.7083   -5.9046   31.6806 H   0  0  0  0  0  0  0  0  0  0  0  0
   -0.0995   -5.4672   31.1615 H   0  0  0  0  0  0  0  0  0  0  0  0
    3.4135   -5.5604   33.8102 H   0  0  0  0  0  0  0  0  0  0  0  0
    3.5788   -6.7140   35.1428 H   0  0  0  0  0  0  0  0  0  0  0  0
    2.8756   -5.1037   35.4356 H   0  0  0  0  0  0  0  0  0  0  0  0
    1.1314   -7.2423   36.4230 H   0  0  0  0  0  0  0  0  0  0  0  0
   -1.6416   -8.8132   35.1373 H   0  0  0  0  0  0  0  0  0  0  0  0
    0.6561    0.0946   27.5310 H   0  0  0  0  0  0  0  0  0  0  0  0
   -0.0578    1.6798   27.8643 H   0  0  0  0  0  0  0  0  0  0  0  0
   -1.0246    0.4378   27.0583 H   0  0  0  0  0  0  0  0  0  0  0  0
   -1.7712   -3.1575   29.2324 H   0  0  0  0  0  0  0  0  0  0  0  0
   -1.8927   -2.0952   27.8211 H   0  0  0  0  0  0  0  0  0  0  0  0
   -0.3051   -2.6589   28.3894 H   0  0  0  0  0  0  0  0  0  0  0  0
  1  2  1  0
  2  3  1  0
  3  4  2  0
  3  5  1  0
  5  6  1  0
  6  7  1  0
  7  8  1  0
  7  9  1  0
  9 10  1  0
 10 11  1  0
 11 12  1  0
 12 13  2  0
 13 14  1  0
 14 15  1  0
 14 16  2  0
 16 17  1  0
 17 18  1  0
 17 19  2  0
  7 20  1  0
 20 21  2  0
 21 22  1  0
 22 23  1  0
 23 24  1  0
 23 25  2  0
 25 26  1  0
 19 12  1  0
 25 20  1  0
  1 27  1  0
  1 28  1  0
  1 29  1  0
  5 30  1  0
  5 31  1  0
  6 32  1  0
  8 33  1  0
  9 34  1  0
 10 35  1  0
 10 36  1  0
 11 37  1  0
 11 38  1  0
 15 39  1  0
 15 40  1  0
 15 41  1  0
 16 42  1  0
 18 43  1  0
 24 44  1  0
 24 45  1  0
 24 46  1  0
 26 47  1  0
 26 48  1  0
 26 49  1  0
M  END
>  <Energy>  (299) 
-98.235797733476417

>  <compound_id>  (299) 
602

>  <target_id>  (299) 
1

>  <reference_id>  (299) 
163

>  <inspiration_ids>  (299) 
[59, 163]

>  <energy_score>  (299) 
-48.05565094513927

>  <distance_score>  (299) 
1.6494354636181778

>  <path>  (299) 
/opt/xchem-fragalysis-2/maxwin/BulkDock/SCRATCH/505733/C602-P163/C602-P163.minimised.mol

>  <scratch_subdir>  (299) 
/opt/xchem-fragalysis-2/maxwin/BulkDock/SCRATCH/505733/C602-P163

>  <fragmenstein_runtime>  (299) 
4.127281665802002

>  <fragmenstein_outcome>  (299) 
too moved

>  <fragmenstein_mode>  (299) 
expansion

>  <fragmenstein_error>  (299) 


$$$$
C603-P59
     RDKit          3D

 46 48  0  0  0  0  0  0  0  0999 V2000
   -7.0588   -0.4692   34.4151 C   0  0  0  0  0  0  0  0  0  0  0  0
   -5.8817   -1.2781   34.3608 O   0  0  0  0  0  0  0  0  0  0  0  0
   -4.8078   -0.6703   33.7766 C   0  0  0  0  0  0  0  0  0  0  0  0
   -4.7707    0.4966   33.4005 O   0  0  0  0  0  0  0  0  0  0  0  0
   -3.6553   -1.6565   33.6657 C   0  0  0  0  0  0  0  0  0  0  0  0
   -2.4789   -1.0337   33.0740 N   0  0  0  0  0  0  0  0  0  0  0  0
   -2.0963   -1.2838   31.7909 C   0  0  0  0  0  0  0  0  0  0  0  0
   -2.5426   -2.3300   31.0387 N   0  0  0  0  0  0  0  0  0  0  0  0
   -1.8559   -2.3016   29.5196 S   0  0  0  0  0  4  0  0  0  0  0  0
   -0.7907   -3.5731   29.5649 N   0  0  0  0  0  0  0  0  0  0  0  0
   -0.4497   -4.3248   30.7652 C   0  0  0  0  0  0  0  0  0  0  0  0
   -0.1827   -5.8110   30.4984 C   0  0  0  0  0  0  0  0  0  0  0  0
    0.3462   -6.3594   31.7774 C   0  0  0  0  0  0  0  0  0  0  0  0
   -0.5002   -6.7258   32.7597 N   0  0  0  0  0  0  0  0  0  0  0  0
   -0.0002   -6.7232   34.0178 C   0  0  0  0  0  0  0  0  0  0  0  0
   -0.9055   -7.1130   35.1453 C   0  0  0  0  0  0  0  0  0  0  0  0
    1.2804   -6.3046   34.2943 C   0  0  0  0  0  0  0  0  0  0  0  0
    2.0234   -5.9844   33.1990 C   0  0  0  0  0  0  0  0  0  0  0  0
    3.2597   -5.4772   33.3005 O   0  0  0  0  0  0  0  0  0  0  0  0
    1.6315   -6.0655   31.9427 N   0  0  0  0  0  0  0  0  0  0  0  0
   -0.9783   -0.9150   29.8588 C   0  0  0  0  0  0  0  0  0  0  0  0
   -1.1288   -0.4006   31.1469 C   0  0  0  0  0  0  0  0  0  0  0  0
   -0.4726    0.6924   31.5090 N   0  0  0  0  0  0  0  0  0  0  0  0
    0.2257    1.0029   30.2584 O   0  0  0  0  0  0  0  0  0  0  0  0
   -0.1403    0.0150   29.3578 C   0  0  0  0  0  0  0  0  0  0  0  0
    0.3765    0.0874   27.9843 C   0  0  0  0  0  0  0  0  0  0  0  0
   -7.4870   -0.3841   33.4134 H   0  0  0  0  0  0  0  0  0  0  0  0
   -7.7852   -0.9760   35.0567 H   0  0  0  0  0  0  0  0  0  0  0  0
   -6.8470    0.5130   34.8479 H   0  0  0  0  0  0  0  0  0  0  0  0
   -3.3969   -1.9778   34.6793 H   0  0  0  0  0  0  0  0  0  0  0  0
   -4.0064   -2.5125   33.0833 H   0  0  0  0  0  0  0  0  0  0  0  0
   -2.2229   -0.1336   33.4758 H   0  0  0  0  0  0  0  0  0  0  0  0
   -2.7658   -2.2788   28.5077 H   0  0  0  0  0  0  0  0  0  0  0  0
   -0.9620   -4.1982   28.7731 H   0  0  0  0  0  0  0  0  0  0  0  0
   -1.2373   -4.2758   31.5250 H   0  0  0  0  0  0  0  0  0  0  0  0
    0.4290   -3.8396   31.2093 H   0  0  0  0  0  0  0  0  0  0  0  0
    0.5903   -5.9142   29.7318 H   0  0  0  0  0  0  0  0  0  0  0  0
   -1.0590   -6.3811   30.1888 H   0  0  0  0  0  0  0  0  0  0  0  0
   -1.8384   -7.5370   34.7618 H   0  0  0  0  0  0  0  0  0  0  0  0
   -1.1515   -6.2366   35.7528 H   0  0  0  0  0  0  0  0  0  0  0  0
   -0.4279   -7.8675   35.7782 H   0  0  0  0  0  0  0  0  0  0  0  0
    1.6720   -6.2206   35.2974 H   0  0  0  0  0  0  0  0  0  0  0  0
    3.4323   -5.2327   32.3735 H   0  0  0  0  0  0  0  0  0  0  0  0
   -0.4454    0.1461   27.2641 H   0  0  0  0  0  0  0  0  0  0  0  0
    0.9806   -0.7952   27.7526 H   0  0  0  0  0  0  0  0  0  0  0  0
    1.0071    0.9712   27.8453 H   0  0  0  0  0  0  0  0  0  0  0  0
  1  2  1  0
  2  3  1  0
  3  4  2  0
  3  5  1  0
  5  6  1  0
  6  7  1  0
  7  8  2  0
  8  9  1  0
  9 10  1  0
 10 11  1  0
 11 12  1  0
 12 13  1  0
 13 14  2  0
 14 15  1  0
 15 16  1  0
 15 17  2  0
 17 18  1  0
 18 19  1  0
 18 20  2  0
  9 21  1  0
 21 22  1  0
 22 23  2  0
 23 24  1  0
 24 25  1  0
 25 26  1  0
 22  7  1  0
 20 13  1  0
 25 21  2  0
  1 27  1  0
  1 28  1  0
  1 29  1  0
  5 30  1  0
  5 31  1  0
  6 32  1  0
  9 33  1  0
 10 34  1  0
 11 35  1  0
 11 36  1  0
 12 37  1  0
 12 38  1  0
 16 39  1  0
 16 40  1  0
 16 41  1  0
 17 42  1  0
 19 43  1  0
 26 44  1  0
 26 45  1  0
 26 46  1  0
M  END
>  <Energy>  (300) 
74.943781060343042

>  <compound_id>  (300) 
603

>  <target_id>  (300) 
1

>  <reference_id>  (300) 
59

>  <inspiration_ids>  (300) 
[59, 164]

>  <energy_score>  (300) 
-128.092547856164

>  <distance_score>  (300) 
1.5053277020530287

>  <path>  (300) 
/opt/xchem-fragalysis-2/maxwin/BulkDock/SCRATCH/505733/C603-P59/C603-P59.minimised.mol

>  <scratch_subdir>  (300) 
/opt/xchem-fragalysis-2/maxwin/BulkDock/SCRATCH/505733/C603-P59

>  <fragmenstein_runtime>  (300) 
3.8657162189483643

>  <fragmenstein_outcome>  (300) 
too moved

>  <fragmenstein_mode>  (300) 
expansion

>  <fragmenstein_error>  (300) 


$$$$
C603-P164
     RDKit          3D

 46 48  0  0  0  0  0  0  0  0999 V2000
   -6.9475   -1.1348   35.3091 C   0  0  0  0  0  0  0  0  0  0  0  0
   -5.5408   -1.2909   35.4945 O   0  0  0  0  0  0  0  0  0  0  0  0
   -4.8852   -1.7336   34.3780 C   0  0  0  0  0  0  0  0  0  0  0  0
   -5.4409   -2.1937   33.3874 O   0  0  0  0  0  0  0  0  0  0  0  0
   -3.3863   -1.4800   34.5240 C   0  0  0  0  0  0  0  0  0  0  0  0
   -2.8649   -0.8281   33.3328 N   0  0  0  0  0  0  0  0  0  0  0  0
   -1.9586   -1.4104   32.5040 C   0  0  0  0  0  0  0  0  0  0  0  0
   -1.3126   -2.5805   32.7295 N   0  0  0  0  0  0  0  0  0  0  0  0
   -0.0803   -2.8631   31.5906 S   0  0  0  0  0  4  0  0  0  0  0  0
   -0.8491   -4.2538   31.1139 N   0  0  0  0  0  0  0  0  0  0  0  0
   -0.2036   -5.2164   30.2098 C   0  0  0  0  0  0  0  0  0  0  0  0
   -0.3339   -6.6924   30.6721 C   0  0  0  0  0  0  0  0  0  0  0  0
    0.3073   -6.7923   32.0133 C   0  0  0  0  0  0  0  0  0  0  0  0
   -0.4495   -7.0526   33.0931 N   0  0  0  0  0  0  0  0  0  0  0  0
    0.0495   -6.6563   34.2867 C   0  0  0  0  0  0  0  0  0  0  0  0
   -0.7622   -6.9410   35.5114 C   0  0  0  0  0  0  0  0  0  0  0  0
    1.2340   -5.9623   34.3941 C   0  0  0  0  0  0  0  0  0  0  0  0
    1.9048   -5.7968   33.2205 C   0  0  0  0  0  0  0  0  0  0  0  0
    3.0108   -5.0430   33.1233 O   0  0  0  0  0  0  0  0  0  0  0  0
    1.5284   -6.2650   32.0453 N   0  0  0  0  0  0  0  0  0  0  0  0
   -0.6262   -1.5313   30.6962 C   0  0  0  0  0  0  0  0  0  0  0  0
   -1.6201   -0.7510   31.2757 C   0  0  0  0  0  0  0  0  0  0  0  0
   -2.0064    0.3740   30.7086 N   0  0  0  0  0  0  0  0  0  0  0  0
   -1.1969    0.3693   29.5155 O   0  0  0  0  0  0  0  0  0  0  0  0
   -0.4345   -0.7833   29.5782 C   0  0  0  0  0  0  0  0  0  0  0  0
    0.4936   -1.0055   28.4686 C   0  0  0  0  0  0  0  0  0  0  0  0
   -7.1488   -0.4508   34.4790 H   0  0  0  0  0  0  0  0  0  0  0  0
   -7.4248   -2.1024   35.1395 H   0  0  0  0  0  0  0  0  0  0  0  0
   -7.3632   -0.7001   36.2222 H   0  0  0  0  0  0  0  0  0  0  0  0
   -3.2339   -0.7874   35.3601 H   0  0  0  0  0  0  0  0  0  0  0  0
   -2.8687   -2.4018   34.7880 H   0  0  0  0  0  0  0  0  0  0  0  0
   -3.4828   -0.1364   32.9223 H   0  0  0  0  0  0  0  0  0  0  0  0
    0.8886   -2.8449   32.5416 H   0  0  0  0  0  0  0  0  0  0  0  0
   -1.1957   -4.7244   31.9518 H   0  0  0  0  0  0  0  0  0  0  0  0
   -0.6504   -5.0752   29.2269 H   0  0  0  0  0  0  0  0  0  0  0  0
    0.8576   -4.9686   30.0685 H   0  0  0  0  0  0  0  0  0  0  0  0
    0.2003   -7.3600   29.9924 H   0  0  0  0  0  0  0  0  0  0  0  0
   -1.3675   -7.0384   30.7316 H   0  0  0  0  0  0  0  0  0  0  0  0
   -1.1137   -6.0066   35.9596 H   0  0  0  0  0  0  0  0  0  0  0  0
   -0.1653   -7.4917   36.2453 H   0  0  0  0  0  0  0  0  0  0  0  0
   -1.6357   -7.5514   35.2612 H   0  0  0  0  0  0  0  0  0  0  0  0
    1.6021   -5.5624   35.3277 H   0  0  0  0  0  0  0  0  0  0  0  0
    3.1582   -5.0552   32.1611 H   0  0  0  0  0  0  0  0  0  0  0  0
    0.1895   -0.4266   27.5938 H   0  0  0  0  0  0  0  0  0  0  0  0
    0.5255   -2.0642   28.1997 H   0  0  0  0  0  0  0  0  0  0  0  0
    1.5054   -0.6929   28.7448 H   0  0  0  0  0  0  0  0  0  0  0  0
  1  2  1  0
  2  3  1  0
  3  4  2  0
  3  5  1  0
  5  6  1  0
  6  7  1  0
  7  8  2  0
  8  9  1  0
  9 10  1  0
 10 11  1  0
 11 12  1  0
 12 13  1  0
 13 14  2  0
 14 15  1  0
 15 16  1  0
 15 17  2  0
 17 18  1  0
 18 19  1  0
 18 20  2  0
  9 21  1  0
 21 22  1  0
 22 23  2  0
 23 24  1  0
 24 25  1  0
 25 26  1  0
 22  7  1  0
 20 13  1  0
 25 21  2  0
  1 27  1  0
  1 28  1  0
  1 29  1  0
  5 30  1  0
  5 31  1  0
  6 32  1  0
  9 33  1  0
 10 34  1  0
 11 35  1  0
 11 36  1  0
 12 37  1  0
 12 38  1  0
 16 39  1  0
 16 40  1  0
 16 41  1  0
 17 42  1  0
 19 43  1  0
 26 44  1  0
 26 45  1  0
 26 46  1  0
M  END
>  <Energy>  (301) 
77.316251658789994

>  <compound_id>  (301) 
603

>  <target_id>  (301) 
1

>  <reference_id>  (301) 
164

>  <inspiration_ids>  (301) 
[59, 164]

>  <energy_score>  (301) 
-125.72007725771442

>  <distance_score>  (301) 
1.4303319883403292

>  <path>  (301) 
/opt/xchem-fragalysis-2/maxwin/BulkDock/SCRATCH/505733/C603-P164/C603-P164.minimised.mol

>  <scratch_subdir>  (301) 
/opt/xchem-fragalysis-2/maxwin/BulkDock/SCRATCH/505733/C603-P164

>  <fragmenstein_runtime>  (301) 
3.9806466102600098

>  <fragmenstein_outcome>  (301) 
too moved

>  <fragmenstein_mode>  (301) 
expansion

>  <fragmenstein_error>  (301) 


$$$$
C603-P59
     RDKit          3D

 46 48  0  0  0  0  0  0  0  0999 V2000
   -5.4989    0.9761   36.3887 C   0  0  0  0  0  0  0  0  0  0  0  0
   -4.7575   -0.1490   35.9130 O   0  0  0  0  0  0  0  0  0  0  0  0
   -4.3336   -0.0179   34.6262 C   0  0  0  0  0  0  0  0  0  0  0  0
   -4.5134    0.9672   33.9120 O   0  0  0  0  0  0  0  0  0  0  0  0
   -3.5964   -1.2702   34.1603 C   0  0  0  0  0  0  0  0  0  0  0  0
   -3.4182   -1.1826   32.7166 N   0  0  0  0  0  0  0  0  0  0  0  0
   -2.2881   -1.6022   32.0964 C   0  0  0  0  0  0  0  0  0  0  0  0
   -1.4641   -2.5741   32.5484 N   0  0  0  0  0  0  0  0  0  0  0  0
   -0.1596   -2.8824   31.4828 S   0  0  0  0  0  4  0  0  0  0  0  0
   -0.8912   -4.3358   31.1671 N   0  0  0  0  0  0  0  0  0  0  0  0
   -0.3858   -5.3158   30.2027 C   0  0  0  0  0  0  0  0  0  0  0  0
   -0.7467   -6.7813   30.6026 C   0  0  0  0  0  0  0  0  0  0  0  0
   -0.0523   -7.0399   31.8981 C   0  0  0  0  0  0  0  0  0  0  0  0
   -0.7707   -6.9968   33.0334 N   0  0  0  0  0  0  0  0  0  0  0  0
   -0.1425   -6.5082   34.1273 C   0  0  0  0  0  0  0  0  0  0  0  0
   -0.8996   -6.4757   35.4152 C   0  0  0  0  0  0  0  0  0  0  0  0
    1.1155   -5.9581   34.0617 C   0  0  0  0  0  0  0  0  0  0  0  0
    1.7247   -6.0924   32.8539 C   0  0  0  0  0  0  0  0  0  0  0  0
    2.8614   -5.4492   32.5488 O   0  0  0  0  0  0  0  0  0  0  0  0
    1.2376   -6.7364   31.8105 N   0  0  0  0  0  0  0  0  0  0  0  0
   -0.7584   -1.6654   30.4573 C   0  0  0  0  0  0  0  0  0  0  0  0
   -1.9062   -0.9929   30.8588 C   0  0  0  0  0  0  0  0  0  0  0  0
   -2.3843    0.0119   30.1518 N   0  0  0  0  0  0  0  0  0  0  0  0
   -1.4313    0.0578   29.0707 O   0  0  0  0  0  0  0  0  0  0  0  0
   -0.5297   -0.9639   29.3134 C   0  0  0  0  0  0  0  0  0  0  0  0
    0.5468   -1.1226   28.3306 C   0  0  0  0  0  0  0  0  0  0  0  0
   -6.3943    1.1323   35.7785 H   0  0  0  0  0  0  0  0  0  0  0  0
   -4.8714    1.8727   36.3949 H   0  0  0  0  0  0  0  0  0  0  0  0
   -5.8123    0.7653   37.4149 H   0  0  0  0  0  0  0  0  0  0  0  0
   -2.6428   -1.3228   34.6955 H   0  0  0  0  0  0  0  0  0  0  0  0
   -4.2193   -2.1368   34.3927 H   0  0  0  0  0  0  0  0  0  0  0  0
   -3.8848   -0.3795   32.2988 H   0  0  0  0  0  0  0  0  0  0  0  0
    0.7134   -2.7018   32.5064 H   0  0  0  0  0  0  0  0  0  0  0  0
   -1.1326   -4.7841   32.0538 H   0  0  0  0  0  0  0  0  0  0  0  0
   -0.8006   -5.0578   29.2294 H   0  0  0  0  0  0  0  0  0  0  0  0
    0.6995   -5.2082   30.0769 H   0  0  0  0  0  0  0  0  0  0  0  0
   -0.3779   -7.5034   29.8731 H   0  0  0  0  0  0  0  0  0  0  0  0
   -1.8156   -6.9520   30.7151 H   0  0  0  0  0  0  0  0  0  0  0  0
   -0.2948   -6.8915   36.2272 H   0  0  0  0  0  0  0  0  0  0  0  0
   -1.1805   -5.4487   35.6666 H   0  0  0  0  0  0  0  0  0  0  0  0
   -1.8096   -7.0773   35.3359 H   0  0  0  0  0  0  0  0  0  0  0  0
    1.5798   -5.4414   34.8884 H   0  0  0  0  0  0  0  0  0  0  0  0
    2.9145   -5.6216   31.5924 H   0  0  0  0  0  0  0  0  0  0  0  0
    1.5034   -0.7998   28.7536 H   0  0  0  0  0  0  0  0  0  0  0  0
    0.3573   -0.5228   27.4361 H   0  0  0  0  0  0  0  0  0  0  0  0
    0.6439   -2.1694   28.0286 H   0  0  0  0  0  0  0  0  0  0  0  0
  1  2  1  0
  2  3  1  0
  3  4  2  0
  3  5  1  0
  5  6  1  0
  6  7  1  0
  7  8  2  0
  8  9  1  0
  9 10  1  0
 10 11  1  0
 11 12  1  0
 12 13  1  0
 13 14  2  0
 14 15  1  0
 15 16  1  0
 15 17  2  0
 17 18  1  0
 18 19  1  0
 18 20  2  0
  9 21  1  0
 21 22  1  0
 22 23  2  0
 23 24  1  0
 24 25  1  0
 25 26  1  0
 22  7  1  0
 20 13  1  0
 25 21  2  0
  1 27  1  0
  1 28  1  0
  1 29  1  0
  5 30  1  0
  5 31  1  0
  6 32  1  0
  9 33  1  0
 10 34  1  0
 11 35  1  0
 11 36  1  0
 12 37  1  0
 12 38  1  0
 16 39  1  0
 16 40  1  0
 16 41  1  0
 17 42  1  0
 19 43  1  0
 26 44  1  0
 26 45  1  0
 26 46  1  0
M  END
>  <Energy>  (302) 
80.658514221299797

>  <compound_id>  (302) 
603

>  <target_id>  (302) 
1

>  <reference_id>  (302) 
59

>  <inspiration_ids>  (302) 
[59, 165]

>  <energy_score>  (302) 
-122.37781469520866

>  <distance_score>  (302) 
1.6105805534183832

>  <path>  (302) 
/opt/xchem-fragalysis-2/maxwin/BulkDock/SCRATCH/505733/C603-P59/C603-P59.minimised.mol

>  <scratch_subdir>  (302) 
/opt/xchem-fragalysis-2/maxwin/BulkDock/SCRATCH/505733/C603-P59

>  <fragmenstein_runtime>  (302) 
5.107865571975708

>  <fragmenstein_outcome>  (302) 
too moved

>  <fragmenstein_mode>  (302) 
expansion

>  <fragmenstein_error>  (302) 


$$$$
C603-P165
     RDKit          3D

 46 48  0  0  0  0  0  0  0  0999 V2000
   -6.9784   -0.3546   35.1337 C   0  0  0  0  0  0  0  0  0  0  0  0
   -5.8611   -1.2064   34.8772 O   0  0  0  0  0  0  0  0  0  0  0  0
   -4.8714   -0.5970   34.1693 C   0  0  0  0  0  0  0  0  0  0  0  0
   -4.8623    0.5774   33.8024 O   0  0  0  0  0  0  0  0  0  0  0  0
   -3.7449   -1.5683   33.8412 C   0  0  0  0  0  0  0  0  0  0  0  0
   -2.7336   -0.8277   33.0992 N   0  0  0  0  0  0  0  0  0  0  0  0
   -1.8388   -1.4463   32.2963 C   0  0  0  0  0  0  0  0  0  0  0  0
   -1.3577   -2.6976   32.4685 N   0  0  0  0  0  0  0  0  0  0  0  0
   -0.0199   -3.0061   31.4547 S   0  0  0  0  0  4  0  0  0  0  0  0
   -0.8587   -4.2417   30.7447 N   0  0  0  0  0  0  0  0  0  0  0  0
   -0.2126   -5.3312   30.0127 C   0  0  0  0  0  0  0  0  0  0  0  0
   -0.4913   -6.7616   30.5587 C   0  0  0  0  0  0  0  0  0  0  0  0
    0.1060   -6.8438   31.9117 C   0  0  0  0  0  0  0  0  0  0  0  0
   -0.6703   -7.0015   32.9934 N   0  0  0  0  0  0  0  0  0  0  0  0
   -0.1514   -6.5644   34.1614 C   0  0  0  0  0  0  0  0  0  0  0  0
   -0.9773   -6.7185   35.3969 C   0  0  0  0  0  0  0  0  0  0  0  0
    1.0712   -5.9367   34.2345 C   0  0  0  0  0  0  0  0  0  0  0  0
    1.7582   -5.9000   33.0623 C   0  0  0  0  0  0  0  0  0  0  0  0
    2.8981   -5.2132   32.9092 O   0  0  0  0  0  0  0  0  0  0  0  0
    1.3667   -6.4256   31.9227 N   0  0  0  0  0  0  0  0  0  0  0  0
   -0.3868   -1.5884   30.5916 C   0  0  0  0  0  0  0  0  0  0  0  0
   -1.3625   -0.7628   31.1342 C   0  0  0  0  0  0  0  0  0  0  0  0
   -1.6793    0.3727   30.5513 N   0  0  0  0  0  0  0  0  0  0  0  0
   -0.8142    0.3454   29.4035 O   0  0  0  0  0  0  0  0  0  0  0  0
   -0.1089   -0.8412   29.4903 C   0  0  0  0  0  0  0  0  0  0  0  0
    0.8221   -1.1196   28.3963 C   0  0  0  0  0  0  0  0  0  0  0  0
   -7.4621   -0.0753   34.1950 H   0  0  0  0  0  0  0  0  0  0  0  0
   -6.6704    0.5330   35.6952 H   0  0  0  0  0  0  0  0  0  0  0  0
   -7.6972   -0.9140   35.7389 H   0  0  0  0  0  0  0  0  0  0  0  0
   -3.3211   -1.9517   34.7729 H   0  0  0  0  0  0  0  0  0  0  0  0
   -4.1683   -2.3678   33.2253 H   0  0  0  0  0  0  0  0  0  0  0  0
   -3.0540    0.0948   32.8083 H   0  0  0  0  0  0  0  0  0  0  0  0
    0.8042   -3.1603   32.5226 H   0  0  0  0  0  0  0  0  0  0  0  0
   -1.5622   -3.8304   30.1296 H   0  0  0  0  0  0  0  0  0  0  0  0
   -0.6145   -5.2390   29.0132 H   0  0  0  0  0  0  0  0  0  0  0  0
    0.8647   -5.1532   29.8942 H   0  0  0  0  0  0  0  0  0  0  0  0
   -0.0030   -7.5117   29.9303 H   0  0  0  0  0  0  0  0  0  0  0  0
   -1.5448   -7.0337   30.6100 H   0  0  0  0  0  0  0  0  0  0  0  0
   -1.8747   -7.3089   35.1875 H   0  0  0  0  0  0  0  0  0  0  0  0
   -0.4089   -7.2392   36.1741 H   0  0  0  0  0  0  0  0  0  0  0  0
   -1.2873   -5.7392   35.7737 H   0  0  0  0  0  0  0  0  0  0  0  0
    1.4532   -5.4948   35.1423 H   0  0  0  0  0  0  0  0  0  0  0  0
    3.0119   -5.2807   31.9453 H   0  0  0  0  0  0  0  0  0  0  0  0
    0.7416   -2.1619   28.0770 H   0  0  0  0  0  0  0  0  0  0  0  0
    1.8536   -0.9414   28.7161 H   0  0  0  0  0  0  0  0  0  0  0  0
    0.6217   -0.4729   27.5387 H   0  0  0  0  0  0  0  0  0  0  0  0
  1  2  1  0
  2  3  1  0
  3  4  2  0
  3  5  1  0
  5  6  1  0
  6  7  1  0
  7  8  2  0
  8  9  1  0
  9 10  1  0
 10 11  1  0
 11 12  1  0
 12 13  1  0
 13 14  2  0
 14 15  1  0
 15 16  1  0
 15 17  2  0
 17 18  1  0
 18 19  1  0
 18 20  2  0
  9 21  1  0
 21 22  1  0
 22 23  2  0
 23 24  1  0
 24 25  1  0
 25 26  1  0
 22  7  1  0
 20 13  1  0
 25 21  2  0
  1 27  1  0
  1 28  1  0
  1 29  1  0
  5 30  1  0
  5 31  1  0
  6 32  1  0
  9 33  1  0
 10 34  1  0
 11 35  1  0
 11 36  1  0
 12 37  1  0
 12 38  1  0
 16 39  1  0
 16 40  1  0
 16 41  1  0
 17 42  1  0
 19 43  1  0
 26 44  1  0
 26 45  1  0
 26 46  1  0
M  END
>  <Energy>  (303) 
80.936820156118387

>  <compound_id>  (303) 
603

>  <target_id>  (303) 
1

>  <reference_id>  (303) 
165

>  <inspiration_ids>  (303) 
[59, 165]

>  <energy_score>  (303) 
-122.09950876038727

>  <distance_score>  (303) 
1.5812348808849077

>  <path>  (303) 
/opt/xchem-fragalysis-2/maxwin/BulkDock/SCRATCH/505733/C603-P165/C603-P165.minimised.mol

>  <scratch_subdir>  (303) 
/opt/xchem-fragalysis-2/maxwin/BulkDock/SCRATCH/505733/C603-P165

>  <fragmenstein_runtime>  (303) 
5.905889511108398

>  <fragmenstein_outcome>  (303) 
too moved

>  <fragmenstein_mode>  (303) 
expansion

>  <fragmenstein_error>  (303) 


$$$$
C604-P59
     RDKit          3D

 51 53  0  0  0  0  0  0  0  0999 V2000
   -7.0905   -0.0308   35.1006 C   0  0  0  0  0  0  0  0  0  0  0  0
   -6.0174   -0.9593   34.9258 O   0  0  0  0  0  0  0  0  0  0  0  0
   -5.0373   -0.5312   34.0825 C   0  0  0  0  0  0  0  0  0  0  0  0
   -4.9783    0.5688   33.5362 O   0  0  0  0  0  0  0  0  0  0  0  0
   -4.0117   -1.6305   33.8546 C   0  0  0  0  0  0  0  0  0  0  0  0
   -3.0505   -1.1722   32.8758 N   0  0  0  0  0  0  0  0  0  0  0  0
   -2.2488   -1.9890   32.1441 C   0  0  0  0  0  0  0  0  0  0  0  0
   -1.8713   -3.2106   32.3912 N   0  0  0  0  0  0  0  0  0  0  0  0
   -0.6500   -3.6516   31.3688 S   0  0  0  0  0  4  0  0  0  0  0  0
    0.5399   -4.1935   32.4401 N   0  0  0  0  0  0  0  0  0  0  0  0
    0.4372   -5.4753   33.1659 C   0  0  0  0  0  0  0  0  0  0  0  0
    0.0257   -5.3677   34.6511 C   0  0  0  0  0  0  0  0  0  0  0  0
    0.5676   -6.4766   35.5401 C   0  0  0  0  0  0  0  0  0  0  0  0
    1.5344   -7.2938   35.0603 N   0  0  0  0  0  0  0  0  0  0  0  0
    2.0972   -8.1481   35.9372 C   0  0  0  0  0  0  0  0  0  0  0  0
    1.7404   -8.2350   37.2569 C   0  0  0  0  0  0  0  0  0  0  0  0
    0.7483   -7.3722   37.6414 C   0  0  0  0  0  0  0  0  0  0  0  0
    0.3216   -7.3465   38.9393 O   0  0  0  0  0  0  0  0  0  0  0  0
    0.1476   -6.4943   36.8218 N   0  0  0  0  0  0  0  0  0  0  0  0
   -0.3662   -2.0380   30.7402 C   0  0  0  0  0  0  0  0  0  0  0  0
   -1.7779   -1.5071   30.8166 C   0  0  0  0  0  0  0  0  0  0  0  0
   -1.6550   -0.0920   30.5088 N   0  0  0  0  0  0  0  0  0  0  0  0
   -0.7496   -0.1534   29.3574 C   0  0  0  0  0  0  0  0  0  0  0  0
   -1.5956    0.1461   28.2369 N   0  0  0  0  0  0  0  0  0  0  0  0
   -0.1588   -1.6057   29.3040 C   0  0  0  0  0  0  0  0  0  0  0  0
    1.2635   -1.5837   28.7960 C   0  0  0  0  0  0  0  0  0  0  0  0
   -7.7547   -0.0774   34.2338 H   0  0  0  0  0  0  0  0  0  0  0  0
   -7.6573   -0.3368   35.9844 H   0  0  0  0  0  0  0  0  0  0  0  0
   -6.7244    0.9872   35.2662 H   0  0  0  0  0  0  0  0  0  0  0  0
   -4.5484   -2.4951   33.4592 H   0  0  0  0  0  0  0  0  0  0  0  0
   -3.5146   -1.8646   34.7993 H   0  0  0  0  0  0  0  0  0  0  0  0
   -3.2266   -0.2538   32.4736 H   0  0  0  0  0  0  0  0  0  0  0  0
   -1.0091   -4.5616   30.4420 H   0  0  0  0  0  0  0  0  0  0  0  0
    0.7629   -3.4548   33.1068 H   0  0  0  0  0  0  0  0  0  0  0  0
    1.4380   -5.9126   33.0842 H   0  0  0  0  0  0  0  0  0  0  0  0
   -0.2344   -6.1644   32.6396 H   0  0  0  0  0  0  0  0  0  0  0  0
    0.4025   -4.4268   35.0712 H   0  0  0  0  0  0  0  0  0  0  0  0
   -1.0654   -5.3437   34.7301 H   0  0  0  0  0  0  0  0  0  0  0  0
    2.8841   -8.7800   35.5379 H   0  0  0  0  0  0  0  0  0  0  0  0
    2.2184   -8.9304   37.9295 H   0  0  0  0  0  0  0  0  0  0  0  0
    0.8194   -8.0028   39.4476 H   0  0  0  0  0  0  0  0  0  0  0  0
    0.3230   -1.5341   31.4314 H   0  0  0  0  0  0  0  0  0  0  0  0
   -2.4504   -1.9898   30.0878 H   0  0  0  0  0  0  0  0  0  0  0  0
   -2.5412    0.2248   30.1139 H   0  0  0  0  0  0  0  0  0  0  0  0
    0.0390    0.5996   29.4643 H   0  0  0  0  0  0  0  0  0  0  0  0
   -1.7104    1.1555   28.1508 H   0  0  0  0  0  0  0  0  0  0  0  0
   -1.1625   -0.1690   27.3669 H   0  0  0  0  0  0  0  0  0  0  0  0
   -0.7429   -2.2504   28.6300 H   0  0  0  0  0  0  0  0  0  0  0  0
    1.6714   -2.5991   28.7567 H   0  0  0  0  0  0  0  0  0  0  0  0
    1.9135   -0.9907   29.4483 H   0  0  0  0  0  0  0  0  0  0  0  0
    1.3158   -1.1565   27.7901 H   0  0  0  0  0  0  0  0  0  0  0  0
  1  2  1  0
  2  3  1  0
  3  4  2  0
  3  5  1  0
  5  6  1  0
  6  7  1  0
  7  8  2  0
  8  9  1  0
  9 10  1  0
 10 11  1  0
 11 12  1  0
 12 13  1  0
 13 14  2  0
 14 15  1  0
 15 16  2  0
 16 17  1  0
 17 18  1  0
 17 19  2  0
  9 20  1  0
 20 21  1  0
 21 22  1  0
 22 23  1  0
 23 24  1  0
 23 25  1  0
 25 26  1  0
 21  7  1  0
 19 13  1  0
 25 20  1  0
  1 27  1  0
  1 28  1  0
  1 29  1  0
  5 30  1  0
  5 31  1  0
  6 32  1  0
  9 33  1  0
 10 34  1  0
 11 35  1  0
 11 36  1  0
 12 37  1  0
 12 38  1  0
 15 39  1  0
 16 40  1  0
 18 41  1  0
 20 42  1  0
 21 43  1  0
 22 44  1  0
 23 45  1  0
 24 46  1  0
 24 47  1  0
 25 48  1  0
 26 49  1  0
 26 50  1  0
 26 51  1  0
M  END
>  <Energy>  (304) 
-48.124166581491139

>  <compound_id>  (304) 
604

>  <target_id>  (304) 
1

>  <reference_id>  (304) 
59

>  <inspiration_ids>  (304) 
[59, 166]

>  <energy_score>  (304) 
-79.85362746063302

>  <distance_score>  (304) 
0.9754758689882724

>  <path>  (304) 
/opt/xchem-fragalysis-2/maxwin/BulkDock/SCRATCH/505733/C604-P59/C604-P59.minimised.mol

>  <scratch_subdir>  (304) 
/opt/xchem-fragalysis-2/maxwin/BulkDock/SCRATCH/505733/C604-P59

>  <fragmenstein_runtime>  (304) 
3.4014692306518555

>  <fragmenstein_outcome>  (304) 
acceptable

>  <fragmenstein_mode>  (304) 
expansion

>  <fragmenstein_error>  (304) 


$$$$
C604-P166
     RDKit          3D

 51 53  0  0  0  0  0  0  0  0999 V2000
   -6.9848   -0.2898   34.0183 C   0  0  0  0  0  0  0  0  0  0  0  0
   -5.7615   -0.8062   34.5418 O   0  0  0  0  0  0  0  0  0  0  0  0
   -4.6490   -0.2914   33.9513 C   0  0  0  0  0  0  0  0  0  0  0  0
   -4.6314    0.5503   33.0543 O   0  0  0  0  0  0  0  0  0  0  0  0
   -3.3923   -0.8642   34.5904 C   0  0  0  0  0  0  0  0  0  0  0  0
   -2.2577   -0.5878   33.7196 N   0  0  0  0  0  0  0  0  0  0  0  0
   -1.8282   -1.5276   32.8247 C   0  0  0  0  0  0  0  0  0  0  0  0
   -1.6225   -2.7972   33.0295 N   0  0  0  0  0  0  0  0  0  0  0  0
   -0.8943   -3.4748   31.7172 S   0  0  0  0  0  4  0  0  0  0  0  0
    0.2940   -4.4644   32.3964 N   0  0  0  0  0  0  0  0  0  0  0  0
   -0.0789   -5.6785   33.1574 C   0  0  0  0  0  0  0  0  0  0  0  0
   -0.2288   -5.4985   34.6865 C   0  0  0  0  0  0  0  0  0  0  0  0
    0.6360   -6.4549   35.4885 C   0  0  0  0  0  0  0  0  0  0  0  0
    1.9107   -6.6356   35.0708 N   0  0  0  0  0  0  0  0  0  0  0  0
    2.7300   -7.3352   35.8794 C   0  0  0  0  0  0  0  0  0  0  0  0
    2.3323   -7.8807   37.0673 C   0  0  0  0  0  0  0  0  0  0  0  0
    1.0152   -7.6771   37.3725 C   0  0  0  0  0  0  0  0  0  0  0  0
    0.5349   -8.2613   38.5094 O   0  0  0  0  0  0  0  0  0  0  0  0
    0.1385   -6.9849   36.6247 N   0  0  0  0  0  0  0  0  0  0  0  0
   -0.3798   -1.9503   31.0310 C   0  0  0  0  0  0  0  0  0  0  0  0
   -1.6051   -1.1358   31.4014 C   0  0  0  0  0  0  0  0  0  0  0  0
   -1.3000    0.2327   31.0180 N   0  0  0  0  0  0  0  0  0  0  0  0
   -0.6135    0.0127   29.7420 C   0  0  0  0  0  0  0  0  0  0  0  0
   -1.5085    0.5383   28.7526 N   0  0  0  0  0  0  0  0  0  0  0  0
   -0.3821   -1.5270   29.5795 C   0  0  0  0  0  0  0  0  0  0  0  0
    0.8796   -1.7949   28.7900 C   0  0  0  0  0  0  0  0  0  0  0  0
   -7.0218   -0.3897   32.9289 H   0  0  0  0  0  0  0  0  0  0  0  0
   -7.7999   -0.8777   34.4482 H   0  0  0  0  0  0  0  0  0  0  0  0
   -7.1106    0.7515   34.3260 H   0  0  0  0  0  0  0  0  0  0  0  0
   -3.5136   -1.9339   34.7684 H   0  0  0  0  0  0  0  0  0  0  0  0
   -3.2407   -0.3577   35.5483 H   0  0  0  0  0  0  0  0  0  0  0  0
   -2.3282    0.3351   33.2876 H   0  0  0  0  0  0  0  0  0  0  0  0
   -1.8040   -4.1182   30.9719 H   0  0  0  0  0  0  0  0  0  0  0  0
    0.9259   -3.9068   32.9720 H   0  0  0  0  0  0  0  0  0  0  0  0
    0.6743   -6.4368   32.9174 H   0  0  0  0  0  0  0  0  0  0  0  0
   -1.0188   -6.0751   32.7529 H   0  0  0  0  0  0  0  0  0  0  0  0
    0.0438   -4.4810   34.9907 H   0  0  0  0  0  0  0  0  0  0  0  0
   -1.2793   -5.6416   34.9651 H   0  0  0  0  0  0  0  0  0  0  0  0
    3.7554   -7.4316   35.5357 H   0  0  0  0  0  0  0  0  0  0  0  0
    2.9933   -8.4413   37.7107 H   0  0  0  0  0  0  0  0  0  0  0  0
   -0.0486   -8.9624   38.1509 H   0  0  0  0  0  0  0  0  0  0  0  0
    0.5278   -1.6335   31.5618 H   0  0  0  0  0  0  0  0  0  0  0  0
   -2.5112   -1.4679   30.8692 H   0  0  0  0  0  0  0  0  0  0  0  0
   -2.1785    0.6844   30.7598 H   0  0  0  0  0  0  0  0  0  0  0  0
    0.3352    0.5612   29.7386 H   0  0  0  0  0  0  0  0  0  0  0  0
   -1.4454    1.5562   28.7369 H   0  0  0  0  0  0  0  0  0  0  0  0
   -1.2188    0.2299   27.8234 H   0  0  0  0  0  0  0  0  0  0  0  0
   -1.2201   -2.0035   29.0487 H   0  0  0  0  0  0  0  0  0  0  0  0
    1.0253   -2.8714   28.6543 H   0  0  0  0  0  0  0  0  0  0  0  0
    1.7642   -1.4031   29.3035 H   0  0  0  0  0  0  0  0  0  0  0  0
    0.8296   -1.3254   27.8045 H   0  0  0  0  0  0  0  0  0  0  0  0
  1  2  1  0
  2  3  1  0
  3  4  2  0
  3  5  1  0
  5  6  1  0
  6  7  1  0
  7  8  2  0
  8  9  1  0
  9 10  1  0
 10 11  1  0
 11 12  1  0
 12 13  1  0
 13 14  2  0
 14 15  1  0
 15 16  2  0
 16 17  1  0
 17 18  1  0
 17 19  2  0
  9 20  1  0
 20 21  1  0
 21 22  1  0
 22 23  1  0
 23 24  1  0
 23 25  1  0
 25 26  1  0
 21  7  1  0
 19 13  1  0
 25 20  1  0
  1 27  1  0
  1 28  1  0
  1 29  1  0
  5 30  1  0
  5 31  1  0
  6 32  1  0
  9 33  1  0
 10 34  1  0
 11 35  1  0
 11 36  1  0
 12 37  1  0
 12 38  1  0
 15 39  1  0
 16 40  1  0
 18 41  1  0
 20 42  1  0
 21 43  1  0
 22 44  1  0
 23 45  1  0
 24 46  1  0
 24 47  1  0
 25 48  1  0
 26 49  1  0
 26 50  1  0
 26 51  1  0
M  END
>  <Energy>  (305) 
-49.651446745374066

>  <compound_id>  (305) 
604

>  <target_id>  (305) 
1

>  <reference_id>  (305) 
166

>  <inspiration_ids>  (305) 
[59, 166]

>  <energy_score>  (305) 
-81.38090762451583

>  <distance_score>  (305) 
1.2359759161584

>  <path>  (305) 
/opt/xchem-fragalysis-2/maxwin/BulkDock/SCRATCH/505733/C604-P166/C604-P166.minimised.mol

>  <scratch_subdir>  (305) 
/opt/xchem-fragalysis-2/maxwin/BulkDock/SCRATCH/505733/C604-P166

>  <fragmenstein_runtime>  (305) 
3.3860487937927246

>  <fragmenstein_outcome>  (305) 
too moved

>  <fragmenstein_mode>  (305) 
expansion

>  <fragmenstein_error>  (305) 


$$$$
C605-P59
     RDKit          3D

 58 59  0  0  0  0  0  0  0  0999 V2000
    1.7945  -10.2491   39.8000 C   0  0  0  0  0  0  0  0  0  0  0  0
    0.3646  -10.0786   39.3242 C   0  0  0  0  0  0  0  0  0  0  0  0
    0.3525   -9.5944   37.9735 O   0  0  0  0  0  0  0  0  0  0  0  0
    0.3730   -8.2488   37.8231 C   0  0  0  0  0  0  0  0  0  0  0  0
    0.4493   -7.4095   38.7034 O   0  0  0  0  0  0  0  0  0  0  0  0
    0.2774   -7.9612   36.3773 C   0  0  0  0  0  0  0  0  0  0  0  0
    0.3344   -6.6982   35.9277 C   0  0  0  0  0  0  0  0  0  0  0  0
    0.2947   -6.3113   34.5099 C   0  0  0  0  0  0  0  0  0  0  0  0
    0.8583   -5.0845   34.1404 C   0  0  0  0  0  0  0  0  0  0  0  0
    0.8263   -4.6436   32.8144 C   0  0  0  0  0  0  0  0  0  0  0  0
    0.2190   -5.4150   31.8164 C   0  0  0  0  0  0  0  0  0  0  0  0
    0.1188   -4.8808   30.4047 C   0  0  0  0  0  0  0  0  0  0  0  0
   -0.2821   -3.4114   30.2374 C   0  0  0  0  0  0  0  0  0  0  0  0
   -1.4455   -3.0859   31.0710 N   0  0  0  0  0  0  0  0  0  0  0  0
   -1.8264   -1.9016   31.1822 C   0  0  0  0  0  0  0  0  0  0  0  0
   -2.8131   -1.3074   32.0314 N   0  0  0  0  0  0  0  0  0  0  0  0
   -3.6109   -1.8628   33.0890 C   0  0  0  0  0  0  0  0  0  0  0  0
   -4.6121   -0.8321   33.5871 C   0  0  0  0  0  0  0  0  0  0  0  0
   -4.5915    0.3532   33.2662 O   0  0  0  0  0  0  0  0  0  0  0  0
   -5.5315   -1.4031   34.4141 O   0  0  0  0  0  0  0  0  0  0  0  0
   -6.5846   -0.5181   34.8073 C   0  0  0  0  0  0  0  0  0  0  0  0
   -1.2624   -0.8318   30.3451 C   0  0  0  0  0  0  0  0  0  0  0  0
   -1.3197   -0.6990   28.9366 C   0  0  0  0  0  0  0  0  0  0  0  0
   -0.6780    0.4850   28.6849 C   0  0  0  0  0  0  0  0  0  0  0  0
   -0.3760    1.2408   27.4614 C   0  0  0  0  0  0  0  0  0  0  0  0
   -0.2616    1.0324   29.8565 O   0  0  0  0  0  0  0  0  0  0  0  0
   -0.6609    0.2283   30.9094 N   0  0  0  0  0  0  0  0  0  0  0  0
   -0.3056   -6.6724   32.1825 C   0  0  0  0  0  0  0  0  0  0  0  0
   -0.8905   -7.6177   31.1831 C   0  0  0  0  0  0  0  0  0  0  0  0
    0.0319   -7.9731   30.1463 N   0  0  0  0  0  0  0  0  0  0  0  0
   -2.0355   -7.9167   31.3421 O   0  0  0  0  0  0  0  0  0  0  0  0
   -0.3000   -7.0963   33.5183 C   0  0  0  0  0  0  0  0  0  0  0  0
    2.3478  -10.9113   39.1259 H   0  0  0  0  0  0  0  0  0  0  0  0
    1.8203  -10.6703   40.8088 H   0  0  0  0  0  0  0  0  0  0  0  0
    2.3217   -9.2898   39.8074 H   0  0  0  0  0  0  0  0  0  0  0  0
   -0.1432  -11.0486   39.3216 H   0  0  0  0  0  0  0  0  0  0  0  0
   -0.2030   -9.4179   39.9895 H   0  0  0  0  0  0  0  0  0  0  0  0
    0.1673   -8.8214   35.7320 H   0  0  0  0  0  0  0  0  0  0  0  0
    0.4508   -5.8829   36.6419 H   0  0  0  0  0  0  0  0  0  0  0  0
    1.3165   -4.4403   34.8901 H   0  0  0  0  0  0  0  0  0  0  0  0
    1.2473   -3.6660   32.5857 H   0  0  0  0  0  0  0  0  0  0  0  0
    1.0837   -5.0436   29.9083 H   0  0  0  0  0  0  0  0  0  0  0  0
   -0.6137   -5.4645   29.8484 H   0  0  0  0  0  0  0  0  0  0  0  0
   -0.5049   -3.2584   29.1757 H   0  0  0  0  0  0  0  0  0  0  0  0
    0.5744   -2.7805   30.5060 H   0  0  0  0  0  0  0  0  0  0  0  0
   -2.7912   -0.2941   31.9026 H   0  0  0  0  0  0  0  0  0  0  0  0
   -2.9682   -2.1490   33.9247 H   0  0  0  0  0  0  0  0  0  0  0  0
   -4.1664   -2.7203   32.7026 H   0  0  0  0  0  0  0  0  0  0  0  0
   -7.2162   -0.2878   33.9449 H   0  0  0  0  0  0  0  0  0  0  0  0
   -6.1850    0.3952   35.2591 H   0  0  0  0  0  0  0  0  0  0  0  0
   -7.1950   -1.0336   35.5540 H   0  0  0  0  0  0  0  0  0  0  0  0
   -1.7727   -1.3679   28.2167 H   0  0  0  0  0  0  0  0  0  0  0  0
    0.6400    1.0221   27.1208 H   0  0  0  0  0  0  0  0  0  0  0  0
   -0.4553    2.3182   27.6368 H   0  0  0  0  0  0  0  0  0  0  0  0
   -1.0763    0.9798   26.6627 H   0  0  0  0  0  0  0  0  0  0  0  0
    0.9723   -7.6248   30.3985 H   0  0  0  0  0  0  0  0  0  0  0  0
    0.9052   -7.4348   30.2738 H   0  0  0  0  0  0  0  0  0  0  0  0
   -0.7796   -8.0408   33.7652 H   0  0  0  0  0  0  0  0  0  0  0  0
  1  2  1  0
  2  3  1  0
  3  4  1  0
  4  5  2  0
  4  6  1  0
  6  7  2  3
  7  8  1  0
  8  9  2  0
  9 10  1  0
 10 11  2  0
 11 12  1  0
 12 13  1  0
 13 14  1  0
 14 15  2  3
 15 16  1  0
 16 17  1  0
 17 18  1  0
 18 19  2  0
 18 20  1  0
 20 21  1  0
 15 22  1  0
 22 23  1  0
 23 24  2  0
 24 25  1  0
 24 26  1  0
 26 27  1  0
 11 28  1  0
 28 29  1  0
 29 30  1  0
 29 31  2  0
 28 32  2  0
 32  8  1  0
 27 22  2  0
  1 33  1  0
  1 34  1  0
  1 35  1  0
  2 36  1  0
  2 37  1  0
  6 38  1  0
  7 39  1  0
  9 40  1  0
 10 41  1  0
 12 42  1  0
 12 43  1  0
 13 44  1  0
 13 45  1  0
 16 46  1  0
 17 47  1  0
 17 48  1  0
 21 49  1  0
 21 50  1  0
 21 51  1  0
 23 52  1  0
 25 53  1  0
 25 54  1  0
 25 55  1  0
 30 56  1  0
 30 57  1  0
 32 58  1  0
M  END
>  <Energy>  (306) 
228.63025955511489

>  <compound_id>  (306) 
605

>  <target_id>  (306) 
1

>  <reference_id>  (306) 
59

>  <inspiration_ids>  (306) 
[59, 167]

>  <energy_score>  (306) 
109.54378129867138

>  <distance_score>  (306) 
1.545033429030228

>  <path>  (306) 
/opt/xchem-fragalysis-2/maxwin/BulkDock/SCRATCH/505733/C605-P59/C605-P59.minimised.mol

>  <scratch_subdir>  (306) 
/opt/xchem-fragalysis-2/maxwin/BulkDock/SCRATCH/505733/C605-P59

>  <fragmenstein_runtime>  (306) 
12.591907739639282

>  <fragmenstein_outcome>  (306) 
too moved

>  <fragmenstein_mode>  (306) 
expansion

>  <fragmenstein_error>  (306) 


$$$$
C605-P167
     RDKit          3D

 58 59  0  0  0  0  0  0  0  0999 V2000
    2.5563   -8.8163   40.9401 C   0  0  0  0  0  0  0  0  0  0  0  0
    1.8331   -9.5993   39.8602 C   0  0  0  0  0  0  0  0  0  0  0  0
    2.0163   -8.9633   38.5863 O   0  0  0  0  0  0  0  0  0  0  0  0
    1.0857   -8.0280   38.2797 C   0  0  0  0  0  0  0  0  0  0  0  0
    0.2087   -7.5820   39.0000 O   0  0  0  0  0  0  0  0  0  0  0  0
    1.3590   -7.5605   36.9078 C   0  0  0  0  0  0  0  0  0  0  0  0
    0.3398   -7.4096   36.0498 C   0  0  0  0  0  0  0  0  0  0  0  0
    0.4872   -6.8132   34.7208 C   0  0  0  0  0  0  0  0  0  0  0  0
    1.1480   -5.5949   34.5790 C   0  0  0  0  0  0  0  0  0  0  0  0
    1.1965   -4.9695   33.3417 C   0  0  0  0  0  0  0  0  0  0  0  0
    0.5756   -5.5379   32.2123 C   0  0  0  0  0  0  0  0  0  0  0  0
    0.4880   -4.6308   31.0008 C   0  0  0  0  0  0  0  0  0  0  0  0
   -0.6267   -3.6023   31.2397 C   0  0  0  0  0  0  0  0  0  0  0  0
   -0.3333   -2.3842   30.5293 N   0  0  0  0  0  0  0  0  0  0  0  0
   -0.8904   -1.2987   30.7987 C   0  0  0  0  0  0  0  0  0  0  0  0
   -1.9439   -0.9754   31.7291 N   0  0  0  0  0  0  0  0  0  0  0  0
   -2.7539   -1.8139   32.5752 C   0  0  0  0  0  0  0  0  0  0  0  0
   -3.9913   -1.0566   33.0519 C   0  0  0  0  0  0  0  0  0  0  0  0
   -4.0948    0.1658   33.0866 O   0  0  0  0  0  0  0  0  0  0  0  0
   -4.9783   -1.9261   33.4197 O   0  0  0  0  0  0  0  0  0  0  0  0
   -6.2121   -1.2875   33.7602 C   0  0  0  0  0  0  0  0  0  0  0  0
   -0.4380   -0.1205   30.0729 C   0  0  0  0  0  0  0  0  0  0  0  0
    0.2434   -0.0529   28.8357 C   0  0  0  0  0  0  0  0  0  0  0  0
    0.4330    1.2886   28.6286 C   0  0  0  0  0  0  0  0  0  0  0  0
    1.0576    2.0845   27.5644 C   0  0  0  0  0  0  0  0  0  0  0  0
   -0.0949    1.9846   29.6673 O   0  0  0  0  0  0  0  0  0  0  0  0
   -0.6411    1.1057   30.5793 N   0  0  0  0  0  0  0  0  0  0  0  0
   -0.0398   -6.8032   32.3277 C   0  0  0  0  0  0  0  0  0  0  0  0
   -0.5274   -7.5445   31.1028 C   0  0  0  0  0  0  0  0  0  0  0  0
   -1.7658   -8.2659   31.2718 N   0  0  0  0  0  0  0  0  0  0  0  0
    0.1950   -7.4484   30.1528 O   0  0  0  0  0  0  0  0  0  0  0  0
   -0.0951   -7.4164   33.5963 C   0  0  0  0  0  0  0  0  0  0  0  0
    3.6166   -8.7060   40.6900 H   0  0  0  0  0  0  0  0  0  0  0  0
    2.4722   -9.3206   41.9068 H   0  0  0  0  0  0  0  0  0  0  0  0
    2.1450   -7.8065   41.0354 H   0  0  0  0  0  0  0  0  0  0  0  0
    2.2656  -10.6020   39.7848 H   0  0  0  0  0  0  0  0  0  0  0  0
    0.7704   -9.7185   40.1003 H   0  0  0  0  0  0  0  0  0  0  0  0
    2.3876   -7.3248   36.6724 H   0  0  0  0  0  0  0  0  0  0  0  0
   -0.6657   -7.7070   36.3410 H   0  0  0  0  0  0  0  0  0  0  0  0
    1.5873   -5.0932   35.4389 H   0  0  0  0  0  0  0  0  0  0  0  0
    1.6719   -3.9909   33.2695 H   0  0  0  0  0  0  0  0  0  0  0  0
    1.4575   -4.1320   30.8668 H   0  0  0  0  0  0  0  0  0  0  0  0
    0.3057   -5.1592   30.0636 H   0  0  0  0  0  0  0  0  0  0  0  0
   -0.7286   -3.4025   32.3098 H   0  0  0  0  0  0  0  0  0  0  0  0
   -1.5649   -4.0129   30.8758 H   0  0  0  0  0  0  0  0  0  0  0  0
   -2.0817    0.0400   31.7340 H   0  0  0  0  0  0  0  0  0  0  0  0
   -2.1908   -2.1248   33.4584 H   0  0  0  0  0  0  0  0  0  0  0  0
   -3.1012   -2.6789   32.0060 H   0  0  0  0  0  0  0  0  0  0  0  0
   -6.9159   -2.0613   34.0781 H   0  0  0  0  0  0  0  0  0  0  0  0
   -6.6298   -0.7782   32.8866 H   0  0  0  0  0  0  0  0  0  0  0  0
   -6.0707   -0.5884   34.5903 H   0  0  0  0  0  0  0  0  0  0  0  0
    0.5354   -0.8729   28.1963 H   0  0  0  0  0  0  0  0  0  0  0  0
    1.9526    1.5852   27.1819 H   0  0  0  0  0  0  0  0  0  0  0  0
    1.3608    3.0699   27.9327 H   0  0  0  0  0  0  0  0  0  0  0  0
    0.3573    2.2340   26.7377 H   0  0  0  0  0  0  0  0  0  0  0  0
   -2.1745   -8.0250   32.1952 H   0  0  0  0  0  0  0  0  0  0  0  0
   -2.0532   -8.2162   32.2673 H   0  0  0  0  0  0  0  0  0  0  0  0
   -0.5660   -8.3862   33.7325 H   0  0  0  0  0  0  0  0  0  0  0  0
  1  2  1  0
  2  3  1  0
  3  4  1  0
  4  5  2  0
  4  6  1  0
  6  7  2  3
  7  8  1  0
  8  9  2  0
  9 10  1  0
 10 11  2  0
 11 12  1  0
 12 13  1  0
 13 14  1  0
 14 15  2  3
 15 16  1  0
 16 17  1  0
 17 18  1  0
 18 19  2  0
 18 20  1  0
 20 21  1  0
 15 22  1  0
 22 23  1  0
 23 24  2  0
 24 25  1  0
 24 26  1  0
 26 27  1  0
 11 28  1  0
 28 29  1  0
 29 30  1  0
 29 31  2  0
 28 32  2  0
 32  8  1  0
 27 22  2  0
  1 33  1  0
  1 34  1  0
  1 35  1  0
  2 36  1  0
  2 37  1  0
  6 38  1  0
  7 39  1  0
  9 40  1  0
 10 41  1  0
 12 42  1  0
 12 43  1  0
 13 44  1  0
 13 45  1  0
 16 46  1  0
 17 47  1  0
 17 48  1  0
 21 49  1  0
 21 50  1  0
 21 51  1  0
 23 52  1  0
 25 53  1  0
 25 54  1  0
 25 55  1  0
 30 56  1  0
 30 57  1  0
 32 58  1  0
M  END
>  <Energy>  (307) 
230.89545008138117

>  <compound_id>  (307) 
605

>  <target_id>  (307) 
1

>  <reference_id>  (307) 
167

>  <inspiration_ids>  (307) 
[59, 167]

>  <energy_score>  (307) 
111.80897182494067

>  <distance_score>  (307) 
2.045702937100129

>  <path>  (307) 
/opt/xchem-fragalysis-2/maxwin/BulkDock/SCRATCH/505733/C605-P167/C605-P167.minimised.mol

>  <scratch_subdir>  (307) 
/opt/xchem-fragalysis-2/maxwin/BulkDock/SCRATCH/505733/C605-P167

>  <fragmenstein_runtime>  (307) 
12.608428955078125

>  <fragmenstein_outcome>  (307) 
too moved

>  <fragmenstein_mode>  (307) 
expansion

>  <fragmenstein_error>  (307) 


$$$$
C605-P59
     RDKit          3D

 58 59  0  0  0  0  0  0  0  0999 V2000
    0.4671  -11.2414   39.0899 C   0  0  0  0  0  0  0  0  0  0  0  0
   -0.1850  -10.5738   37.8967 C   0  0  0  0  0  0  0  0  0  0  0  0
    0.1077   -9.1698   37.9390 O   0  0  0  0  0  0  0  0  0  0  0  0
    0.9471   -8.6681   37.0031 C   0  0  0  0  0  0  0  0  0  0  0  0
    1.5581   -9.2589   36.1297 O   0  0  0  0  0  0  0  0  0  0  0  0
    1.0244   -7.2194   37.2625 C   0  0  0  0  0  0  0  0  0  0  0  0
    1.0478   -6.2270   36.3621 C   0  0  0  0  0  0  0  0  0  0  0  0
    0.9299   -6.2346   34.8954 C   0  0  0  0  0  0  0  0  0  0  0  0
    1.5647   -5.2008   34.1987 C   0  0  0  0  0  0  0  0  0  0  0  0
    1.3201   -4.9854   32.8406 C   0  0  0  0  0  0  0  0  0  0  0  0
    0.4157   -5.7891   32.1326 C   0  0  0  0  0  0  0  0  0  0  0  0
    0.0324   -5.3913   30.7233 C   0  0  0  0  0  0  0  0  0  0  0  0
   -0.2826   -3.9017   30.4609 C   0  0  0  0  0  0  0  0  0  0  0  0
   -1.4049   -3.4339   31.2862 N   0  0  0  0  0  0  0  0  0  0  0  0
   -1.7202   -2.2234   31.3263 C   0  0  0  0  0  0  0  0  0  0  0  0
   -2.6999   -1.5293   32.1147 N   0  0  0  0  0  0  0  0  0  0  0  0
   -3.5593   -1.9834   33.1699 C   0  0  0  0  0  0  0  0  0  0  0  0
   -4.5403   -0.8947   33.5765 C   0  0  0  0  0  0  0  0  0  0  0  0
   -4.4855    0.2681   33.1868 O   0  0  0  0  0  0  0  0  0  0  0  0
   -5.4929   -1.3931   34.4141 O   0  0  0  0  0  0  0  0  0  0  0  0
   -6.5376   -0.4681   34.7275 C   0  0  0  0  0  0  0  0  0  0  0  0
   -1.1015   -1.2113   30.4519 C   0  0  0  0  0  0  0  0  0  0  0  0
   -1.0792   -1.1544   29.0372 C   0  0  0  0  0  0  0  0  0  0  0  0
   -0.5077    0.0602   28.7572 C   0  0  0  0  0  0  0  0  0  0  0  0
   -0.2046    0.7843   27.5149 C   0  0  0  0  0  0  0  0  0  0  0  0
   -0.1944    0.6915   29.9172 O   0  0  0  0  0  0  0  0  0  0  0  0
   -0.5957   -0.0850   30.9859 N   0  0  0  0  0  0  0  0  0  0  0  0
   -0.1327   -6.9087   32.7973 C   0  0  0  0  0  0  0  0  0  0  0  0
   -1.0992   -7.8590   32.1511 C   0  0  0  0  0  0  0  0  0  0  0  0
   -0.6725   -8.4154   30.9001 N   0  0  0  0  0  0  0  0  0  0  0  0
   -2.1305   -7.9698   32.7381 O   0  0  0  0  0  0  0  0  0  0  0  0
    0.0979   -7.0988   34.1781 C   0  0  0  0  0  0  0  0  0  0  0  0
    0.2150  -12.3042   39.1290 H   0  0  0  0  0  0  0  0  0  0  0  0
    0.1381  -10.7694   40.0217 H   0  0  0  0  0  0  0  0  0  0  0  0
    1.5556  -11.1346   39.0469 H   0  0  0  0  0  0  0  0  0  0  0  0
   -1.2697  -10.6941   37.9573 H   0  0  0  0  0  0  0  0  0  0  0  0
    0.1319  -11.0261   36.9594 H   0  0  0  0  0  0  0  0  0  0  0  0
    1.0608   -6.9663   38.3188 H   0  0  0  0  0  0  0  0  0  0  0  0
    1.1271   -5.2201   36.7765 H   0  0  0  0  0  0  0  0  0  0  0  0
    2.2169   -4.5031   34.7230 H   0  0  0  0  0  0  0  0  0  0  0  0
    1.7941   -4.1266   32.3692 H   0  0  0  0  0  0  0  0  0  0  0  0
   -0.8392   -5.9619   30.4044 H   0  0  0  0  0  0  0  0  0  0  0  0
    0.8584   -5.6903   30.0658 H   0  0  0  0  0  0  0  0  0  0  0  0
    0.6143   -3.2979   30.6398 H   0  0  0  0  0  0  0  0  0  0  0  0
   -0.5419   -3.8193   29.3995 H   0  0  0  0  0  0  0  0  0  0  0  0
   -2.6154   -0.5258   31.9371 H   0  0  0  0  0  0  0  0  0  0  0  0
   -2.9594   -2.2420   34.0448 H   0  0  0  0  0  0  0  0  0  0  0  0
   -4.1434   -2.8286   32.8024 H   0  0  0  0  0  0  0  0  0  0  0  0
   -7.1549   -0.2962   33.8416 H   0  0  0  0  0  0  0  0  0  0  0  0
   -7.1639   -0.9185   35.5026 H   0  0  0  0  0  0  0  0  0  0  0  0
   -6.1320    0.4718   35.1146 H   0  0  0  0  0  0  0  0  0  0  0  0
   -1.4700   -1.8713   28.3279 H   0  0  0  0  0  0  0  0  0  0  0  0
   -0.9442    0.5491   26.7444 H   0  0  0  0  0  0  0  0  0  0  0  0
    0.7884    0.5083   27.1500 H   0  0  0  0  0  0  0  0  0  0  0  0
   -0.2219    1.8671   27.6737 H   0  0  0  0  0  0  0  0  0  0  0  0
    0.2442   -8.0100   30.6464 H   0  0  0  0  0  0  0  0  0  0  0  0
    0.3309   -8.1994   30.7595 H   0  0  0  0  0  0  0  0  0  0  0  0
   -0.4381   -7.8985   34.6891 H   0  0  0  0  0  0  0  0  0  0  0  0
  1  2  1  0
  2  3  1  0
  3  4  1  0
  4  5  2  0
  4  6  1  0
  6  7  2  3
  7  8  1  0
  8  9  2  0
  9 10  1  0
 10 11  2  0
 11 12  1  0
 12 13  1  0
 13 14  1  0
 14 15  2  3
 15 16  1  0
 16 17  1  0
 17 18  1  0
 18 19  2  0
 18 20  1  0
 20 21  1  0
 15 22  1  0
 22 23  1  0
 23 24  2  0
 24 25  1  0
 24 26  1  0
 26 27  1  0
 11 28  1  0
 28 29  1  0
 29 30  1  0
 29 31  2  0
 28 32  2  0
 32  8  1  0
 27 22  2  0
  1 33  1  0
  1 34  1  0
  1 35  1  0
  2 36  1  0
  2 37  1  0
  6 38  1  0
  7 39  1  0
  9 40  1  0
 10 41  1  0
 12 42  1  0
 12 43  1  0
 13 44  1  0
 13 45  1  0
 16 46  1  0
 17 47  1  0
 17 48  1  0
 21 49  1  0
 21 50  1  0
 21 51  1  0
 23 52  1  0
 25 53  1  0
 25 54  1  0
 25 55  1  0
 30 56  1  0
 30 57  1  0
 32 58  1  0
M  END
>  <Energy>  (308) 
238.0835577614065

>  <compound_id>  (308) 
605

>  <target_id>  (308) 
1

>  <reference_id>  (308) 
59

>  <inspiration_ids>  (308) 
[59, 168]

>  <energy_score>  (308) 
118.99707950496116

>  <distance_score>  (308) 
1.1482458079734161

>  <path>  (308) 
/opt/xchem-fragalysis-2/maxwin/BulkDock/SCRATCH/505733/C605-P59/C605-P59.minimised.mol

>  <scratch_subdir>  (308) 
/opt/xchem-fragalysis-2/maxwin/BulkDock/SCRATCH/505733/C605-P59

>  <fragmenstein_runtime>  (308) 
12.371517181396484

>  <fragmenstein_outcome>  (308) 
too moved

>  <fragmenstein_mode>  (308) 
expansion

>  <fragmenstein_error>  (308) 


$$$$
C605-P168
     RDKit          3D

 58 59  0  0  0  0  0  0  0  0999 V2000
    0.6037   -8.2961   41.4047 C   0  0  0  0  0  0  0  0  0  0  0  0
    0.1603   -7.8589   40.0226 C   0  0  0  0  0  0  0  0  0  0  0  0
    1.3288   -7.6010   39.2377 O   0  0  0  0  0  0  0  0  0  0  0  0
    1.0821   -7.1693   37.9744 C   0  0  0  0  0  0  0  0  0  0  0  0
   -0.0020   -6.9244   37.4824 O   0  0  0  0  0  0  0  0  0  0  0  0
    2.4004   -7.0404   37.3150 C   0  0  0  0  0  0  0  0  0  0  0  0
    2.7080   -6.6991   36.0546 C   0  0  0  0  0  0  0  0  0  0  0  0
    1.8973   -6.3740   34.8720 C   0  0  0  0  0  0  0  0  0  0  0  0
    2.4199   -5.4344   33.9742 C   0  0  0  0  0  0  0  0  0  0  0  0
    1.7925   -5.1585   32.7550 C   0  0  0  0  0  0  0  0  0  0  0  0
    0.6155   -5.8193   32.3823 C   0  0  0  0  0  0  0  0  0  0  0  0
   -0.0235   -5.5021   31.0480 C   0  0  0  0  0  0  0  0  0  0  0  0
   -0.2146   -4.0231   30.6689 C   0  0  0  0  0  0  0  0  0  0  0  0
   -1.2798   -3.4460   31.4800 N   0  0  0  0  0  0  0  0  0  0  0  0
   -1.4651   -2.2170   31.5847 C   0  0  0  0  0  0  0  0  0  0  0  0
   -2.3810   -1.4710   32.3910 N   0  0  0  0  0  0  0  0  0  0  0  0
   -3.3098   -1.8894   33.4018 C   0  0  0  0  0  0  0  0  0  0  0  0
   -4.2153   -0.7265   33.7792 C   0  0  0  0  0  0  0  0  0  0  0  0
   -4.0973    0.4094   33.3257 O   0  0  0  0  0  0  0  0  0  0  0  0
   -5.1610   -1.1348   34.6713 O   0  0  0  0  0  0  0  0  0  0  0  0
   -6.1048   -0.1320   35.0521 C   0  0  0  0  0  0  0  0  0  0  0  0
   -0.7326   -1.2305   30.7629 C   0  0  0  0  0  0  0  0  0  0  0  0
   -0.5805   -1.1763   29.3539 C   0  0  0  0  0  0  0  0  0  0  0  0
    0.0309    0.0292   29.1225 C   0  0  0  0  0  0  0  0  0  0  0  0
    0.4316    0.7557   27.9087 C   0  0  0  0  0  0  0  0  0  0  0  0
    0.2634    0.6508   30.3057 O   0  0  0  0  0  0  0  0  0  0  0  0
   -0.2378   -0.1179   31.3357 N   0  0  0  0  0  0  0  0  0  0  0  0
    0.1012   -6.7869   33.2737 C   0  0  0  0  0  0  0  0  0  0  0  0
   -1.1328   -7.5869   33.0010 C   0  0  0  0  0  0  0  0  0  0  0  0
   -1.1110   -8.3295   31.7600 N   0  0  0  0  0  0  0  0  0  0  0  0
   -1.9865   -7.4839   33.8325 O   0  0  0  0  0  0  0  0  0  0  0  0
    0.7259   -7.0377   34.5137 C   0  0  0  0  0  0  0  0  0  0  0  0
    1.2279   -9.1937   41.3429 H   0  0  0  0  0  0  0  0  0  0  0  0
   -0.2593   -8.5094   42.0415 H   0  0  0  0  0  0  0  0  0  0  0  0
    1.2105   -7.5179   41.8792 H   0  0  0  0  0  0  0  0  0  0  0  0
   -0.4467   -6.9499   40.0967 H   0  0  0  0  0  0  0  0  0  0  0  0
   -0.4230   -8.6579   39.5589 H   0  0  0  0  0  0  0  0  0  0  0  0
    3.2314   -7.2357   37.9907 H   0  0  0  0  0  0  0  0  0  0  0  0
    3.7792   -6.6398   35.8507 H   0  0  0  0  0  0  0  0  0  0  0  0
    3.3322   -4.8909   34.2189 H   0  0  0  0  0  0  0  0  0  0  0  0
    2.2429   -4.4072   32.1097 H   0  0  0  0  0  0  0  0  0  0  0  0
    0.5894   -5.9834   30.2749 H   0  0  0  0  0  0  0  0  0  0  0  0
   -1.0055   -5.9678   31.0065 H   0  0  0  0  0  0  0  0  0  0  0  0
    0.7269   -3.4743   30.7708 H   0  0  0  0  0  0  0  0  0  0  0  0
   -0.5134   -3.9987   29.6146 H   0  0  0  0  0  0  0  0  0  0  0  0
   -2.1862   -0.4734   32.2742 H   0  0  0  0  0  0  0  0  0  0  0  0
   -2.7668   -2.2100   34.2940 H   0  0  0  0  0  0  0  0  0  0  0  0
   -3.9397   -2.6886   33.0046 H   0  0  0  0  0  0  0  0  0  0  0  0
   -6.9199   -0.1113   34.3249 H   0  0  0  0  0  0  0  0  0  0  0  0
   -6.5195   -0.4150   36.0238 H   0  0  0  0  0  0  0  0  0  0  0  0
   -5.6455    0.8560   35.1551 H   0  0  0  0  0  0  0  0  0  0  0  0
   -0.9351   -1.8760   28.6108 H   0  0  0  0  0  0  0  0  0  0  0  0
    1.3111    0.2864   27.4592 H   0  0  0  0  0  0  0  0  0  0  0  0
    0.6801    1.7984   28.1303 H   0  0  0  0  0  0  0  0  0  0  0  0
   -0.3834    0.7551   27.1794 H   0  0  0  0  0  0  0  0  0  0  0  0
   -0.1598   -8.2793   31.3527 H   0  0  0  0  0  0  0  0  0  0  0  0
   -0.2491   -8.0915   31.2392 H   0  0  0  0  0  0  0  0  0  0  0  0
    0.2767   -7.7706   35.1830 H   0  0  0  0  0  0  0  0  0  0  0  0
  1  2  1  0
  2  3  1  0
  3  4  1  0
  4  5  2  0
  4  6  1  0
  6  7  2  3
  7  8  1  0
  8  9  2  0
  9 10  1  0
 10 11  2  0
 11 12  1  0
 12 13  1  0
 13 14  1  0
 14 15  2  3
 15 16  1  0
 16 17  1  0
 17 18  1  0
 18 19  2  0
 18 20  1  0
 20 21  1  0
 15 22  1  0
 22 23  1  0
 23 24  2  0
 24 25  1  0
 24 26  1  0
 26 27  1  0
 11 28  1  0
 28 29  1  0
 29 30  1  0
 29 31  2  0
 28 32  2  0
 32  8  1  0
 27 22  2  0
  1 33  1  0
  1 34  1  0
  1 35  1  0
  2 36  1  0
  2 37  1  0
  6 38  1  0
  7 39  1  0
  9 40  1  0
 10 41  1  0
 12 42  1  0
 12 43  1  0
 13 44  1  0
 13 45  1  0
 16 46  1  0
 17 47  1  0
 17 48  1  0
 21 49  1  0
 21 50  1  0
 21 51  1  0
 23 52  1  0
 25 53  1  0
 25 54  1  0
 25 55  1  0
 30 56  1  0
 30 57  1  0
 32 58  1  0
M  END
>  <Energy>  (309) 
238.30797381933075

>  <compound_id>  (309) 
605

>  <target_id>  (309) 
1

>  <reference_id>  (309) 
168

>  <inspiration_ids>  (309) 
[59, 168]

>  <energy_score>  (309) 
119.22149556288696

>  <distance_score>  (309) 
1.4739702237641998

>  <path>  (309) 
/opt/xchem-fragalysis-2/maxwin/BulkDock/SCRATCH/505733/C605-P168/C605-P168.minimised.mol

>  <scratch_subdir>  (309) 
/opt/xchem-fragalysis-2/maxwin/BulkDock/SCRATCH/505733/C605-P168

>  <fragmenstein_runtime>  (309) 
15.61283016204834

>  <fragmenstein_outcome>  (309) 
too moved

>  <fragmenstein_mode>  (309) 
expansion

>  <fragmenstein_error>  (309) 


$$$$
C606-P59
     RDKit          3D

 42 44  0  0  0  0  0  0  0  0999 V2000
   -3.5634   -1.7133   32.4494 N   0  0  0  0  0  0  0  0  0  0  0  0
   -2.2421   -1.0830   32.3611 C   0  0  0  0  0  0  0  0  0  0  0  0
   -1.3600   -1.5118   33.5244 C   0  0  0  0  0  0  0  0  0  0  0  0
   -0.8772   -0.5441   34.4250 C   0  0  0  0  0  0  0  0  0  0  0  0
   -0.0787   -0.9070   35.5125 C   0  0  0  0  0  0  0  0  0  0  0  0
    0.2501   -2.2433   35.7209 C   0  0  0  0  0  0  0  0  0  0  0  0
   -0.2121   -3.2151   34.8382 C   0  0  0  0  0  0  0  0  0  0  0  0
   -1.0041   -2.8511   33.7465 C   0  0  0  0  0  0  0  0  0  0  0  0
   -1.5801   -1.1980   30.9835 C   0  0  0  0  0  0  0  0  0  0  0  0
   -1.8691   -0.2521   30.0067 C   0  0  0  0  0  0  0  0  0  0  0  0
   -1.0999   -0.1800   28.8529 C   0  0  0  0  0  0  0  0  0  0  0  0
   -0.0866   -1.1005   28.6667 C   0  0  0  0  0  0  0  0  0  0  0  0
    0.0463   -2.1057   29.6103 C   0  0  0  0  0  0  0  0  0  0  0  0
    0.8455   -3.1934   29.3507 N   0  0  0  0  0  0  0  0  0  0  0  0
    1.9760   -3.3889   28.2975 C   0  0  0  0  0  0  0  0  0  0  0  0
    2.4495   -2.6297   27.5452 O   0  0  0  0  0  0  0  0  0  0  0  0
    2.3561   -4.8853   28.3063 C   0  0  0  0  0  0  0  0  0  0  0  0
    3.5913   -5.1638   29.1339 C   0  0  0  0  0  0  0  0  0  0  0  0
    4.8048   -4.8839   28.4308 O   0  0  0  0  0  0  0  0  0  0  0  0
    4.8418   -5.6109   27.1970 C   0  0  0  0  0  0  0  0  0  0  0  0
    3.6483   -5.2363   26.3219 C   0  0  0  0  0  0  0  0  0  0  0  0
    2.4084   -5.4604   26.9930 O   0  0  0  0  0  0  0  0  0  0  0  0
   -0.6818   -2.1801   30.7473 N   0  0  0  0  0  0  0  0  0  0  0  0
   -3.8672   -1.6511   33.4238 H   0  0  0  0  0  0  0  0  0  0  0  0
   -3.4197   -2.7114   32.3157 H   0  0  0  0  0  0  0  0  0  0  0  0
   -2.4331   -0.0115   32.5052 H   0  0  0  0  0  0  0  0  0  0  0  0
   -1.1173    0.5077   34.2868 H   0  0  0  0  0  0  0  0  0  0  0  0
    0.2859   -0.1455   36.1969 H   0  0  0  0  0  0  0  0  0  0  0  0
    0.8663   -2.5276   36.5693 H   0  0  0  0  0  0  0  0  0  0  0  0
    0.0358   -4.2605   34.9996 H   0  0  0  0  0  0  0  0  0  0  0  0
   -1.3445   -3.6277   33.0677 H   0  0  0  0  0  0  0  0  0  0  0  0
   -2.6748    0.4493   30.1478 H   0  0  0  0  0  0  0  0  0  0  0  0
   -1.2992    0.5763   28.0989 H   0  0  0  0  0  0  0  0  0  0  0  0
    0.4980   -1.0825   27.7539 H   0  0  0  0  0  0  0  0  0  0  0  0
    0.6254   -4.0780   29.7766 H   0  0  0  0  0  0  0  0  0  0  0  0
    1.5499   -5.4222   28.8103 H   0  0  0  0  0  0  0  0  0  0  0  0
    3.5962   -4.5765   30.0578 H   0  0  0  0  0  0  0  0  0  0  0  0
    3.6208   -6.2202   29.4154 H   0  0  0  0  0  0  0  0  0  0  0  0
    4.8386   -6.6836   27.4234 H   0  0  0  0  0  0  0  0  0  0  0  0
    5.7796   -5.3716   26.6869 H   0  0  0  0  0  0  0  0  0  0  0  0
    3.6577   -5.8612   25.4280 H   0  0  0  0  0  0  0  0  0  0  0  0
    3.7066   -4.1884   26.0143 H   0  0  0  0  0  0  0  0  0  0  0  0
  1  2  1  0
  2  3  1  0
  3  4  2  0
  4  5  1  0
  5  6  2  0
  6  7  1  0
  7  8  2  0
  2  9  1  0
  9 10  2  0
 10 11  1  0
 11 12  2  0
 12 13  1  0
 13 14  1  0
 14 15  1  0
 15 16  2  0
 15 17  1  0
 17 18  1  0
 18 19  1  0
 19 20  1  0
 20 21  1  0
 21 22  1  0
 13 23  2  0
  8  3  1  0
 23  9  1  0
 22 17  1  0
  1 24  1  0
  1 25  1  0
  2 26  1  0
  4 27  1  0
  5 28  1  0
  6 29  1  0
  7 30  1  0
  8 31  1  0
 10 32  1  0
 11 33  1  0
 12 34  1  0
 14 35  1  0
 17 36  1  0
 18 37  1  0
 18 38  1  0
 20 39  1  0
 20 40  1  0
 21 41  1  0
 21 42  1  0
M  END
>  <Energy>  (310) 
119.76694894905357

>  <compound_id>  (310) 
606

>  <target_id>  (310) 
1

>  <reference_id>  (310) 
59

>  <inspiration_ids>  (310) 
[59, 177]

>  <energy_score>  (310) 
-9.000485553555905

>  <distance_score>  (310) 
2.4223681246093887

>  <path>  (310) 
/opt/xchem-fragalysis-2/maxwin/BulkDock/SCRATCH/505733/C606-P59/C606-P59.minimised.mol

>  <scratch_subdir>  (310) 
/opt/xchem-fragalysis-2/maxwin/BulkDock/SCRATCH/505733/C606-P59

>  <fragmenstein_runtime>  (310) 
6.379858016967773

>  <fragmenstein_outcome>  (310) 
too moved

>  <fragmenstein_mode>  (310) 
expansion

>  <fragmenstein_error>  (310) 


$$$$
C606-P177
     RDKit          3D

 42 44  0  0  0  0  0  0  0  0999 V2000
   -1.8264   -2.0157   33.9876 N   0  0  0  0  0  0  0  0  0  0  0  0
   -2.6956   -1.6501   32.8677 C   0  0  0  0  0  0  0  0  0  0  0  0
   -3.9814   -1.0400   33.3810 C   0  0  0  0  0  0  0  0  0  0  0  0
   -5.1952   -1.7276   33.2155 C   0  0  0  0  0  0  0  0  0  0  0  0
   -6.3753   -1.2387   33.7721 C   0  0  0  0  0  0  0  0  0  0  0  0
   -6.3627   -0.0587   34.5072 C   0  0  0  0  0  0  0  0  0  0  0  0
   -5.1724    0.6403   34.6819 C   0  0  0  0  0  0  0  0  0  0  0  0
   -3.9900    0.1529   34.1262 C   0  0  0  0  0  0  0  0  0  0  0  0
   -1.9555   -0.8975   31.7767 C   0  0  0  0  0  0  0  0  0  0  0  0
   -1.1987    0.2443   31.9929 C   0  0  0  0  0  0  0  0  0  0  0  0
   -0.4072    0.7547   30.9608 C   0  0  0  0  0  0  0  0  0  0  0  0
   -0.3451    0.0906   29.7515 C   0  0  0  0  0  0  0  0  0  0  0  0
   -1.1069   -1.0481   29.6376 C   0  0  0  0  0  0  0  0  0  0  0  0
   -0.8815   -1.9529   28.6509 N   0  0  0  0  0  0  0  0  0  0  0  0
    0.2863   -2.0758   27.6530 C   0  0  0  0  0  0  0  0  0  0  0  0
    1.1997   -1.3760   27.4695 O   0  0  0  0  0  0  0  0  0  0  0  0
    0.0899   -3.4273   26.9551 C   0  0  0  0  0  0  0  0  0  0  0  0
    0.0722   -4.6308   27.9437 C   0  0  0  0  0  0  0  0  0  0  0  0
    1.3538   -5.2198   28.2200 O   0  0  0  0  0  0  0  0  0  0  0  0
    2.4248   -4.3295   27.9099 C   0  0  0  0  0  0  0  0  0  0  0  0
    2.3714   -3.9130   26.4391 C   0  0  0  0  0  0  0  0  0  0  0  0
    1.0577   -3.6326   25.9389 O   0  0  0  0  0  0  0  0  0  0  0  0
   -1.9380   -1.5114   30.5801 N   0  0  0  0  0  0  0  0  0  0  0  0
   -2.2627   -2.8293   34.4414 H   0  0  0  0  0  0  0  0  0  0  0  0
   -1.8314   -1.2836   34.6901 H   0  0  0  0  0  0  0  0  0  0  0  0
   -2.9654   -2.6080   32.4038 H   0  0  0  0  0  0  0  0  0  0  0  0
   -5.2262   -2.6653   32.6660 H   0  0  0  0  0  0  0  0  0  0  0  0
   -7.3064   -1.7793   33.6362 H   0  0  0  0  0  0  0  0  0  0  0  0
   -7.2867    0.3311   34.9269 H   0  0  0  0  0  0  0  0  0  0  0  0
   -5.1721    1.5645   35.2539 H   0  0  0  0  0  0  0  0  0  0  0  0
   -3.0707    0.7012   34.3108 H   0  0  0  0  0  0  0  0  0  0  0  0
   -1.1631    0.7123   32.9699 H   0  0  0  0  0  0  0  0  0  0  0  0
    0.2095    1.6349   31.1252 H   0  0  0  0  0  0  0  0  0  0  0  0
    0.3253    0.4266   28.9682 H   0  0  0  0  0  0  0  0  0  0  0  0
   -1.5479   -2.6985   28.4855 H   0  0  0  0  0  0  0  0  0  0  0  0
   -0.8785   -3.3575   26.4484 H   0  0  0  0  0  0  0  0  0  0  0  0
   -0.3730   -4.3820   28.9105 H   0  0  0  0  0  0  0  0  0  0  0  0
   -0.5429   -5.4364   27.5290 H   0  0  0  0  0  0  0  0  0  0  0  0
    3.3711   -4.8387   28.1180 H   0  0  0  0  0  0  0  0  0  0  0  0
    2.3754   -3.4693   28.5854 H   0  0  0  0  0  0  0  0  0  0  0  0
    2.7879   -4.7230   25.8400 H   0  0  0  0  0  0  0  0  0  0  0  0
    3.0080   -3.0389   26.2659 H   0  0  0  0  0  0  0  0  0  0  0  0
  1  2  1  0
  2  3  1  0
  3  4  2  0
  4  5  1  0
  5  6  2  0
  6  7  1  0
  7  8  2  0
  2  9  1  0
  9 10  2  0
 10 11  1  0
 11 12  2  0
 12 13  1  0
 13 14  1  0
 14 15  1  0
 15 16  2  0
 15 17  1  0
 17 18  1  0
 18 19  1  0
 19 20  1  0
 20 21  1  0
 21 22  1  0
 13 23  2  0
  8  3  1  0
 23  9  1  0
 22 17  1  0
  1 24  1  0
  1 25  1  0
  2 26  1  0
  4 27  1  0
  5 28  1  0
  6 29  1  0
  7 30  1  0
  8 31  1  0
 10 32  1  0
 11 33  1  0
 12 34  1  0
 14 35  1  0
 17 36  1  0
 18 37  1  0
 18 38  1  0
 20 39  1  0
 20 40  1  0
 21 41  1  0
 21 42  1  0
M  END
>  <Energy>  (311) 
128.84453492163877

>  <compound_id>  (311) 
606

>  <target_id>  (311) 
1

>  <reference_id>  (311) 
177

>  <inspiration_ids>  (311) 
[59, 177]

>  <energy_score>  (311) 
0.0771004190307849

>  <distance_score>  (311) 
2.388230350596401

>  <path>  (311) 
/opt/xchem-fragalysis-2/maxwin/BulkDock/SCRATCH/505733/C606-P177/C606-P177.minimised.mol

>  <scratch_subdir>  (311) 
/opt/xchem-fragalysis-2/maxwin/BulkDock/SCRATCH/505733/C606-P177

>  <fragmenstein_runtime>  (311) 
5.3797080516815186

>  <fragmenstein_outcome>  (311) 
too moved

>  <fragmenstein_mode>  (311) 
expansion

>  <fragmenstein_error>  (311) 


$$$$
C612-P59
     RDKit          3D

 32 34  0  0  0  0  0  0  0  0999 V2000
   -0.4945   -3.3551   31.4951 O   0  0  0  0  0  0  0  0  0  0  0  0
   -0.8674   -1.9678   31.4301 C   0  0  0  0  0  0  0  0  0  0  0  0
   -1.9383   -1.7542   32.5688 C   0  0  0  0  0  0  0  0  0  0  0  0
   -2.0550   -0.3009   33.0508 C   0  0  0  0  0  0  0  0  0  0  0  0
   -2.9667   -0.1082   34.1524 O   0  0  0  0  0  0  0  0  0  0  0  0
   -3.9137   -1.1731   34.2853 C   0  0  0  0  0  0  0  0  0  0  0  0
   -4.3225   -1.6508   32.9067 C   0  0  0  0  0  0  0  0  0  0  0  0
   -3.2431   -2.2534   32.1676 O   0  0  0  0  0  0  0  0  0  0  0  0
   -1.3880   -1.7845   29.9827 C   0  0  0  0  0  0  0  0  0  0  0  0
   -1.1396   -0.4419   29.3735 C   0  0  0  0  0  0  0  0  0  0  0  0
   -1.8003   -0.0289   28.2177 C   0  0  0  0  0  0  0  0  0  0  0  0
   -1.5080    1.2122   27.6499 C   0  0  0  0  0  0  0  0  0  0  0  0
   -0.5227    2.0315   28.1993 C   0  0  0  0  0  0  0  0  0  0  0  0
    0.1794    1.6056   29.3229 C   0  0  0  0  0  0  0  0  0  0  0  0
   -0.1417    0.3736   29.8954 C   0  0  0  0  0  0  0  0  0  0  0  0
    0.6055   -0.1139   31.0487 C   0  0  0  0  0  0  0  0  0  0  0  0
    0.3223   -1.1613   31.7414 N   0  0  0  0  0  0  0  0  0  0  0  0
    0.3802   -3.3092   31.9207 H   0  0  0  0  0  0  0  0  0  0  0  0
   -1.6410   -2.3727   33.4267 H   0  0  0  0  0  0  0  0  0  0  0  0
   -1.0948    0.1004   33.3851 H   0  0  0  0  0  0  0  0  0  0  0  0
   -2.4115    0.3202   32.2285 H   0  0  0  0  0  0  0  0  0  0  0  0
   -4.7751   -0.7875   34.8383 H   0  0  0  0  0  0  0  0  0  0  0  0
   -3.4532   -1.9688   34.8782 H   0  0  0  0  0  0  0  0  0  0  0  0
   -4.6671   -0.7870   32.3370 H   0  0  0  0  0  0  0  0  0  0  0  0
   -5.1300   -2.3752   32.9521 H   0  0  0  0  0  0  0  0  0  0  0  0
   -2.4492   -2.0354   29.9203 H   0  0  0  0  0  0  0  0  0  0  0  0
   -0.8839   -2.5126   29.3298 H   0  0  0  0  0  0  0  0  0  0  0  0
   -2.5331   -0.6775   27.7407 H   0  0  0  0  0  0  0  0  0  0  0  0
   -2.0505    1.5359   26.7636 H   0  0  0  0  0  0  0  0  0  0  0  0
   -0.3084    2.9979   27.7491 H   0  0  0  0  0  0  0  0  0  0  0  0
    0.9571    2.2383   29.7406 H   0  0  0  0  0  0  0  0  0  0  0  0
    1.4933    0.4702   31.3463 H   0  0  0  0  0  0  0  0  0  0  0  0
  1  2  1  0
  2  3  1  0
  3  4  1  0
  4  5  1  0
  5  6  1  0
  6  7  1  0
  7  8  1  0
  2  9  1  0
  9 10  1  0
 10 11  2  0
 11 12  1  0
 12 13  2  0
 13 14  1  0
 14 15  2  0
 15 16  1  0
 16 17  2  0
 17  2  1  0
  8  3  1  0
 15 10  1  0
  1 18  1  0
  3 19  1  0
  4 20  1  0
  4 21  1  0
  6 22  1  0
  6 23  1  0
  7 24  1  0
  7 25  1  0
  9 26  1  0
  9 27  1  0
 11 28  1  0
 12 29  1  0
 13 30  1  0
 14 31  1  0
 16 32  1  0
M  END
>  <Energy>  (312) 
134.24382227663651

>  <compound_id>  (312) 
612

>  <target_id>  (312) 
1

>  <reference_id>  (312) 
59

>  <inspiration_ids>  (312) 
[59, 195]

>  <energy_score>  (312) 
-27.463673028028268

>  <distance_score>  (312) 
1.6298642249152577

>  <path>  (312) 
/opt/xchem-fragalysis-2/maxwin/BulkDock/SCRATCH/505733/C612-P59/C612-P59.minimised.mol

>  <scratch_subdir>  (312) 
/opt/xchem-fragalysis-2/maxwin/BulkDock/SCRATCH/505733/C612-P59

>  <fragmenstein_runtime>  (312) 
1.4991958141326904

>  <fragmenstein_outcome>  (312) 
too moved

>  <fragmenstein_mode>  (312) 
expansion

>  <fragmenstein_error>  (312) 


$$$$
C612-P195
     RDKit          3D

 32 34  0  0  0  0  0  0  0  0999 V2000
   -0.6301   -3.4355   31.6981 O   0  0  0  0  0  0  0  0  0  0  0  0
   -0.9939   -2.0549   31.5421 C   0  0  0  0  0  0  0  0  0  0  0  0
   -2.1880   -1.7926   32.5447 C   0  0  0  0  0  0  0  0  0  0  0  0
   -2.5190   -0.3059   32.6929 C   0  0  0  0  0  0  0  0  0  0  0  0
   -3.5535    0.0023   33.6465 O   0  0  0  0  0  0  0  0  0  0  0  0
   -4.2098   -1.1661   34.1429 C   0  0  0  0  0  0  0  0  0  0  0  0
   -4.5455   -2.0984   32.9901 C   0  0  0  0  0  0  0  0  0  0  0  0
   -3.4075   -2.5001   32.1829 O   0  0  0  0  0  0  0  0  0  0  0  0
   -1.3259   -1.9173   30.0392 C   0  0  0  0  0  0  0  0  0  0  0  0
   -1.0546   -0.5720   29.4444 C   0  0  0  0  0  0  0  0  0  0  0  0
   -1.6047   -0.1783   28.2270 C   0  0  0  0  0  0  0  0  0  0  0  0
   -1.3093    1.0801   27.6994 C   0  0  0  0  0  0  0  0  0  0  0  0
   -0.4153    1.9314   28.3463 C   0  0  0  0  0  0  0  0  0  0  0  0
    0.1927    1.5202   29.5281 C   0  0  0  0  0  0  0  0  0  0  0  0
   -0.1412    0.2751   30.0629 C   0  0  0  0  0  0  0  0  0  0  0  0
    0.4933   -0.1882   31.2916 C   0  0  0  0  0  0  0  0  0  0  0  0
    0.1507   -1.2294   31.9679 N   0  0  0  0  0  0  0  0  0  0  0  0
    0.1405   -3.3782   32.2906 H   0  0  0  0  0  0  0  0  0  0  0  0
   -1.8824   -2.1987   33.5184 H   0  0  0  0  0  0  0  0  0  0  0  0
   -1.6488    0.2826   32.9930 H   0  0  0  0  0  0  0  0  0  0  0  0
   -2.8656    0.0640   31.7264 H   0  0  0  0  0  0  0  0  0  0  0  0
   -5.1208   -0.8494   34.6599 H   0  0  0  0  0  0  0  0  0  0  0  0
   -3.5598   -1.6472   34.8816 H   0  0  0  0  0  0  0  0  0  0  0  0
   -5.2603   -1.5992   32.3414 H   0  0  0  0  0  0  0  0  0  0  0  0
   -5.0591   -2.9950   33.3401 H   0  0  0  0  0  0  0  0  0  0  0  0
   -2.3564   -2.2217   29.8584 H   0  0  0  0  0  0  0  0  0  0  0  0
   -0.7122   -2.6320   29.4710 H   0  0  0  0  0  0  0  0  0  0  0  0
   -2.2621   -0.8494   27.6757 H   0  0  0  0  0  0  0  0  0  0  0  0
   -1.7790    1.3910   26.7684 H   0  0  0  0  0  0  0  0  0  0  0  0
   -0.1973    2.9102   27.9260 H   0  0  0  0  0  0  0  0  0  0  0  0
    0.9005    2.1780   30.0241 H   0  0  0  0  0  0  0  0  0  0  0  0
    1.3385    0.4120   31.6701 H   0  0  0  0  0  0  0  0  0  0  0  0
  1  2  1  0
  2  3  1  0
  3  4  1  0
  4  5  1  0
  5  6  1  0
  6  7  1  0
  7  8  1  0
  2  9  1  0
  9 10  1  0
 10 11  2  0
 11 12  1  0
 12 13  2  0
 13 14  1  0
 14 15  2  0
 15 16  1  0
 16 17  2  0
 17  2  1  0
  8  3  1  0
 15 10  1  0
  1 18  1  0
  3 19  1  0
  4 20  1  0
  4 21  1  0
  6 22  1  0
  6 23  1  0
  7 24  1  0
  7 25  1  0
  9 26  1  0
  9 27  1  0
 11 28  1  0
 12 29  1  0
 13 30  1  0
 14 31  1  0
 16 32  1  0
M  END
>  <Energy>  (313) 
134.15033134771468

>  <compound_id>  (313) 
612

>  <target_id>  (313) 
1

>  <reference_id>  (313) 
195

>  <inspiration_ids>  (313) 
[59, 195]

>  <energy_score>  (313) 
-27.557163956950603

>  <distance_score>  (313) 
1.6164650076664686

>  <path>  (313) 
/opt/xchem-fragalysis-2/maxwin/BulkDock/SCRATCH/505733/C612-P195/C612-P195.minimised.mol

>  <scratch_subdir>  (313) 
/opt/xchem-fragalysis-2/maxwin/BulkDock/SCRATCH/505733/C612-P195

>  <fragmenstein_runtime>  (313) 
1.5333917140960693

>  <fragmenstein_outcome>  (313) 
too moved

>  <fragmenstein_mode>  (313) 
expansion

>  <fragmenstein_error>  (313) 


$$$$
C616-P59
     RDKit          3D

 47 49  0  0  0  0  0  0  0  0999 V2000
   -4.7535   -1.4698   35.2391 C   0  0  0  0  0  0  0  0  0  0  0  0
   -3.2479   -1.6781   34.9712 C   0  0  0  0  0  0  0  0  0  0  0  0
   -2.7363   -1.5303   33.5387 C   0  0  0  0  0  0  0  0  0  0  0  0
   -3.5960   -1.0156   32.5727 C   0  0  0  0  0  0  0  0  0  0  0  0
   -3.0569   -0.5133   31.3965 C   0  0  0  0  0  0  0  0  0  0  0  0
   -1.7106   -0.2711   31.2634 C   0  0  0  0  0  0  0  0  0  0  0  0
   -0.8623   -0.7374   32.2313 C   0  0  0  0  0  0  0  0  0  0  0  0
   -1.3520   -1.6304   33.1851 C   0  0  0  0  0  0  0  0  0  0  0  0
   -0.5454   -2.8649   33.2977 N   0  0  0  0  0  0  0  0  0  0  0  0
    0.9088   -2.7593   33.0554 C   0  0  0  0  0  0  0  0  0  0  0  0
    1.4356   -2.8997   31.5890 C   0  0  0  0  0  0  0  0  0  0  0  0
    0.7122   -3.7779   30.5561 C   0  0  0  0  0  0  0  0  0  0  0  0
    0.7647   -5.2893   30.7799 C   0  0  0  0  0  0  0  0  0  0  0  0
    0.8125   -5.7303   32.2397 C   0  0  0  0  0  0  0  0  0  0  0  0
   -0.4668   -5.4393   33.0602 C   0  0  0  0  0  0  0  0  0  0  0  0
   -0.2260   -5.4841   34.5785 C   0  0  0  0  0  0  0  0  0  0  0  0
    0.1684   -6.7779   35.0161 O   0  0  0  0  0  0  0  0  0  0  0  0
   -0.9284   -7.6558   34.8013 C   0  0  0  0  0  0  0  0  0  0  0  0
   -1.1895   -7.7549   33.3027 C   0  0  0  0  0  0  0  0  0  0  0  0
   -1.4225   -6.4723   32.7033 O   0  0  0  0  0  0  0  0  0  0  0  0
   -1.1410   -4.0441   32.7786 C   0  0  0  0  0  0  0  0  0  0  0  0
   -2.1337   -3.9809   32.0431 O   0  0  0  0  0  0  0  0  0  0  0  0
   -4.9603   -1.6056   36.3051 H   0  0  0  0  0  0  0  0  0  0  0  0
   -5.0692   -0.4577   34.9661 H   0  0  0  0  0  0  0  0  0  0  0  0
   -5.3531   -2.1861   34.6788 H   0  0  0  0  0  0  0  0  0  0  0  0
   -2.7237   -0.9102   35.5570 H   0  0  0  0  0  0  0  0  0  0  0  0
   -2.9158   -2.6308   35.3855 H   0  0  0  0  0  0  0  0  0  0  0  0
   -4.6713   -1.0073   32.7096 H   0  0  0  0  0  0  0  0  0  0  0  0
   -3.6741   -0.1589   30.5920 H   0  0  0  0  0  0  0  0  0  0  0  0
   -1.3261    0.2428   30.3866 H   0  0  0  0  0  0  0  0  0  0  0  0
    0.1914   -0.5692   32.0613 H   0  0  0  0  0  0  0  0  0  0  0  0
    1.4138   -3.5035   33.6697 H   0  0  0  0  0  0  0  0  0  0  0  0
    1.2723   -1.8174   33.4883 H   0  0  0  0  0  0  0  0  0  0  0  0
    2.4850   -3.2196   31.6472 H   0  0  0  0  0  0  0  0  0  0  0  0
    1.4933   -1.8970   31.1504 H   0  0  0  0  0  0  0  0  0  0  0  0
   -0.3211   -3.4404   30.4339 H   0  0  0  0  0  0  0  0  0  0  0  0
    1.1686   -3.5829   29.5756 H   0  0  0  0  0  0  0  0  0  0  0  0
    1.6704   -5.6714   30.2908 H   0  0  0  0  0  0  0  0  0  0  0  0
   -0.0793   -5.7652   30.2680 H   0  0  0  0  0  0  0  0  0  0  0  0
    1.6994   -5.3054   32.7185 H   0  0  0  0  0  0  0  0  0  0  0  0
    1.0213   -6.8043   32.2294 H   0  0  0  0  0  0  0  0  0  0  0  0
    0.5670   -4.8096   34.9026 H   0  0  0  0  0  0  0  0  0  0  0  0
   -1.1198   -5.1778   35.1377 H   0  0  0  0  0  0  0  0  0  0  0  0
   -1.8117   -7.2859   35.3325 H   0  0  0  0  0  0  0  0  0  0  0  0
   -0.6325   -8.5918   35.2634 H   0  0  0  0  0  0  0  0  0  0  0  0
   -2.0698   -8.3685   33.1011 H   0  0  0  0  0  0  0  0  0  0  0  0
   -0.3495   -8.2286   32.7920 H   0  0  0  0  0  0  0  0  0  0  0  0
  1  2  1  0
  2  3  1  0
  3  4  2  0
  4  5  1  0
  5  6  2  0
  6  7  1  0
  7  8  2  0
  8  9  1  0
  9 10  1  0
 10 11  1  0
 11 12  1  0
 12 13  1  0
 13 14  1  0
 14 15  1  0
 15 16  1  0
 16 17  1  0
 17 18  1  0
 18 19  1  0
 19 20  1  0
 15 21  1  0
 21 22  2  0
  8  3  1  0
 21  9  1  0
 20 15  1  0
  1 23  1  0
  1 24  1  0
  1 25  1  0
  2 26  1  0
  2 27  1  0
  4 28  1  0
  5 29  1  0
  6 30  1  0
  7 31  1  0
 10 32  1  0
 10 33  1  0
 11 34  1  0
 11 35  1  0
 12 36  1  0
 12 37  1  0
 13 38  1  0
 13 39  1  0
 14 40  1  0
 14 41  1  0
 16 42  1  0
 16 43  1  0
 18 44  1  0
 18 45  1  0
 19 46  1  0
 19 47  1  0
M  END
>  <Energy>  (314) 
189.64744105883059

>  <compound_id>  (314) 
616

>  <target_id>  (314) 
1

>  <reference_id>  (314) 
59

>  <inspiration_ids>  (314) 
[59, 200]

>  <energy_score>  (314) 
-55.726785792739065

>  <distance_score>  (314) 
2.5541679578270724

>  <path>  (314) 
/opt/xchem-fragalysis-2/maxwin/BulkDock/SCRATCH/505733/C616-P59/C616-P59.minimised.mol

>  <scratch_subdir>  (314) 
/opt/xchem-fragalysis-2/maxwin/BulkDock/SCRATCH/505733/C616-P59

>  <fragmenstein_runtime>  (314) 
7.115109443664551

>  <fragmenstein_outcome>  (314) 
too moved

>  <fragmenstein_mode>  (314) 
expansion

>  <fragmenstein_error>  (314) 


$$$$
C616-P200
     RDKit          3D

 47 49  0  0  0  0  0  0  0  0999 V2000
   -5.2657   -1.6939   35.0109 C   0  0  0  0  0  0  0  0  0  0  0  0
   -3.7259   -1.7170   35.0104 C   0  0  0  0  0  0  0  0  0  0  0  0
   -2.9932   -1.9631   33.6646 C   0  0  0  0  0  0  0  0  0  0  0  0
   -3.6809   -1.5217   32.5335 C   0  0  0  0  0  0  0  0  0  0  0  0
   -3.0182   -0.6686   31.6665 C   0  0  0  0  0  0  0  0  0  0  0  0
   -1.7994   -0.1366   32.0565 C   0  0  0  0  0  0  0  0  0  0  0  0
   -1.1567   -0.6475   33.1750 C   0  0  0  0  0  0  0  0  0  0  0  0
   -1.5788   -1.8936   33.6171 C   0  0  0  0  0  0  0  0  0  0  0  0
   -0.7544   -3.0572   33.0035 N   0  0  0  0  0  0  0  0  0  0  0  0
    0.5034   -2.5894   32.3579 C   0  0  0  0  0  0  0  0  0  0  0  0
    1.3995   -3.5101   31.5342 C   0  0  0  0  0  0  0  0  0  0  0  0
    0.7605   -4.1157   30.2986 C   0  0  0  0  0  0  0  0  0  0  0  0
    0.2870   -5.5347   30.5307 C   0  0  0  0  0  0  0  0  0  0  0  0
   -0.8422   -5.6358   31.5460 C   0  0  0  0  0  0  0  0  0  0  0  0
   -0.5401   -5.6516   33.0589 C   0  0  0  0  0  0  0  0  0  0  0  0
    0.7508   -6.4487   33.3469 C   0  0  0  0  0  0  0  0  0  0  0  0
    0.9363   -6.9798   34.6602 O   0  0  0  0  0  0  0  0  0  0  0  0
   -0.2870   -7.2813   35.3272 C   0  0  0  0  0  0  0  0  0  0  0  0
   -1.3845   -7.5582   34.3268 C   0  0  0  0  0  0  0  0  0  0  0  0
   -1.6828   -6.3817   33.5838 O   0  0  0  0  0  0  0  0  0  0  0  0
   -0.6083   -4.2282   33.7880 C   0  0  0  0  0  0  0  0  0  0  0  0
   -0.5162   -4.1438   35.0190 O   0  0  0  0  0  0  0  0  0  0  0  0
   -5.6357   -1.5963   36.0361 H   0  0  0  0  0  0  0  0  0  0  0  0
   -5.6507   -0.8443   34.4376 H   0  0  0  0  0  0  0  0  0  0  0  0
   -5.6721   -2.6130   34.5791 H   0  0  0  0  0  0  0  0  0  0  0  0
   -3.3926   -0.7374   35.3801 H   0  0  0  0  0  0  0  0  0  0  0  0
   -3.3592   -2.4514   35.7309 H   0  0  0  0  0  0  0  0  0  0  0  0
   -4.7417   -1.7088   32.4201 H   0  0  0  0  0  0  0  0  0  0  0  0
   -3.4804   -0.2828   30.7699 H   0  0  0  0  0  0  0  0  0  0  0  0
   -1.3173    0.6349   31.4654 H   0  0  0  0  0  0  0  0  0  0  0  0
   -0.1592   -0.2817   33.4068 H   0  0  0  0  0  0  0  0  0  0  0  0
    1.1331   -2.1777   33.1587 H   0  0  0  0  0  0  0  0  0  0  0  0
    0.2540   -1.7875   31.6565 H   0  0  0  0  0  0  0  0  0  0  0  0
    1.8977   -4.2480   32.1558 H   0  0  0  0  0  0  0  0  0  0  0  0
    2.2229   -2.8736   31.1775 H   0  0  0  0  0  0  0  0  0  0  0  0
   -0.0588   -3.4879   29.9284 H   0  0  0  0  0  0  0  0  0  0  0  0
    1.5094   -4.1455   29.4966 H   0  0  0  0  0  0  0  0  0  0  0  0
    1.1286   -6.1874   30.7780 H   0  0  0  0  0  0  0  0  0  0  0  0
   -0.1000   -5.9058   29.5792 H   0  0  0  0  0  0  0  0  0  0  0  0
   -1.3725   -6.5685   31.3038 H   0  0  0  0  0  0  0  0  0  0  0  0
   -1.5522   -4.8281   31.3543 H   0  0  0  0  0  0  0  0  0  0  0  0
    0.7783   -7.3193   32.6844 H   0  0  0  0  0  0  0  0  0  0  0  0
    1.6531   -5.8785   33.1416 H   0  0  0  0  0  0  0  0  0  0  0  0
   -0.5430   -6.4389   35.9759 H   0  0  0  0  0  0  0  0  0  0  0  0
   -0.1080   -8.1445   35.9682 H   0  0  0  0  0  0  0  0  0  0  0  0
   -2.2951   -7.8847   34.8331 H   0  0  0  0  0  0  0  0  0  0  0  0
   -1.0978   -8.3253   33.6043 H   0  0  0  0  0  0  0  0  0  0  0  0
  1  2  1  0
  2  3  1  0
  3  4  2  0
  4  5  1  0
  5  6  2  0
  6  7  1  0
  7  8  2  0
  8  9  1  0
  9 10  1  0
 10 11  1  0
 11 12  1  0
 12 13  1  0
 13 14  1  0
 14 15  1  0
 15 16  1  0
 16 17  1  0
 17 18  1  0
 18 19  1  0
 19 20  1  0
 15 21  1  0
 21 22  2  0
  8  3  1  0
 21  9  1  0
 20 15  1  0
  1 23  1  0
  1 24  1  0
  1 25  1  0
  2 26  1  0
  2 27  1  0
  4 28  1  0
  5 29  1  0
  6 30  1  0
  7 31  1  0
 10 32  1  0
 10 33  1  0
 11 34  1  0
 11 35  1  0
 12 36  1  0
 12 37  1  0
 13 38  1  0
 13 39  1  0
 14 40  1  0
 14 41  1  0
 16 42  1  0
 16 43  1  0
 18 44  1  0
 18 45  1  0
 19 46  1  0
 19 47  1  0
M  END
>  <Energy>  (315) 
231.38324202006808

>  <compound_id>  (315) 
616

>  <target_id>  (315) 
1

>  <reference_id>  (315) 
200

>  <inspiration_ids>  (315) 
[59, 200]

>  <energy_score>  (315) 
-13.990984831504989

>  <distance_score>  (315) 
2.3899760747247396

>  <path>  (315) 
/opt/xchem-fragalysis-2/maxwin/BulkDock/SCRATCH/505733/C616-P200/C616-P200.minimised.mol

>  <scratch_subdir>  (315) 
/opt/xchem-fragalysis-2/maxwin/BulkDock/SCRATCH/505733/C616-P200

>  <fragmenstein_runtime>  (315) 
7.583503484725952

>  <fragmenstein_outcome>  (315) 
too moved

>  <fragmenstein_mode>  (315) 
expansion

>  <fragmenstein_error>  (315) 


$$$$
C617-P59
     RDKit          3D

 53 55  0  0  0  0  0  0  0  0999 V2000
   -5.1475   -1.1819   33.6213 C   0  0  0  0  0  0  0  0  0  0  0  0
   -3.9277   -1.6993   32.8898 C   0  0  0  0  0  0  0  0  0  0  0  0
   -3.9411   -2.5493   32.1121 O   0  0  0  0  0  0  0  0  0  0  0  0
   -2.7583   -0.8047   33.4846 N   0  0  0  0  0  0  0  0  0  0  0  0
   -1.4480   -0.7914   33.3980 C   0  0  0  0  0  0  0  0  0  0  0  0
   -0.9681   -2.2932   34.4166 C   0  0  0  0  0  0  0  0  0  0  0  0
   -0.6124   -3.2562   33.3834 N   0  0  0  0  0  0  0  0  0  0  0  0
    0.0209   -4.4514   33.6294 C   0  0  0  0  0  0  0  0  0  0  0  0
    0.3144   -5.5034   32.8510 C   0  0  0  0  0  0  0  0  0  0  0  0
   -0.0927   -5.7639   31.4299 C   0  0  0  0  0  0  0  0  0  0  0  0
    0.7279   -5.0397   30.3861 C   0  0  0  0  0  0  0  0  0  0  0  0
    0.1136   -4.0943   29.5665 C   0  0  0  0  0  0  0  0  0  0  0  0
    0.8894   -3.3199   28.7197 C   0  0  0  0  0  0  0  0  0  0  0  0
    2.2574   -3.5312   28.6819 C   0  0  0  0  0  0  0  0  0  0  0  0
    2.7959   -4.5353   29.4720 C   0  0  0  0  0  0  0  0  0  0  0  0
    4.1477   -4.8080   29.4528 N   0  0  0  0  0  0  0  0  0  0  0  0
    5.2427   -4.1283   28.7996 C   0  0  0  0  0  0  0  0  0  0  0  0
    5.2673   -3.1086   28.1720 O   0  0  0  0  0  0  0  0  0  0  0  0
    6.5328   -4.9422   29.0792 C   0  0  0  0  0  0  0  0  0  0  0  0
    7.7359   -4.4473   28.2672 C   0  0  0  0  0  0  0  0  0  0  0  0
    7.6469   -4.8288   26.8876 O   0  0  0  0  0  0  0  0  0  0  0  0
    7.4909   -6.2489   26.7707 C   0  0  0  0  0  0  0  0  0  0  0  0
    6.2478   -6.7121   27.5247 C   0  0  0  0  0  0  0  0  0  0  0  0
    6.3190   -6.3568   28.9184 O   0  0  0  0  0  0  0  0  0  0  0  0
    2.0573   -5.3119   30.2994 N   0  0  0  0  0  0  0  0  0  0  0  0
   -0.5714   -2.4716   32.1799 C   0  0  0  0  0  0  0  0  0  0  0  0
   -0.9358   -0.8674   32.7910 C   0  0  0  0  0  0  0  0  0  0  0  0
   -5.0754   -0.1065   33.8064 H   0  0  0  0  0  0  0  0  0  0  0  0
   -6.0358   -1.3532   33.0073 H   0  0  0  0  0  0  0  0  0  0  0  0
   -5.2491   -1.7114   34.5721 H   0  0  0  0  0  0  0  0  0  0  0  0
   -1.3493   -0.4732   34.5844 H   0  0  0  0  0  0  0  0  0  0  0  0
   -1.4266    0.5174   33.6636 H   0  0  0  0  0  0  0  0  0  0  0  0
   -1.8182   -2.6094   35.0309 H   0  0  0  0  0  0  0  0  0  0  0  0
   -0.0826   -2.0275   35.0118 H   0  0  0  0  0  0  0  0  0  0  0  0
    0.3067   -4.5291   34.6801 H   0  0  0  0  0  0  0  0  0  0  0  0
    0.8460   -6.3277   33.3217 H   0  0  0  0  0  0  0  0  0  0  0  0
   -1.1521   -5.5169   31.3255 H   0  0  0  0  0  0  0  0  0  0  0  0
   -0.0218   -6.8406   31.2302 H   0  0  0  0  0  0  0  0  0  0  0  0
   -0.9556   -3.9176   29.5958 H   0  0  0  0  0  0  0  0  0  0  0  0
    0.4295   -2.5515   28.1020 H   0  0  0  0  0  0  0  0  0  0  0  0
    2.8697   -2.9194   28.0283 H   0  0  0  0  0  0  0  0  0  0  0  0
    4.5086   -5.6040   29.9602 H   0  0  0  0  0  0  0  0  0  0  0  0
    6.7565   -4.7777   30.1411 H   0  0  0  0  0  0  0  0  0  0  0  0
    7.8308   -3.3577   28.3096 H   0  0  0  0  0  0  0  0  0  0  0  0
    8.6611   -4.8757   28.6713 H   0  0  0  0  0  0  0  0  0  0  0  0
    8.3923   -6.7330   27.1634 H   0  0  0  0  0  0  0  0  0  0  0  0
    7.3995   -6.4965   25.7099 H   0  0  0  0  0  0  0  0  0  0  0  0
    5.3432   -6.2681   27.0944 H   0  0  0  0  0  0  0  0  0  0  0  0
    6.1505   -7.8003   27.4645 H   0  0  0  0  0  0  0  0  0  0  0  0
   -1.3568   -2.7480   31.4735 H   0  0  0  0  0  0  0  0  0  0  0  0
    0.4229   -2.4102   31.7294 H   0  0  0  0  0  0  0  0  0  0  0  0
    0.1713   -0.2851   33.1012 H   0  0  0  0  0  0  0  0  0  0  0  0
   -1.0692   -0.3686   31.6825 H   0  0  0  0  0  0  0  0  0  0  0  0
  1  2  1  0
  2  3  2  0
  2  4  1  0
  4  5  1  0
  5  6  1  0
  6  7  1  0
  7  8  1  0
  8  9  2  3
  9 10  1  0
 10 11  1  0
 11 12  2  0
 12 13  1  0
 13 14  2  0
 14 15  1  0
 15 16  1  0
 16 17  1  0
 17 18  2  0
 17 19  1  0
 19 20  1  0
 20 21  1  0
 21 22  1  0
 22 23  1  0
 23 24  1  0
 15 25  2  0
  7 26  1  0
 26 27  1  0
 27  4  1  0
 25 11  1  0
 24 19  1  0
  1 28  1  0
  1 29  1  0
  1 30  1  0
  5 31  1  0
  5 32  1  0
  6 33  1  0
  6 34  1  0
  8 35  1  0
  9 36  1  0
 10 37  1  0
 10 38  1  0
 12 39  1  0
 13 40  1  0
 14 41  1  0
 16 42  1  0
 19 43  1  0
 20 44  1  0
 20 45  1  0
 22 46  1  0
 22 47  1  0
 23 48  1  0
 23 49  1  0
 26 50  1  0
 26 51  1  0
 27 52  1  0
 27 53  1  0
M  END
>  <Energy>  (316) 
878.62388438062817

>  <compound_id>  (316) 
617

>  <target_id>  (316) 
1

>  <reference_id>  (316) 
59

>  <inspiration_ids>  (316) 
[59, 201]

>  <energy_score>  (316) 
711.2151237095047

>  <distance_score>  (316) 
2.998469862505193

>  <path>  (316) 
/opt/xchem-fragalysis-2/maxwin/BulkDock/SCRATCH/505733/C617-P59/C617-P59.minimised.mol

>  <scratch_subdir>  (316) 
/opt/xchem-fragalysis-2/maxwin/BulkDock/SCRATCH/505733/C617-P59

>  <fragmenstein_runtime>  (316) 
19.798603296279907

>  <fragmenstein_outcome>  (316) 
too moved

>  <fragmenstein_mode>  (316) 
expansion

>  <fragmenstein_error>  (316) 


$$$$
C617-P201
     RDKit          3D

 53 55  0  0  0  0  0  0  0  0999 V2000
   -0.0723    1.1505   35.0020 C   0  0  0  0  0  0  0  0  0  0  0  0
   -0.0718    1.0652   33.4931 C   0  0  0  0  0  0  0  0  0  0  0  0
    0.1302    1.9655   32.7964 O   0  0  0  0  0  0  0  0  0  0  0  0
   -0.3895   -0.4251   33.2081 N   0  0  0  0  0  0  0  0  0  0  0  0
   -0.7389   -1.1406   31.4076 C   0  0  0  0  0  0  0  0  0  0  0  0
   -0.7389   -2.8430   30.7887 C   0  0  0  0  0  0  0  0  0  0  0  0
   -1.2701   -3.5838   31.9126 N   0  0  0  0  0  0  0  0  0  0  0  0
   -1.0501   -4.8951   32.2781 C   0  0  0  0  0  0  0  0  0  0  0  0
   -0.4144   -5.9330   31.7247 C   0  0  0  0  0  0  0  0  0  0  0  0
    0.3588   -5.9367   30.4483 C   0  0  0  0  0  0  0  0  0  0  0  0
    1.7949   -5.4598   30.5633 C   0  0  0  0  0  0  0  0  0  0  0  0
    2.2219   -4.6625   31.6279 C   0  0  0  0  0  0  0  0  0  0  0  0
    3.5061   -4.1457   31.6211 C   0  0  0  0  0  0  0  0  0  0  0  0
    4.3483   -4.4533   30.5656 C   0  0  0  0  0  0  0  0  0  0  0  0
    3.8819   -5.2807   29.5560 C   0  0  0  0  0  0  0  0  0  0  0  0
    4.7078   -5.6714   28.5213 N   0  0  0  0  0  0  0  0  0  0  0  0
    6.0720   -5.3120   28.2098 C   0  0  0  0  0  0  0  0  0  0  0  0
    6.8641   -4.6423   28.8146 O   0  0  0  0  0  0  0  0  0  0  0  0
    6.4815   -5.9159   26.8505 C   0  0  0  0  0  0  0  0  0  0  0  0
    5.5320   -5.3814   25.7685 C   0  0  0  0  0  0  0  0  0  0  0  0
    4.3564   -6.2107   25.7411 O   0  0  0  0  0  0  0  0  0  0  0  0
    4.6941   -7.5547   25.3314 C   0  0  0  0  0  0  0  0  0  0  0  0
    6.1493   -7.9150   25.6448 C   0  0  0  0  0  0  0  0  0  0  0  0
    6.4964   -7.3530   26.9191 O   0  0  0  0  0  0  0  0  0  0  0  0
    2.6238   -5.7818   29.5312 N   0  0  0  0  0  0  0  0  0  0  0  0
   -1.4148   -2.5457   32.9218 C   0  0  0  0  0  0  0  0  0  0  0  0
   -0.4177   -1.1645   32.1506 C   0  0  0  0  0  0  0  0  0  0  0  0
    0.6917    0.4859   35.4150 H   0  0  0  0  0  0  0  0  0  0  0  0
    0.1538    2.1761   35.3083 H   0  0  0  0  0  0  0  0  0  0  0  0
   -1.0574    0.8783   35.3911 H   0  0  0  0  0  0  0  0  0  0  0  0
   -1.8880   -0.7897   31.1714 H   0  0  0  0  0  0  0  0  0  0  0  0
   -0.2779   -0.4308   30.5162 H   0  0  0  0  0  0  0  0  0  0  0  0
    0.2954   -3.0769   30.5281 H   0  0  0  0  0  0  0  0  0  0  0  0
   -1.3890   -2.8668   29.9089 H   0  0  0  0  0  0  0  0  0  0  0  0
   -1.4593   -5.0920   33.2675 H   0  0  0  0  0  0  0  0  0  0  0  0
   -0.3986   -6.8678   32.2838 H   0  0  0  0  0  0  0  0  0  0  0  0
   -0.1478   -5.3212   29.6983 H   0  0  0  0  0  0  0  0  0  0  0  0
    0.3649   -6.9623   30.0596 H   0  0  0  0  0  0  0  0  0  0  0  0
    1.5697   -4.4045   32.4553 H   0  0  0  0  0  0  0  0  0  0  0  0
    3.8507   -3.5079   32.4306 H   0  0  0  0  0  0  0  0  0  0  0  0
    5.3579   -4.0572   30.5642 H   0  0  0  0  0  0  0  0  0  0  0  0
    4.3129   -6.1843   27.7383 H   0  0  0  0  0  0  0  0  0  0  0  0
    7.5018   -5.5748   26.6384 H   0  0  0  0  0  0  0  0  0  0  0  0
    5.2243   -4.3490   25.9650 H   0  0  0  0  0  0  0  0  0  0  0  0
    6.0138   -5.4005   24.7854 H   0  0  0  0  0  0  0  0  0  0  0  0
    4.4736   -7.6758   24.2709 H   0  0  0  0  0  0  0  0  0  0  0  0
    4.0163   -8.2122   25.8842 H   0  0  0  0  0  0  0  0  0  0  0  0
    6.2890   -8.9984   25.6741 H   0  0  0  0  0  0  0  0  0  0  0  0
    6.8411   -7.5252   24.8884 H   0  0  0  0  0  0  0  0  0  0  0  0
   -2.4533   -2.1996   33.0158 H   0  0  0  0  0  0  0  0  0  0  0  0
   -1.0005   -2.7889   33.9112 H   0  0  0  0  0  0  0  0  0  0  0  0
    0.3876   -1.9733   32.6434 H   0  0  0  0  0  0  0  0  0  0  0  0
    0.8809   -0.9612   31.9133 H   0  0  0  0  0  0  0  0  0  0  0  0
  1  2  1  0
  2  3  2  0
  2  4  1  0
  4  5  1  0
  5  6  1  0
  6  7  1  0
  7  8  1  0
  8  9  2  3
  9 10  1  0
 10 11  1  0
 11 12  2  0
 12 13  1  0
 13 14  2  0
 14 15  1  0
 15 16  1  0
 16 17  1  0
 17 18  2  0
 17 19  1  0
 19 20  1  0
 20 21  1  0
 21 22  1  0
 22 23  1  0
 23 24  1  0
 15 25  2  0
  7 26  1  0
 26 27  1  0
 27  4  1  0
 25 11  1  0
 24 19  1  0
  1 28  1  0
  1 29  1  0
  1 30  1  0
  5 31  1  0
  5 32  1  0
  6 33  1  0
  6 34  1  0
  8 35  1  0
  9 36  1  0
 10 37  1  0
 10 38  1  0
 12 39  1  0
 13 40  1  0
 14 41  1  0
 16 42  1  0
 19 43  1  0
 20 44  1  0
 20 45  1  0
 22 46  1  0
 22 47  1  0
 23 48  1  0
 23 49  1  0
 26 50  1  0
 26 51  1  0
 27 52  1  0
 27 53  1  0
M  END
>  <Energy>  (317) 
913.19770347677297

>  <compound_id>  (317) 
617

>  <target_id>  (317) 
1

>  <reference_id>  (317) 
201

>  <inspiration_ids>  (317) 
[59, 201]

>  <energy_score>  (317) 
745.7889428056586

>  <distance_score>  (317) 
4.020657909125177

>  <path>  (317) 
/opt/xchem-fragalysis-2/maxwin/BulkDock/SCRATCH/505733/C617-P201/C617-P201.minimised.mol

>  <scratch_subdir>  (317) 
/opt/xchem-fragalysis-2/maxwin/BulkDock/SCRATCH/505733/C617-P201

>  <fragmenstein_runtime>  (317) 
21.68558669090271

>  <fragmenstein_outcome>  (317) 
too moved

>  <fragmenstein_mode>  (317) 
expansion

>  <fragmenstein_error>  (317) 


$$$$
C618-P59
     RDKit          3D

 43 45  0  0  0  0  0  0  0  0999 V2000
   -0.5190    0.6853   33.0356 C   0  0  0  0  0  0  0  0  0  0  0  0
   -1.8568   -0.0149   32.7682 C   0  0  0  0  0  0  0  0  0  0  0  0
   -2.8827    0.5072   33.7099 N   0  0  0  0  0  0  0  0  0  0  0  0
   -1.6716   -1.4769   32.9707 C   0  0  0  0  0  0  0  0  0  0  0  0
   -1.1867   -2.0785   34.0315 N   0  0  0  0  0  0  0  0  0  0  0  0
   -1.2262   -3.4004   33.6699 C   0  0  0  0  0  0  0  0  0  0  0  0
   -0.6375   -4.4670   34.5838 C   0  0  0  0  0  0  0  0  0  0  0  0
    0.0217   -5.4692   33.6669 C   0  0  0  0  0  0  0  0  0  0  0  0
   -0.5872   -6.6883   33.3693 C   0  0  0  0  0  0  0  0  0  0  0  0
   -0.3854   -7.2061   32.0966 C   0  0  0  0  0  0  0  0  0  0  0  0
    0.2802   -6.4094   31.1634 C   0  0  0  0  0  0  0  0  0  0  0  0
    0.8751   -5.2295   31.5948 C   0  0  0  0  0  0  0  0  0  0  0  0
    0.9173   -4.0990   30.8010 N   0  0  0  0  0  0  0  0  0  0  0  0
    0.1938   -3.7759   29.4901 C   0  0  0  0  0  0  0  0  0  0  0  0
   -0.4930   -4.4362   28.8276 O   0  0  0  0  0  0  0  0  0  0  0  0
    0.4005   -2.2947   29.1427 C   0  0  0  0  0  0  0  0  0  0  0  0
   -1.0167   -1.6826   29.1010 C   0  0  0  0  0  0  0  0  0  0  0  0
   -1.1028   -0.4605   29.8419 O   0  0  0  0  0  0  0  0  0  0  0  0
   -0.0604    0.4210   29.4403 C   0  0  0  0  0  0  0  0  0  0  0  0
    1.3103   -0.1909   29.7112 C   0  0  0  0  0  0  0  0  0  0  0  0
    1.2548   -1.5845   30.0353 O   0  0  0  0  0  0  0  0  0  0  0  0
    0.9822   -4.9292   32.8859 N   0  0  0  0  0  0  0  0  0  0  0  0
   -1.8027   -3.6163   32.4661 N   0  0  0  0  0  0  0  0  0  0  0  0
   -2.0783   -2.3291   31.9930 O   0  0  0  0  0  0  0  0  0  0  0  0
    0.2760    0.2561   32.4185 H   0  0  0  0  0  0  0  0  0  0  0  0
   -0.5555    1.7566   32.8276 H   0  0  0  0  0  0  0  0  0  0  0  0
   -0.2035    0.5683   34.0801 H   0  0  0  0  0  0  0  0  0  0  0  0
   -2.2095    0.1877   31.7593 H   0  0  0  0  0  0  0  0  0  0  0  0
   -2.5017    0.4029   34.6551 H   0  0  0  0  0  0  0  0  0  0  0  0
   -3.6742   -0.1404   33.6964 H   0  0  0  0  0  0  0  0  0  0  0  0
    0.1256   -4.0164   35.2288 H   0  0  0  0  0  0  0  0  0  0  0  0
   -1.3848   -4.9312   35.2297 H   0  0  0  0  0  0  0  0  0  0  0  0
   -1.3036   -7.1467   34.0419 H   0  0  0  0  0  0  0  0  0  0  0  0
   -0.8824   -8.1201   31.7874 H   0  0  0  0  0  0  0  0  0  0  0  0
    0.2215   -6.6482   30.1118 H   0  0  0  0  0  0  0  0  0  0  0  0
    1.3684   -3.2598   31.1550 H   0  0  0  0  0  0  0  0  0  0  0  0
    0.8564   -2.2736   28.1453 H   0  0  0  0  0  0  0  0  0  0  0  0
   -1.7898   -2.3519   29.4900 H   0  0  0  0  0  0  0  0  0  0  0  0
   -1.3005   -1.4811   28.0600 H   0  0  0  0  0  0  0  0  0  0  0  0
   -0.1666    1.3673   29.9797 H   0  0  0  0  0  0  0  0  0  0  0  0
   -0.1748    0.6565   28.3749 H   0  0  0  0  0  0  0  0  0  0  0  0
    1.7880    0.3165   30.5555 H   0  0  0  0  0  0  0  0  0  0  0  0
    1.9731   -0.0454   28.8503 H   0  0  0  0  0  0  0  0  0  0  0  0
  1  2  1  0
  2  3  1  0
  2  4  1  0
  4  5  2  0
  5  6  1  0
  6  7  1  0
  7  8  1  0
  8  9  2  0
  9 10  1  0
 10 11  2  0
 11 12  1  0
 12 13  1  0
 13 14  1  0
 14 15  2  0
 14 16  1  0
 16 17  1  0
 17 18  1  0
 18 19  1  0
 19 20  1  0
 20 21  1  0
 12 22  2  0
  6 23  2  0
 23 24  1  0
 24  4  1  0
 22  8  1  0
 21 16  1  0
  1 25  1  0
  1 26  1  0
  1 27  1  0
  2 28  1  0
  3 29  1  0
  3 30  1  0
  7 31  1  0
  7 32  1  0
  9 33  1  0
 10 34  1  0
 11 35  1  0
 13 36  1  0
 16 37  1  0
 17 38  1  0
 17 39  1  0
 19 40  1  0
 19 41  1  0
 20 42  1  0
 20 43  1  0
M  END
>  <Energy>  (318) 
151.14994455406946

>  <compound_id>  (318) 
618

>  <target_id>  (318) 
1

>  <reference_id>  (318) 
59

>  <inspiration_ids>  (318) 
[59, 202]

>  <energy_score>  (318) 
7.898855183692092

>  <distance_score>  (318) 
2.295672468352261

>  <path>  (318) 
/opt/xchem-fragalysis-2/maxwin/BulkDock/SCRATCH/505733/C618-P59/C618-P59.minimised.mol

>  <scratch_subdir>  (318) 
/opt/xchem-fragalysis-2/maxwin/BulkDock/SCRATCH/505733/C618-P59

>  <fragmenstein_runtime>  (318) 
3.7701268196105957

>  <fragmenstein_outcome>  (318) 
too moved

>  <fragmenstein_mode>  (318) 
expansion

>  <fragmenstein_error>  (318) 


$$$$
C618-P202
     RDKit          3D

 43 45  0  0  0  0  0  0  0  0999 V2000
   -0.7439    0.6527   32.7708 C   0  0  0  0  0  0  0  0  0  0  0  0
   -2.0576   -0.0669   32.4499 C   0  0  0  0  0  0  0  0  0  0  0  0
   -3.1377    0.4773   33.3127 N   0  0  0  0  0  0  0  0  0  0  0  0
   -1.8681   -1.5260   32.7023 C   0  0  0  0  0  0  0  0  0  0  0  0
   -1.3519   -2.1033   33.7637 N   0  0  0  0  0  0  0  0  0  0  0  0
   -1.3675   -3.4348   33.4222 C   0  0  0  0  0  0  0  0  0  0  0  0
   -0.7159   -4.4874   34.3144 C   0  0  0  0  0  0  0  0  0  0  0  0
    0.0001   -5.4092   33.3651 C   0  0  0  0  0  0  0  0  0  0  0  0
   -0.4934   -6.6506   32.9753 C   0  0  0  0  0  0  0  0  0  0  0  0
   -0.0982   -7.1333   31.7268 C   0  0  0  0  0  0  0  0  0  0  0  0
    0.6577   -6.3067   30.8831 C   0  0  0  0  0  0  0  0  0  0  0  0
    1.0822   -5.0885   31.3860 C   0  0  0  0  0  0  0  0  0  0  0  0
    1.1085   -3.9388   30.6281 N   0  0  0  0  0  0  0  0  0  0  0  0
    1.2854   -3.7438   29.1058 C   0  0  0  0  0  0  0  0  0  0  0  0
    1.5138   -4.5200   28.2657 O   0  0  0  0  0  0  0  0  0  0  0  0
    0.9829   -2.2459   28.8633 C   0  0  0  0  0  0  0  0  0  0  0  0
   -0.5594   -2.0918   28.9742 C   0  0  0  0  0  0  0  0  0  0  0  0
   -0.9488   -0.9212   29.7085 O   0  0  0  0  0  0  0  0  0  0  0  0
   -0.1880    0.1951   29.2579 C   0  0  0  0  0  0  0  0  0  0  0  0
    1.2873   -0.0093   29.5858 C   0  0  0  0  0  0  0  0  0  0  0  0
    1.6293   -1.3851   29.8016 O   0  0  0  0  0  0  0  0  0  0  0  0
    0.9613   -4.7732   32.6731 N   0  0  0  0  0  0  0  0  0  0  0  0
   -1.9558   -3.6789   32.2296 N   0  0  0  0  0  0  0  0  0  0  0  0
   -2.2733   -2.4052   31.7461 O   0  0  0  0  0  0  0  0  0  0  0  0
    0.1027    0.1605   32.2822 H   0  0  0  0  0  0  0  0  0  0  0  0
   -0.7528    1.6920   32.4408 H   0  0  0  0  0  0  0  0  0  0  0  0
   -0.5304    0.6475   33.8470 H   0  0  0  0  0  0  0  0  0  0  0  0
   -2.3440    0.1096   31.4113 H   0  0  0  0  0  0  0  0  0  0  0  0
   -2.8436    0.3400   34.2847 H   0  0  0  0  0  0  0  0  0  0  0  0
   -3.9518   -0.1356   33.2153 H   0  0  0  0  0  0  0  0  0  0  0  0
    0.0205   -3.9997   34.9648 H   0  0  0  0  0  0  0  0  0  0  0  0
   -1.4005   -5.0317   34.9625 H   0  0  0  0  0  0  0  0  0  0  0  0
   -1.2437   -7.1735   33.5584 H   0  0  0  0  0  0  0  0  0  0  0  0
   -0.4907   -8.0761   31.3559 H   0  0  0  0  0  0  0  0  0  0  0  0
    0.7739   -6.5508   29.8355 H   0  0  0  0  0  0  0  0  0  0  0  0
    0.9997   -3.0335   31.0758 H   0  0  0  0  0  0  0  0  0  0  0  0
    1.3440   -1.9850   27.8671 H   0  0  0  0  0  0  0  0  0  0  0  0
   -1.0415   -2.9525   29.4476 H   0  0  0  0  0  0  0  0  0  0  0  0
   -0.9985   -2.0258   27.9744 H   0  0  0  0  0  0  0  0  0  0  0  0
   -0.3327    0.3188   28.1772 H   0  0  0  0  0  0  0  0  0  0  0  0
   -0.5647    1.1070   29.7307 H   0  0  0  0  0  0  0  0  0  0  0  0
    1.5492    0.5278   30.5025 H   0  0  0  0  0  0  0  0  0  0  0  0
    1.9196    0.4024   28.7912 H   0  0  0  0  0  0  0  0  0  0  0  0
  1  2  1  0
  2  3  1  0
  2  4  1  0
  4  5  2  0
  5  6  1  0
  6  7  1  0
  7  8  1  0
  8  9  2  0
  9 10  1  0
 10 11  2  0
 11 12  1  0
 12 13  1  0
 13 14  1  0
 14 15  2  0
 14 16  1  0
 16 17  1  0
 17 18  1  0
 18 19  1  0
 19 20  1  0
 20 21  1  0
 12 22  2  0
  6 23  2  0
 23 24  1  0
 24  4  1  0
 22  8  1  0
 21 16  1  0
  1 25  1  0
  1 26  1  0
  1 27  1  0
  2 28  1  0
  3 29  1  0
  3 30  1  0
  7 31  1  0
  7 32  1  0
  9 33  1  0
 10 34  1  0
 11 35  1  0
 13 36  1  0
 16 37  1  0
 17 38  1  0
 17 39  1  0
 19 40  1  0
 19 41  1  0
 20 42  1  0
 20 43  1  0
M  END
>  <Energy>  (319) 
147.49454965056665

>  <compound_id>  (319) 
618

>  <target_id>  (319) 
1

>  <reference_id>  (319) 
202

>  <inspiration_ids>  (319) 
[59, 202]

>  <energy_score>  (319) 
4.2434602801901065

>  <distance_score>  (319) 
2.318706558776177

>  <path>  (319) 
/opt/xchem-fragalysis-2/maxwin/BulkDock/SCRATCH/505733/C618-P202/C618-P202.minimised.mol

>  <scratch_subdir>  (319) 
/opt/xchem-fragalysis-2/maxwin/BulkDock/SCRATCH/505733/C618-P202

>  <fragmenstein_runtime>  (319) 
5.002687454223633

>  <fragmenstein_outcome>  (319) 
too moved

>  <fragmenstein_mode>  (319) 
expansion

>  <fragmenstein_error>  (319) 


$$$$
C619-P60
     RDKit          3D

 38 39  0  0  0  0  0  0  0  0999 V2000
   14.0996   -3.5013   17.3618 C   0  0  0  0  0  0  0  0  0  0  0  0
   14.2201   -2.0506   17.1680 N   0  0  0  0  0  0  0  0  0  0  0  0
   13.1782   -1.5376   16.3663 C   0  0  0  0  0  0  0  0  0  0  0  0
   12.4148   -0.4666   16.7702 C   0  0  0  0  0  0  0  0  0  0  0  0
   11.2398   -0.1236   16.0837 C   0  0  0  0  0  0  0  0  0  0  0  0
   10.8293   -0.8637   14.9887 C   0  0  0  0  0  0  0  0  0  0  0  0
   11.7249   -1.7621   14.4407 C   0  0  0  0  0  0  0  0  0  0  0  0
   12.9690   -1.9277   15.0444 C   0  0  0  0  0  0  0  0  0  0  0  0
   14.1002   -2.0516   14.2127 N   0  0  0  0  0  0  0  0  0  0  0  0
   14.6075   -0.8259   13.5759 C   0  0  0  0  0  0  0  0  0  0  0  0
   13.6681    0.3737   13.4532 C   0  0  0  0  0  0  0  0  0  0  0  0
   15.6897   -0.4153   14.3919 O   0  0  0  0  0  0  0  0  0  0  0  0
   15.1585   -1.2554   12.1856 C   0  0  0  0  0  0  0  0  0  0  0  0
   15.5828   -0.0945   11.2743 C   0  0  0  0  0  0  0  0  0  0  0  0
   16.1123   -0.5925   10.0312 O   0  0  0  0  0  0  0  0  0  0  0  0
   17.2221   -1.4636   10.2833 C   0  0  0  0  0  0  0  0  0  0  0  0
   16.8092   -2.6155   11.1920 C   0  0  0  0  0  0  0  0  0  0  0  0
   16.3196   -2.0997   12.4313 O   0  0  0  0  0  0  0  0  0  0  0  0
   14.8764   -3.8299   18.0594 H   0  0  0  0  0  0  0  0  0  0  0  0
   14.2461   -4.0496   16.4263 H   0  0  0  0  0  0  0  0  0  0  0  0
   13.1274   -3.7661   17.7913 H   0  0  0  0  0  0  0  0  0  0  0  0
   14.2156   -1.5958   18.0786 H   0  0  0  0  0  0  0  0  0  0  0  0
   12.7566    0.1135   17.6187 H   0  0  0  0  0  0  0  0  0  0  0  0
   10.6382    0.7231   16.3970 H   0  0  0  0  0  0  0  0  0  0  0  0
    9.8965   -0.6377   14.4820 H   0  0  0  0  0  0  0  0  0  0  0  0
   11.5469   -2.1875   13.4597 H   0  0  0  0  0  0  0  0  0  0  0  0
   14.8481   -2.3741   14.8315 H   0  0  0  0  0  0  0  0  0  0  0  0
   12.8035    0.1683   12.8172 H   0  0  0  0  0  0  0  0  0  0  0  0
   13.3316    0.7357   14.4266 H   0  0  0  0  0  0  0  0  0  0  0  0
   14.1917    1.2424   13.0372 H   0  0  0  0  0  0  0  0  0  0  0  0
   16.3774   -1.0874   14.2219 H   0  0  0  0  0  0  0  0  0  0  0  0
   14.4046   -1.8617   11.6646 H   0  0  0  0  0  0  0  0  0  0  0  0
   16.3485    0.5306   11.7483 H   0  0  0  0  0  0  0  0  0  0  0  0
   14.7308    0.5371   11.0091 H   0  0  0  0  0  0  0  0  0  0  0  0
   18.0264   -0.8752   10.7401 H   0  0  0  0  0  0  0  0  0  0  0  0
   17.5820   -1.8427    9.3228 H   0  0  0  0  0  0  0  0  0  0  0  0
   17.6692   -3.2570   11.4047 H   0  0  0  0  0  0  0  0  0  0  0  0
   16.0261   -3.2251   10.7312 H   0  0  0  0  0  0  0  0  0  0  0  0
  1  2  1  0
  2  3  1  0
  3  4  2  0
  4  5  1  0
  5  6  2  0
  6  7  1  0
  7  8  2  0
  8  9  1  0
  9 10  1  0
 10 11  1  0
 10 12  1  0
 10 13  1  0
 13 14  1  0
 14 15  1  0
 15 16  1  0
 16 17  1  0
 17 18  1  0
  8  3  1  0
 18 13  1  0
  1 19  1  0
  1 20  1  0
  1 21  1  0
  2 22  1  0
  4 23  1  0
  5 24  1  0
  6 25  1  0
  7 26  1  0
  9 27  1  0
 11 28  1  0
 11 29  1  0
 11 30  1  0
 12 31  1  0
 13 32  1  0
 14 33  1  0
 14 34  1  0
 16 35  1  0
 16 36  1  0
 17 37  1  0
 17 38  1  0
M  END
>  <Energy>  (320) 
111.41561103644588

>  <compound_id>  (320) 
619

>  <target_id>  (320) 
1

>  <reference_id>  (320) 
60

>  <inspiration_ids>  (320) 
[60, 4]

>  <energy_score>  (320) 
-32.836857043796925

>  <distance_score>  (320) 
1.6556674068140464

>  <path>  (320) 
/opt/xchem-fragalysis-2/maxwin/BulkDock/SCRATCH/505733/C619-P60/C619-P60.minimised.mol

>  <scratch_subdir>  (320) 
/opt/xchem-fragalysis-2/maxwin/BulkDock/SCRATCH/505733/C619-P60

>  <fragmenstein_runtime>  (320) 
2.053027868270874

>  <fragmenstein_outcome>  (320) 
too moved

>  <fragmenstein_mode>  (320) 
expansion

>  <fragmenstein_error>  (320) 


$$$$
C619-P4
     RDKit          3D

 38 39  0  0  0  0  0  0  0  0999 V2000
   15.0721   -3.0299   18.5330 C   0  0  0  0  0  0  0  0  0  0  0  0
   14.9419   -2.2841   17.2949 N   0  0  0  0  0  0  0  0  0  0  0  0
   13.8039   -2.4302   16.4902 C   0  0  0  0  0  0  0  0  0  0  0  0
   12.8857   -3.4346   16.7125 C   0  0  0  0  0  0  0  0  0  0  0  0
   11.7669   -3.5356   15.9110 C   0  0  0  0  0  0  0  0  0  0  0  0
   11.5284   -2.6567   14.8816 C   0  0  0  0  0  0  0  0  0  0  0  0
   12.4553   -1.6793   14.5996 C   0  0  0  0  0  0  0  0  0  0  0  0
   13.6211   -1.5719   15.3599 C   0  0  0  0  0  0  0  0  0  0  0  0
   14.5925   -0.5780   15.1531 N   0  0  0  0  0  0  0  0  0  0  0  0
   14.7359    0.1575   13.9146 C   0  0  0  0  0  0  0  0  0  0  0  0
   13.6894    1.2543   13.7289 C   0  0  0  0  0  0  0  0  0  0  0  0
   15.9289    0.8589   14.1993 O   0  0  0  0  0  0  0  0  0  0  0  0
   14.9938   -0.7262   12.6629 C   0  0  0  0  0  0  0  0  0  0  0  0
   15.4365    0.1192   11.4539 C   0  0  0  0  0  0  0  0  0  0  0  0
   15.6547   -0.6721   10.2760 O   0  0  0  0  0  0  0  0  0  0  0  0
   16.1526   -1.9814   10.5815 C   0  0  0  0  0  0  0  0  0  0  0  0
   16.8680   -2.0446   11.9214 C   0  0  0  0  0  0  0  0  0  0  0  0
   15.9897   -1.7279   13.0018 O   0  0  0  0  0  0  0  0  0  0  0  0
   15.9692   -2.6846   19.0576 H   0  0  0  0  0  0  0  0  0  0  0  0
   15.2125   -4.0933   18.3396 H   0  0  0  0  0  0  0  0  0  0  0  0
   14.2260   -2.8807   19.2067 H   0  0  0  0  0  0  0  0  0  0  0  0
   15.1789   -1.2966   17.3713 H   0  0  0  0  0  0  0  0  0  0  0  0
   12.9945   -4.1541   17.5150 H   0  0  0  0  0  0  0  0  0  0  0  0
   11.0812   -4.3448   16.0983 H   0  0  0  0  0  0  0  0  0  0  0  0
   10.6331   -2.7687   14.2927 H   0  0  0  0  0  0  0  0  0  0  0  0
   12.2371   -1.0346   13.7634 H   0  0  0  0  0  0  0  0  0  0  0  0
   15.4738   -1.0983   15.2795 H   0  0  0  0  0  0  0  0  0  0  0  0
   12.7429    0.8918   13.3262 H   0  0  0  0  0  0  0  0  0  0  0  0
   13.4931    1.7650   14.6785 H   0  0  0  0  0  0  0  0  0  0  0  0
   14.0518    2.0354   13.0500 H   0  0  0  0  0  0  0  0  0  0  0  0
   15.8729    0.9906   15.1611 H   0  0  0  0  0  0  0  0  0  0  0  0
   14.0930   -1.2844   12.3876 H   0  0  0  0  0  0  0  0  0  0  0  0
   16.3724    0.6513   11.6593 H   0  0  0  0  0  0  0  0  0  0  0  0
   14.6813    0.8647   11.1900 H   0  0  0  0  0  0  0  0  0  0  0  0
   16.8273   -2.2740    9.7730 H   0  0  0  0  0  0  0  0  0  0  0  0
   15.2938   -2.6586   10.5885 H   0  0  0  0  0  0  0  0  0  0  0  0
   17.7028   -1.3352   11.9500 H   0  0  0  0  0  0  0  0  0  0  0  0
   17.2767   -3.0426   12.0983 H   0  0  0  0  0  0  0  0  0  0  0  0
  1  2  1  0
  2  3  1  0
  3  4  2  0
  4  5  1  0
  5  6  2  0
  6  7  1  0
  7  8  2  0
  8  9  1  0
  9 10  1  0
 10 11  1  0
 10 12  1  0
 10 13  1  0
 13 14  1  0
 14 15  1  0
 15 16  1  0
 16 17  1  0
 17 18  1  0
  8  3  1  0
 18 13  1  0
  1 19  1  0
  1 20  1  0
  1 21  1  0
  2 22  1  0
  4 23  1  0
  5 24  1  0
  6 25  1  0
  7 26  1  0
  9 27  1  0
 11 28  1  0
 11 29  1  0
 11 30  1  0
 12 31  1  0
 13 32  1  0
 14 33  1  0
 14 34  1  0
 16 35  1  0
 16 36  1  0
 17 37  1  0
 17 38  1  0
M  END
>  <Energy>  (321) 
91.185185351699914

>  <compound_id>  (321) 
619

>  <target_id>  (321) 
1

>  <reference_id>  (321) 
4

>  <inspiration_ids>  (321) 
[60, 4]

>  <energy_score>  (321) 
-53.06728272854406

>  <distance_score>  (321) 
1.9426014747153748

>  <path>  (321) 
/opt/xchem-fragalysis-2/maxwin/BulkDock/SCRATCH/505733/C619-P4/C619-P4.minimised.mol

>  <scratch_subdir>  (321) 
/opt/xchem-fragalysis-2/maxwin/BulkDock/SCRATCH/505733/C619-P4

>  <fragmenstein_runtime>  (321) 
2.1769466400146484

>  <fragmenstein_outcome>  (321) 
too moved

>  <fragmenstein_mode>  (321) 
expansion

>  <fragmenstein_error>  (321) 


$$$$
C620-P60
     RDKit          3D

 46 48  0  0  0  0  0  0  0  0999 V2000
   15.4953    6.8671   13.6940 C   0  0  0  0  0  0  0  0  0  0  0  0
   14.0159    6.8126   14.0489 C   0  0  0  0  0  0  0  0  0  0  0  0
   13.5519    5.4039   14.4187 C   0  0  0  0  0  0  0  0  0  0  0  0
   14.0057    4.9402   15.8088 C   0  0  0  0  0  0  0  0  0  0  0  0
   14.5899    5.6806   16.5416 O   0  0  0  0  0  0  0  0  0  0  0  0
   13.5790    3.5879   15.9934 N   0  0  0  0  0  0  0  0  0  0  0  0
   13.8009    2.6660   17.0791 C   0  0  0  0  0  0  0  0  0  0  0  0
   13.4156    1.2861   16.6509 C   0  0  0  0  0  0  0  0  0  0  0  0
   12.7077    1.0511   15.4921 N   0  0  0  0  0  0  0  0  0  0  0  0
   12.5861   -0.2572   15.4745 C   0  0  0  0  0  0  0  0  0  0  0  0
   11.9432   -1.1432   14.5704 C   0  0  0  0  0  0  0  0  0  0  0  0
   11.9621   -2.4671   14.8115 C   0  0  0  0  0  0  0  0  0  0  0  0
   12.6216   -3.0226   15.9844 C   0  0  0  0  0  0  0  0  0  0  0  0
   13.2274   -2.1976   16.8590 C   0  0  0  0  0  0  0  0  0  0  0  0
   13.7786   -2.6152   18.0417 N   0  0  0  0  0  0  0  0  0  0  0  0
   14.0317   -3.9472   18.5556 C   0  0  0  0  0  0  0  0  0  0  0  0
   13.8958   -5.0227   18.0423 O   0  0  0  0  0  0  0  0  0  0  0  0
   14.4482   -3.8486   20.0465 C   0  0  0  0  0  0  0  0  0  0  0  0
   15.9413   -3.5276   20.1411 C   0  0  0  0  0  0  0  0  0  0  0  0
   16.3503   -3.2669   21.4932 O   0  0  0  0  0  0  0  0  0  0  0  0
   15.5484   -3.9646   22.4600 C   0  0  0  0  0  0  0  0  0  0  0  0
   14.9788   -5.2673   21.8993 C   0  0  0  0  0  0  0  0  0  0  0  0
   14.1230   -5.0481   20.7701 O   0  0  0  0  0  0  0  0  0  0  0  0
   13.2080   -0.8120   16.5940 N   0  0  0  0  0  0  0  0  0  0  0  0
   13.7154    0.1935   17.3651 N   0  0  0  0  0  0  0  0  0  0  0  0
   16.1242    6.5732   14.5394 H   0  0  0  0  0  0  0  0  0  0  0  0
   15.7204    6.2036   12.8527 H   0  0  0  0  0  0  0  0  0  0  0  0
   15.7753    7.8850   13.4047 H   0  0  0  0  0  0  0  0  0  0  0  0
   13.4411    7.1540   13.1798 H   0  0  0  0  0  0  0  0  0  0  0  0
   13.8086    7.5146   14.8647 H   0  0  0  0  0  0  0  0  0  0  0  0
   13.9032    4.6883   13.6659 H   0  0  0  0  0  0  0  0  0  0  0  0
   12.4548    5.3882   14.4168 H   0  0  0  0  0  0  0  0  0  0  0  0
   13.1822    3.2440   15.1236 H   0  0  0  0  0  0  0  0  0  0  0  0
   14.8565    2.7168   17.3628 H   0  0  0  0  0  0  0  0  0  0  0  0
   13.1943    2.9937   17.9287 H   0  0  0  0  0  0  0  0  0  0  0  0
   11.4323   -0.7378   13.7030 H   0  0  0  0  0  0  0  0  0  0  0  0
   11.4613   -3.1550   14.1338 H   0  0  0  0  0  0  0  0  0  0  0  0
   12.5558   -4.0952   16.1425 H   0  0  0  0  0  0  0  0  0  0  0  0
   14.0875   -1.9294   18.7278 H   0  0  0  0  0  0  0  0  0  0  0  0
   13.8586   -3.0516   20.5169 H   0  0  0  0  0  0  0  0  0  0  0  0
   16.2088   -2.6502   19.5437 H   0  0  0  0  0  0  0  0  0  0  0  0
   16.5422   -4.3674   19.7717 H   0  0  0  0  0  0  0  0  0  0  0  0
   14.7402   -3.2906   22.7656 H   0  0  0  0  0  0  0  0  0  0  0  0
   16.1753   -4.1597   23.3351 H   0  0  0  0  0  0  0  0  0  0  0  0
   14.3974   -5.7954   22.6610 H   0  0  0  0  0  0  0  0  0  0  0  0
   15.7884   -5.9296   21.5726 H   0  0  0  0  0  0  0  0  0  0  0  0
  1  2  1  0
  2  3  1  0
  3  4  1  0
  4  5  2  0
  4  6  1  0
  6  7  1  0
  7  8  1  0
  8  9  1  0
  9 10  2  0
 10 11  1  0
 11 12  2  0
 12 13  1  0
 13 14  2  0
 14 15  1  0
 15 16  1  0
 16 17  2  0
 16 18  1  0
 18 19  1  0
 19 20  1  0
 20 21  1  0
 21 22  1  0
 22 23  1  0
 14 24  1  0
 24 25  1  0
 25  8  2  0
 24 10  1  0
 23 18  1  0
  1 26  1  0
  1 27  1  0
  1 28  1  0
  2 29  1  0
  2 30  1  0
  3 31  1  0
  3 32  1  0
  6 33  1  0
  7 34  1  0
  7 35  1  0
 11 36  1  0
 12 37  1  0
 13 38  1  0
 15 39  1  0
 18 40  1  0
 19 41  1  0
 19 42  1  0
 21 43  1  0
 21 44  1  0
 22 45  1  0
 22 46  1  0
M  END
>  <Energy>  (322) 
134.48562911046849

>  <compound_id>  (322) 
620

>  <target_id>  (322) 
1

>  <reference_id>  (322) 
60

>  <inspiration_ids>  (322) 
[60, 5]

>  <energy_score>  (322) 
-24.419858519282513

>  <distance_score>  (322) 
0.8759389965667738

>  <path>  (322) 
/opt/xchem-fragalysis-2/maxwin/BulkDock/SCRATCH/505733/C620-P60/C620-P60.minimised.mol

>  <scratch_subdir>  (322) 
/opt/xchem-fragalysis-2/maxwin/BulkDock/SCRATCH/505733/C620-P60

>  <fragmenstein_runtime>  (322) 
3.334432601928711

>  <fragmenstein_outcome>  (322) 
acceptable

>  <fragmenstein_mode>  (322) 
expansion

>  <fragmenstein_error>  (322) 


$$$$
C620-P5
     RDKit          3D

 46 48  0  0  0  0  0  0  0  0999 V2000
   15.3050    6.6770   13.2097 C   0  0  0  0  0  0  0  0  0  0  0  0
   13.8856    6.6322   13.7583 C   0  0  0  0  0  0  0  0  0  0  0  0
   13.4785    5.2335   14.2211 C   0  0  0  0  0  0  0  0  0  0  0  0
   14.1133    4.8046   15.5502 C   0  0  0  0  0  0  0  0  0  0  0  0
   14.7871    5.5629   16.1810 O   0  0  0  0  0  0  0  0  0  0  0  0
   13.7182    3.4580   15.8229 N   0  0  0  0  0  0  0  0  0  0  0  0
   14.0834    2.5635   16.8924 C   0  0  0  0  0  0  0  0  0  0  0  0
   13.6645    1.1710   16.5444 C   0  0  0  0  0  0  0  0  0  0  0  0
   12.9203    0.8946   15.4187 N   0  0  0  0  0  0  0  0  0  0  0  0
   12.7595   -0.4077   15.4753 C   0  0  0  0  0  0  0  0  0  0  0  0
   12.0524   -1.3178   14.6471 C   0  0  0  0  0  0  0  0  0  0  0  0
   12.0180   -2.6228   14.9740 C   0  0  0  0  0  0  0  0  0  0  0  0
   12.6883   -3.1355   16.1620 C   0  0  0  0  0  0  0  0  0  0  0  0
   13.3611   -2.2856   16.9616 C   0  0  0  0  0  0  0  0  0  0  0  0
   13.9178   -2.6366   18.1649 N   0  0  0  0  0  0  0  0  0  0  0  0
   14.0359   -3.9242   18.8184 C   0  0  0  0  0  0  0  0  0  0  0  0
   13.7478   -5.0240   18.4374 O   0  0  0  0  0  0  0  0  0  0  0  0
   14.5338   -3.7247   20.2719 C   0  0  0  0  0  0  0  0  0  0  0  0
   16.0541   -3.5542   20.2770 C   0  0  0  0  0  0  0  0  0  0  0  0
   16.5518   -3.2245   21.5835 O   0  0  0  0  0  0  0  0  0  0  0  0
   15.7426   -3.7685   22.6393 C   0  0  0  0  0  0  0  0  0  0  0  0
   15.0190   -5.0439   22.2106 C   0  0  0  0  0  0  0  0  0  0  0  0
   14.1254   -4.8168   21.1143 O   0  0  0  0  0  0  0  0  0  0  0  0
   13.3976   -0.9199   16.6047 N   0  0  0  0  0  0  0  0  0  0  0  0
   13.9646    0.1080   17.3025 N   0  0  0  0  0  0  0  0  0  0  0  0
   16.0408    6.4041   13.9716 H   0  0  0  0  0  0  0  0  0  0  0  0
   15.4188    5.9926   12.3629 H   0  0  0  0  0  0  0  0  0  0  0  0
   15.5415    7.6872   12.8607 H   0  0  0  0  0  0  0  0  0  0  0  0
   13.2001    6.9521   12.9645 H   0  0  0  0  0  0  0  0  0  0  0  0
   13.7859    7.3546   14.5765 H   0  0  0  0  0  0  0  0  0  0  0  0
   13.7293    4.4991   13.4465 H   0  0  0  0  0  0  0  0  0  0  0  0
   12.3908    5.2183   14.3645 H   0  0  0  0  0  0  0  0  0  0  0  0
   13.2108    3.0924   15.0213 H   0  0  0  0  0  0  0  0  0  0  0  0
   15.1654    2.6284   17.0418 H   0  0  0  0  0  0  0  0  0  0  0  0
   13.5831    2.9060   17.8031 H   0  0  0  0  0  0  0  0  0  0  0  0
   11.5345   -0.9419   13.7700 H   0  0  0  0  0  0  0  0  0  0  0  0
   11.4650   -3.3257   14.3553 H   0  0  0  0  0  0  0  0  0  0  0  0
   12.5755   -4.1924   16.3879 H   0  0  0  0  0  0  0  0  0  0  0  0
   14.3398   -1.9229   18.7565 H   0  0  0  0  0  0  0  0  0  0  0  0
   14.0492   -2.8314   20.6854 H   0  0  0  0  0  0  0  0  0  0  0  0
   16.3785   -2.7624   19.5943 H   0  0  0  0  0  0  0  0  0  0  0  0
   16.5497   -4.4795   19.9590 H   0  0  0  0  0  0  0  0  0  0  0  0
   15.0215   -2.9967   22.9308 H   0  0  0  0  0  0  0  0  0  0  0  0
   16.3964   -3.9615   23.4949 H   0  0  0  0  0  0  0  0  0  0  0  0
   14.4343   -5.4546   23.0390 H   0  0  0  0  0  0  0  0  0  0  0  0
   15.7398   -5.8065   21.8951 H   0  0  0  0  0  0  0  0  0  0  0  0
  1  2  1  0
  2  3  1  0
  3  4  1  0
  4  5  2  0
  4  6  1  0
  6  7  1  0
  7  8  1  0
  8  9  1  0
  9 10  2  0
 10 11  1  0
 11 12  2  0
 12 13  1  0
 13 14  2  0
 14 15  1  0
 15 16  1  0
 16 17  2  0
 16 18  1  0
 18 19  1  0
 19 20  1  0
 20 21  1  0
 21 22  1  0
 22 23  1  0
 14 24  1  0
 24 25  1  0
 25  8  2  0
 24 10  1  0
 23 18  1  0
  1 26  1  0
  1 27  1  0
  1 28  1  0
  2 29  1  0
  2 30  1  0
  3 31  1  0
  3 32  1  0
  6 33  1  0
  7 34  1  0
  7 35  1  0
 11 36  1  0
 12 37  1  0
 13 38  1  0
 15 39  1  0
 18 40  1  0
 19 41  1  0
 19 42  1  0
 21 43  1  0
 21 44  1  0
 22 45  1  0
 22 46  1  0
M  END
>  <Energy>  (323) 
134.24015775245476

>  <compound_id>  (323) 
620

>  <target_id>  (323) 
1

>  <reference_id>  (323) 
5

>  <inspiration_ids>  (323) 
[60, 5]

>  <energy_score>  (323) 
-24.665329877297324

>  <distance_score>  (323) 
0.9507422445294444

>  <path>  (323) 
/opt/xchem-fragalysis-2/maxwin/BulkDock/SCRATCH/505733/C620-P5/C620-P5.minimised.mol

>  <scratch_subdir>  (323) 
/opt/xchem-fragalysis-2/maxwin/BulkDock/SCRATCH/505733/C620-P5

>  <fragmenstein_runtime>  (323) 
3.3462600708007812

>  <fragmenstein_outcome>  (323) 
acceptable

>  <fragmenstein_mode>  (323) 
expansion

>  <fragmenstein_error>  (323) 


$$$$
C622-P60
     RDKit          3D

 34 35  0  0  0  0  0  0  0  0999 V2000
   12.3600    1.2214   15.2328 C   0  0  0  0  0  0  0  0  0  0  0  0
   12.4649   -0.2450   15.5502 C   0  0  0  0  0  0  0  0  0  0  0  0
   11.7836   -1.1448   14.7143 C   0  0  0  0  0  0  0  0  0  0  0  0
   11.8208   -2.5154   14.9533 C   0  0  0  0  0  0  0  0  0  0  0  0
   12.5336   -3.0144   16.0396 C   0  0  0  0  0  0  0  0  0  0  0  0
   13.2139   -2.1455   16.8975 C   0  0  0  0  0  0  0  0  0  0  0  0
   13.8022   -2.6666   18.0554 N   0  0  0  0  0  0  0  0  0  0  0  0
   14.2093   -4.1236   18.4127 C   0  0  0  0  0  0  0  0  0  0  0  0
   14.1863   -5.0975   17.7648 O   0  0  0  0  0  0  0  0  0  0  0  0
   14.5960   -4.2041   19.9021 C   0  0  0  0  0  0  0  0  0  0  0  0
   15.7004   -3.2472   20.3424 C   0  0  0  0  0  0  0  0  0  0  0  0
   16.0177   -3.4798   21.7278 O   0  0  0  0  0  0  0  0  0  0  0  0
   14.8407   -3.2982   22.5364 C   0  0  0  0  0  0  0  0  0  0  0  0
   13.7296   -4.2451   22.0878 C   0  0  0  0  0  0  0  0  0  0  0  0
   13.4222   -4.0361   20.7044 O   0  0  0  0  0  0  0  0  0  0  0  0
   13.2128   -0.7558   16.6363 C   0  0  0  0  0  0  0  0  0  0  0  0
   14.0129    0.1184   17.5367 C   0  0  0  0  0  0  0  0  0  0  0  0
   14.2281   -0.0969   18.7177 O   0  0  0  0  0  0  0  0  0  0  0  0
   14.5695    1.1705   16.9159 O   0  0  0  0  0  0  0  0  0  0  0  0
   13.2664    1.5690   14.7280 H   0  0  0  0  0  0  0  0  0  0  0  0
   12.1863    1.8072   16.1411 H   0  0  0  0  0  0  0  0  0  0  0  0
   11.5110    1.4232   14.5697 H   0  0  0  0  0  0  0  0  0  0  0  0
   11.2047   -0.7838   13.8644 H   0  0  0  0  0  0  0  0  0  0  0  0
   11.2764   -3.1928   14.2982 H   0  0  0  0  0  0  0  0  0  0  0  0
   12.5086   -4.0849   16.2313 H   0  0  0  0  0  0  0  0  0  0  0  0
   14.0289   -2.0498   18.8324 H   0  0  0  0  0  0  0  0  0  0  0  0
   14.9524   -5.2315   20.0659 H   0  0  0  0  0  0  0  0  0  0  0  0
   15.4227   -2.1937   20.2450 H   0  0  0  0  0  0  0  0  0  0  0  0
   16.6099   -3.4082   19.7549 H   0  0  0  0  0  0  0  0  0  0  0  0
   14.5231   -2.2524   22.4542 H   0  0  0  0  0  0  0  0  0  0  0  0
   15.1130   -3.4943   23.5775 H   0  0  0  0  0  0  0  0  0  0  0  0
   12.8203   -4.0705   22.6699 H   0  0  0  0  0  0  0  0  0  0  0  0
   14.0276   -5.2911   22.2242 H   0  0  0  0  0  0  0  0  0  0  0  0
   15.0940    1.6201   17.6115 H   0  0  0  0  0  0  0  0  0  0  0  0
  1  2  1  0
  2  3  2  0
  3  4  1  0
  4  5  2  0
  5  6  1  0
  6  7  1  0
  7  8  1  0
  8  9  2  0
  8 10  1  0
 10 11  1  0
 11 12  1  0
 12 13  1  0
 13 14  1  0
 14 15  1  0
  6 16  2  0
 16 17  1  0
 17 18  2  0
 17 19  1  0
 16  2  1  0
 15 10  1  0
  1 20  1  0
  1 21  1  0
  1 22  1  0
  3 23  1  0
  4 24  1  0
  5 25  1  0
  7 26  1  0
 10 27  1  0
 11 28  1  0
 11 29  1  0
 13 30  1  0
 13 31  1  0
 14 32  1  0
 14 33  1  0
 19 34  1  0
M  END
>  <Energy>  (324) 
111.03968409183726

>  <compound_id>  (324) 
622

>  <target_id>  (324) 
1

>  <reference_id>  (324) 
60

>  <inspiration_ids>  (324) 
[60, 10]

>  <energy_score>  (324) 
-29.265484275852884

>  <distance_score>  (324) 
0.7347541093349145

>  <path>  (324) 
/opt/xchem-fragalysis-2/maxwin/BulkDock/SCRATCH/505733/C622-P60/C622-P60.minimised.mol

>  <scratch_subdir>  (324) 
/opt/xchem-fragalysis-2/maxwin/BulkDock/SCRATCH/505733/C622-P60

>  <fragmenstein_runtime>  (324) 
1.208082675933838

>  <fragmenstein_outcome>  (324) 
acceptable

>  <fragmenstein_mode>  (324) 
expansion

>  <fragmenstein_error>  (324) 


$$$$
C622-P10
     RDKit          3D

 34 35  0  0  0  0  0  0  0  0999 V2000
   12.8736    1.1540   15.0691 C   0  0  0  0  0  0  0  0  0  0  0  0
   12.8163   -0.3083   15.4142 C   0  0  0  0  0  0  0  0  0  0  0  0
   11.9656   -1.1301   14.6581 C   0  0  0  0  0  0  0  0  0  0  0  0
   11.8528   -2.4903   14.9318 C   0  0  0  0  0  0  0  0  0  0  0  0
   12.5853   -3.0554   15.9712 C   0  0  0  0  0  0  0  0  0  0  0  0
   13.4365   -2.2646   16.7454 C   0  0  0  0  0  0  0  0  0  0  0  0
   14.0151   -2.8277   17.8865 N   0  0  0  0  0  0  0  0  0  0  0  0
   14.2986   -4.3143   18.2465 C   0  0  0  0  0  0  0  0  0  0  0  0
   14.1621   -5.2876   17.6108 O   0  0  0  0  0  0  0  0  0  0  0  0
   14.7306   -4.4120   19.7262 C   0  0  0  0  0  0  0  0  0  0  0  0
   15.8566   -3.4854   20.1785 C   0  0  0  0  0  0  0  0  0  0  0  0
   16.1567   -3.7208   21.5681 O   0  0  0  0  0  0  0  0  0  0  0  0
   14.9791   -3.5102   22.3695 C   0  0  0  0  0  0  0  0  0  0  0  0
   13.8516   -4.4329   21.9137 C   0  0  0  0  0  0  0  0  0  0  0  0
   13.5576   -4.2102   20.5300 O   0  0  0  0  0  0  0  0  0  0  0  0
   13.5773   -0.8904   16.4533 C   0  0  0  0  0  0  0  0  0  0  0  0
   14.5267   -0.1044   17.2822 C   0  0  0  0  0  0  0  0  0  0  0  0
   14.7503   -0.2952   18.4657 O   0  0  0  0  0  0  0  0  0  0  0  0
   15.2057    0.8215   16.5866 O   0  0  0  0  0  0  0  0  0  0  0  0
   13.7767    1.3750   14.4923 H   0  0  0  0  0  0  0  0  0  0  0  0
   12.8454    1.7706   15.9734 H   0  0  0  0  0  0  0  0  0  0  0  0
   12.0095    1.4523   14.4646 H   0  0  0  0  0  0  0  0  0  0  0  0
   11.3711   -0.7154   13.8447 H   0  0  0  0  0  0  0  0  0  0  0  0
   11.1796   -3.1073   14.3401 H   0  0  0  0  0  0  0  0  0  0  0  0
   12.4386   -4.1083   16.2021 H   0  0  0  0  0  0  0  0  0  0  0  0
   14.3254   -2.2291   18.6466 H   0  0  0  0  0  0  0  0  0  0  0  0
   15.0570   -5.4500   19.8821 H   0  0  0  0  0  0  0  0  0  0  0  0
   15.6123   -2.4241   20.0830 H   0  0  0  0  0  0  0  0  0  0  0  0
   16.7660   -3.6716   19.5986 H   0  0  0  0  0  0  0  0  0  0  0  0
   14.6864   -2.4574   22.2834 H   0  0  0  0  0  0  0  0  0  0  0  0
   15.2406   -3.7113   23.4124 H   0  0  0  0  0  0  0  0  0  0  0  0
   12.9425   -4.2434   22.4917 H   0  0  0  0  0  0  0  0  0  0  0  0
   14.1283   -5.4852   22.0463 H   0  0  0  0  0  0  0  0  0  0  0  0
   15.8425    1.2018   17.2271 H   0  0  0  0  0  0  0  0  0  0  0  0
  1  2  1  0
  2  3  2  0
  3  4  1  0
  4  5  2  0
  5  6  1  0
  6  7  1  0
  7  8  1  0
  8  9  2  0
  8 10  1  0
 10 11  1  0
 11 12  1  0
 12 13  1  0
 13 14  1  0
 14 15  1  0
  6 16  2  0
 16 17  1  0
 17 18  2  0
 17 19  1  0
 16  2  1  0
 15 10  1  0
  1 20  1  0
  1 21  1  0
  1 22  1  0
  3 23  1  0
  4 24  1  0
  5 25  1  0
  7 26  1  0
 10 27  1  0
 11 28  1  0
 11 29  1  0
 13 30  1  0
 13 31  1  0
 14 32  1  0
 14 33  1  0
 19 34  1  0
M  END
>  <Energy>  (325) 
112.79475816101562

>  <compound_id>  (325) 
622

>  <target_id>  (325) 
1

>  <reference_id>  (325) 
10

>  <inspiration_ids>  (325) 
[60, 10]

>  <energy_score>  (325) 
-27.51041020667583

>  <distance_score>  (325) 
0.6279119131694672

>  <path>  (325) 
/opt/xchem-fragalysis-2/maxwin/BulkDock/SCRATCH/505733/C622-P10/C622-P10.minimised.mol

>  <scratch_subdir>  (325) 
/opt/xchem-fragalysis-2/maxwin/BulkDock/SCRATCH/505733/C622-P10

>  <fragmenstein_runtime>  (325) 
1.251939296722412

>  <fragmenstein_outcome>  (325) 
acceptable

>  <fragmenstein_mode>  (325) 
expansion

>  <fragmenstein_error>  (325) 


$$$$
C623-P60
     RDKit          3D

 44 46  0  0  0  0  0  0  0  0999 V2000
   15.8087   -1.6453   11.9804 O   0  0  0  0  0  0  0  0  0  0  0  0
   15.7617   -1.6092   13.2075 C   0  0  0  0  0  0  0  0  0  0  0  0
   15.4376   -0.3498   13.9667 C   0  0  0  0  0  0  0  0  0  0  0  0
   16.0857   -0.2956   15.3416 C   0  0  0  0  0  0  0  0  0  0  0  0
   15.8899   -1.5764   16.1827 C   0  0  0  0  0  0  0  0  0  0  0  0
   14.2852   -1.6395   16.8833 N   0  0  0  0  0  0  0  0  0  0  0  0
   14.4228   -2.4560   18.1828 N   0  0  0  0  0  0  0  0  0  0  0  0
   14.5138   -1.0676   18.6143 O   0  0  0  0  0  0  0  0  0  0  0  0
   15.9277   -3.2951   18.5729 C   0  0  0  0  0  0  0  0  0  0  0  0
   16.9040   -3.4640   17.9762 O   0  0  0  0  0  0  0  0  0  0  0  0
   15.7233   -3.9005   19.9584 C   0  0  0  0  0  0  0  0  0  0  0  0
   15.8689   -2.8271   21.0351 C   0  0  0  0  0  0  0  0  0  0  0  0
   15.6815   -3.4236   22.3283 O   0  0  0  0  0  0  0  0  0  0  0  0
   14.3650   -3.9900   22.4102 C   0  0  0  0  0  0  0  0  0  0  0  0
   14.1896   -5.0580   21.3300 C   0  0  0  0  0  0  0  0  0  0  0  0
   14.4295   -4.5261   20.0139 O   0  0  0  0  0  0  0  0  0  0  0  0
   13.6417   -1.5935   16.5128 C   0  0  0  0  0  0  0  0  0  0  0  0
   12.8239   -2.6283   15.6563 C   0  0  0  0  0  0  0  0  0  0  0  0
   11.7979   -2.2070   14.8184 C   0  0  0  0  0  0  0  0  0  0  0  0
   11.4167   -0.8563   14.8037 C   0  0  0  0  0  0  0  0  0  0  0  0
   12.0036    0.0991   15.6393 C   0  0  0  0  0  0  0  0  0  0  0  0
   12.9925   -0.1456   16.5240 N   0  0  0  0  0  0  0  0  0  0  0  0
   16.2740   -2.8063   15.3377 C   0  0  0  0  0  0  0  0  0  0  0  0
   15.9139   -2.7483   13.9381 N   0  0  0  0  0  0  0  0  0  0  0  0
   15.7927    0.5030   13.3766 H   0  0  0  0  0  0  0  0  0  0  0  0
   14.3512   -0.2690   14.0282 H   0  0  0  0  0  0  0  0  0  0  0  0
   17.1662   -0.1495   15.2057 H   0  0  0  0  0  0  0  0  0  0  0  0
   15.7303    0.5856   15.8880 H   0  0  0  0  0  0  0  0  0  0  0  0
   16.5488   -1.4464   17.0456 H   0  0  0  0  0  0  0  0  0  0  0  0
   14.5148   -0.5744   17.4064 H   0  0  0  0  0  0  0  0  0  0  0  0
   16.4737   -4.6887   20.1010 H   0  0  0  0  0  0  0  0  0  0  0  0
   16.8689   -2.3821   21.0086 H   0  0  0  0  0  0  0  0  0  0  0  0
   15.1393   -2.0184   20.9236 H   0  0  0  0  0  0  0  0  0  0  0  0
   14.2438   -4.4291   23.4048 H   0  0  0  0  0  0  0  0  0  0  0  0
   13.6294   -3.1889   22.2949 H   0  0  0  0  0  0  0  0  0  0  0  0
   14.8868   -5.8884   21.4910 H   0  0  0  0  0  0  0  0  0  0  0  0
   13.1722   -5.4577   21.3484 H   0  0  0  0  0  0  0  0  0  0  0  0
   13.0622   -3.6790   15.7818 H   0  0  0  0  0  0  0  0  0  0  0  0
   11.2662   -2.9212   14.1948 H   0  0  0  0  0  0  0  0  0  0  0  0
   10.6144   -0.5456   14.1369 H   0  0  0  0  0  0  0  0  0  0  0  0
   11.6570    1.1283   15.6200 H   0  0  0  0  0  0  0  0  0  0  0  0
   17.3643   -2.9206   15.3567 H   0  0  0  0  0  0  0  0  0  0  0  0
   15.8416   -3.7286   15.7361 H   0  0  0  0  0  0  0  0  0  0  0  0
   16.1291   -3.5593   13.3578 H   0  0  0  0  0  0  0  0  0  0  0  0
  1  2  2  0
  2  3  1  0
  3  4  1  0
  4  5  1  0
  5  6  1  0
  6  7  1  0
  7  8  1  0
  7  9  1  0
  9 10  2  0
  9 11  1  0
 11 12  1  0
 12 13  1  0
 13 14  1  0
 14 15  1  0
 15 16  1  0
  7 17  1  0
 17 18  2  0
 18 19  1  0
 19 20  2  0
 20 21  1  0
 21 22  2  0
  5 23  1  0
 23 24  1  0
 24  2  1  0
 16 11  1  0
 22 17  1  0
  3 25  1  0
  3 26  1  0
  4 27  1  0
  4 28  1  0
  5 29  1  0
  6 30  1  0
 11 31  1  0
 12 32  1  0
 12 33  1  0
 14 34  1  0
 14 35  1  0
 15 36  1  0
 15 37  1  0
 18 38  1  0
 19 39  1  0
 20 40  1  0
 21 41  1  0
 23 42  1  0
 23 43  1  0
 24 44  1  0
M  CHG  2   7   1   8  -1
M  END
>  <Energy>  (326) 
823.52388932776569

>  <compound_id>  (326) 
623

>  <target_id>  (326) 
1

>  <reference_id>  (326) 
60

>  <inspiration_ids>  (326) 
[60, 12]

>  <energy_score>  (326) 
597.2713870559487

>  <distance_score>  (326) 
1.7294538669294326

>  <path>  (326) 
/opt/xchem-fragalysis-2/maxwin/BulkDock/SCRATCH/505733/C623-P60/C623-P60.minimised.mol

>  <scratch_subdir>  (326) 
/opt/xchem-fragalysis-2/maxwin/BulkDock/SCRATCH/505733/C623-P60

>  <fragmenstein_runtime>  (326) 
3.9324705600738525

>  <fragmenstein_outcome>  (326) 
too moved

>  <fragmenstein_mode>  (326) 
expansion

>  <fragmenstein_error>  (326) 


$$$$
C623-P12
     RDKit          3D

 44 46  0  0  0  0  0  0  0  0999 V2000
   15.8994   -1.5411   12.0214 O   0  0  0  0  0  0  0  0  0  0  0  0
   15.8542   -1.5426   13.2492 C   0  0  0  0  0  0  0  0  0  0  0  0
   15.6150   -0.2907   14.0503 C   0  0  0  0  0  0  0  0  0  0  0  0
   16.2493   -0.3270   15.4324 C   0  0  0  0  0  0  0  0  0  0  0  0
   15.9841   -1.6292   16.2212 C   0  0  0  0  0  0  0  0  0  0  0  0
   14.3710   -1.6505   16.9077 N   0  0  0  0  0  0  0  0  0  0  0  0
   14.4682   -2.4940   18.1863 N   0  0  0  0  0  0  0  0  0  0  0  0
   14.6234   -1.1202   18.6434 O   0  0  0  0  0  0  0  0  0  0  0  0
   15.9284   -3.4087   18.5627 C   0  0  0  0  0  0  0  0  0  0  0  0
   16.8973   -3.6124   17.9641 O   0  0  0  0  0  0  0  0  0  0  0  0
   15.6871   -4.0377   19.9322 C   0  0  0  0  0  0  0  0  0  0  0  0
   15.8504   -2.9923   21.0342 C   0  0  0  0  0  0  0  0  0  0  0  0
   15.6292   -3.6097   22.3119 O   0  0  0  0  0  0  0  0  0  0  0  0
   14.2971   -4.1409   22.3662 C   0  0  0  0  0  0  0  0  0  0  0  0
   14.1050   -5.1793   21.2605 C   0  0  0  0  0  0  0  0  0  0  0  0
   14.3728   -4.6258   19.9580 O   0  0  0  0  0  0  0  0  0  0  0  0
   13.7343   -1.5662   16.5290 C   0  0  0  0  0  0  0  0  0  0  0  0
   12.8644   -2.5498   15.6663 C   0  0  0  0  0  0  0  0  0  0  0  0
   11.8711   -2.0704   14.8215 C   0  0  0  0  0  0  0  0  0  0  0  0
   11.5692   -0.7002   14.8039 C   0  0  0  0  0  0  0  0  0  0  0  0
   12.2025    0.2175   15.6485 C   0  0  0  0  0  0  0  0  0  0  0  0
   13.1664   -0.0870   16.5441 N   0  0  0  0  0  0  0  0  0  0  0  0
   16.3128   -2.8392   15.3295 C   0  0  0  0  0  0  0  0  0  0  0  0
   15.9257   -2.7121   13.9427 N   0  0  0  0  0  0  0  0  0  0  0  0
   16.0350    0.5546   13.4928 H   0  0  0  0  0  0  0  0  0  0  0  0
   14.5367   -0.1352   14.1055 H   0  0  0  0  0  0  0  0  0  0  0  0
   17.3370   -0.2303   15.3107 H   0  0  0  0  0  0  0  0  0  0  0  0
   15.9344    0.5488   16.0113 H   0  0  0  0  0  0  0  0  0  0  0  0
   16.6429   -1.5631   17.0910 H   0  0  0  0  0  0  0  0  0  0  0  0
   14.6368   -0.6018   17.4508 H   0  0  0  0  0  0  0  0  0  0  0  0
   16.4115   -4.8512   20.0671 H   0  0  0  0  0  0  0  0  0  0  0  0
   16.8631   -2.5764   21.0293 H   0  0  0  0  0  0  0  0  0  0  0  0
   15.1457   -2.1608   20.9321 H   0  0  0  0  0  0  0  0  0  0  0  0
   14.1521   -4.5986   23.3491 H   0  0  0  0  0  0  0  0  0  0  0  0
   13.5847   -3.3176   22.2610 H   0  0  0  0  0  0  0  0  0  0  0  0
   14.7772   -6.0322   21.4096 H   0  0  0  0  0  0  0  0  0  0  0  0
   13.0771   -5.5507   21.2591 H   0  0  0  0  0  0  0  0  0  0  0  0
   13.0404   -3.6130   15.7925 H   0  0  0  0  0  0  0  0  0  0  0  0
   11.3072   -2.7546   14.1928 H   0  0  0  0  0  0  0  0  0  0  0  0
   10.7935   -0.3444   14.1279 H   0  0  0  0  0  0  0  0  0  0  0  0
   11.9165    1.2656   15.6306 H   0  0  0  0  0  0  0  0  0  0  0  0
   17.3986   -2.9909   15.3234 H   0  0  0  0  0  0  0  0  0  0  0  0
   15.8553   -3.7600   15.7023 H   0  0  0  0  0  0  0  0  0  0  0  0
   16.0761   -3.5175   13.3337 H   0  0  0  0  0  0  0  0  0  0  0  0
  1  2  2  0
  2  3  1  0
  3  4  1  0
  4  5  1  0
  5  6  1  0
  6  7  1  0
  7  8  1  0
  7  9  1  0
  9 10  2  0
  9 11  1  0
 11 12  1  0
 12 13  1  0
 13 14  1  0
 14 15  1  0
 15 16  1  0
  7 17  1  0
 17 18  2  0
 18 19  1  0
 19 20  2  0
 20 21  1  0
 21 22  2  0
  5 23  1  0
 23 24  1  0
 24  2  1  0
 16 11  1  0
 22 17  1  0
  3 25  1  0
  3 26  1  0
  4 27  1  0
  4 28  1  0
  5 29  1  0
  6 30  1  0
 11 31  1  0
 12 32  1  0
 12 33  1  0
 14 34  1  0
 14 35  1  0
 15 36  1  0
 15 37  1  0
 18 38  1  0
 19 39  1  0
 20 40  1  0
 21 41  1  0
 23 42  1  0
 23 43  1  0
 24 44  1  0
M  CHG  2   7   1   8  -1
M  END
>  <Energy>  (327) 
824.83414065921727

>  <compound_id>  (327) 
623

>  <target_id>  (327) 
1

>  <reference_id>  (327) 
12

>  <inspiration_ids>  (327) 
[60, 12]

>  <energy_score>  (327) 
598.5816383874014

>  <distance_score>  (327) 
1.727570884029808

>  <path>  (327) 
/opt/xchem-fragalysis-2/maxwin/BulkDock/SCRATCH/505733/C623-P12/C623-P12.minimised.mol

>  <scratch_subdir>  (327) 
/opt/xchem-fragalysis-2/maxwin/BulkDock/SCRATCH/505733/C623-P12

>  <fragmenstein_runtime>  (327) 
3.6059138774871826

>  <fragmenstein_outcome>  (327) 
too moved

>  <fragmenstein_mode>  (327) 
expansion

>  <fragmenstein_error>  (327) 


$$$$
C624-P60
     RDKit          3D

 49 50  0  0  0  0  0  0  0  0999 V2000
   11.0727    0.0753   14.0221 C   0  0  0  0  0  0  0  0  0  0  0  0
   11.8969   -0.7488   14.9611 C   0  0  0  0  0  0  0  0  0  0  0  0
   11.6281   -2.1049   15.1762 C   0  0  0  0  0  0  0  0  0  0  0  0
   12.3335   -2.8129   16.1538 C   0  0  0  0  0  0  0  0  0  0  0  0
   13.3041   -2.1578   16.9168 C   0  0  0  0  0  0  0  0  0  0  0  0
   13.7200   -2.7006   18.1241 N   0  0  0  0  0  0  0  0  0  0  0  0
   13.8094   -4.1768   18.5857 C   0  0  0  0  0  0  0  0  0  0  0  0
   13.6208   -5.1648   17.9967 O   0  0  0  0  0  0  0  0  0  0  0  0
   14.1140   -4.1201   20.1023 C   0  0  0  0  0  0  0  0  0  0  0  0
   15.5922   -3.8172   20.3426 C   0  0  0  0  0  0  0  0  0  0  0  0
   15.8539   -3.5176   21.7233 O   0  0  0  0  0  0  0  0  0  0  0  0
   14.9204   -4.1492   22.6151 C   0  0  0  0  0  0  0  0  0  0  0  0
   14.3908   -5.4687   22.0499 C   0  0  0  0  0  0  0  0  0  0  0  0
   13.7082   -5.3062   20.7986 O   0  0  0  0  0  0  0  0  0  0  0  0
   13.7102   -0.8639   16.5857 C   0  0  0  0  0  0  0  0  0  0  0  0
   14.9507   -0.2430   17.1783 C   0  0  0  0  0  0  0  0  0  0  0  0
   16.0191   -0.0127   16.2053 N   0  0  0  0  0  0  0  0  0  0  0  0
   16.8782   -1.1461   15.7841 C   0  0  0  0  0  0  0  0  0  0  0  0
   18.0499   -0.4825   15.0237 C   0  0  0  0  0  0  0  0  0  0  0  0
   17.4757   -1.8982   16.9871 C   0  0  0  0  0  0  0  0  0  0  0  0
   16.1737   -2.1566   14.8283 C   0  0  0  0  0  0  0  0  0  0  0  0
   17.0983   -3.0876   14.2656 O   0  0  0  0  0  0  0  0  0  0  0  0
   12.9767   -0.1584   15.6220 C   0  0  0  0  0  0  0  0  0  0  0  0
   11.2049    1.1459   14.2141 H   0  0  0  0  0  0  0  0  0  0  0  0
   10.0089   -0.1357   14.1638 H   0  0  0  0  0  0  0  0  0  0  0  0
   11.3625   -0.1180   12.9899 H   0  0  0  0  0  0  0  0  0  0  0  0
   10.8344   -2.6044   14.6235 H   0  0  0  0  0  0  0  0  0  0  0  0
   12.0490   -3.8404   16.3741 H   0  0  0  0  0  0  0  0  0  0  0  0
   14.0296   -2.0928   18.8722 H   0  0  0  0  0  0  0  0  0  0  0  0
   13.4957   -3.3167   20.5233 H   0  0  0  0  0  0  0  0  0  0  0  0
   16.2130   -4.6785   20.0687 H   0  0  0  0  0  0  0  0  0  0  0  0
   15.9433   -2.9634   19.7568 H   0  0  0  0  0  0  0  0  0  0  0  0
   14.0990   -3.4451   22.7891 H   0  0  0  0  0  0  0  0  0  0  0  0
   15.4295   -4.3138   23.5695 H   0  0  0  0  0  0  0  0  0  0  0  0
   13.6954   -5.9390   22.7516 H   0  0  0  0  0  0  0  0  0  0  0  0
   15.2187   -6.1656   21.8776 H   0  0  0  0  0  0  0  0  0  0  0  0
   14.6548    0.7374   17.5749 H   0  0  0  0  0  0  0  0  0  0  0  0
   15.3348   -0.7729   18.0525 H   0  0  0  0  0  0  0  0  0  0  0  0
   15.6507    0.4595   15.3819 H   0  0  0  0  0  0  0  0  0  0  0  0
   17.6992    0.0317   14.1208 H   0  0  0  0  0  0  0  0  0  0  0  0
   18.5646    0.2565   15.6504 H   0  0  0  0  0  0  0  0  0  0  0  0
   18.8014   -1.2175   14.7138 H   0  0  0  0  0  0  0  0  0  0  0  0
   16.7184   -2.4921   17.5076 H   0  0  0  0  0  0  0  0  0  0  0  0
   17.9221   -1.2055   17.7100 H   0  0  0  0  0  0  0  0  0  0  0  0
   18.2649   -2.5906   16.6720 H   0  0  0  0  0  0  0  0  0  0  0  0
   15.6857   -1.6304   14.0005 H   0  0  0  0  0  0  0  0  0  0  0  0
   15.4233   -2.7421   15.3614 H   0  0  0  0  0  0  0  0  0  0  0  0
   16.5814   -3.7287   13.7368 H   0  0  0  0  0  0  0  0  0  0  0  0
   13.2496    0.8715   15.3950 H   0  0  0  0  0  0  0  0  0  0  0  0
  1  2  1  0
  2  3  2  0
  3  4  1  0
  4  5  2  0
  5  6  1  0
  6  7  1  0
  7  8  2  0
  7  9  1  0
  9 10  1  0
 10 11  1  0
 11 12  1  0
 12 13  1  0
 13 14  1  0
  5 15  1  0
 15 16  1  0
 16 17  1  0
 17 18  1  0
 18 19  1  0
 18 20  1  0
 18 21  1  0
 21 22  1  0
 15 23  2  0
 23  2  1  0
 14  9  1  0
  1 24  1  0
  1 25  1  0
  1 26  1  0
  3 27  1  0
  4 28  1  0
  6 29  1  0
  9 30  1  0
 10 31  1  0
 10 32  1  0
 12 33  1  0
 12 34  1  0
 13 35  1  0
 13 36  1  0
 16 37  1  0
 16 38  1  0
 17 39  1  0
 19 40  1  0
 19 41  1  0
 19 42  1  0
 20 43  1  0
 20 44  1  0
 20 45  1  0
 21 46  1  0
 21 47  1  0
 22 48  1  0
 23 49  1  0
M  END
>  <Energy>  (328) 
150.49143922838556

>  <compound_id>  (328) 
624

>  <target_id>  (328) 
1

>  <reference_id>  (328) 
60

>  <inspiration_ids>  (328) 
[60, 15]

>  <energy_score>  (328) 
-47.44090450031629

>  <distance_score>  (328) 
0.8804358184983092

>  <path>  (328) 
/opt/xchem-fragalysis-2/maxwin/BulkDock/SCRATCH/505733/C624-P60/C624-P60.minimised.mol

>  <scratch_subdir>  (328) 
/opt/xchem-fragalysis-2/maxwin/BulkDock/SCRATCH/505733/C624-P60

>  <fragmenstein_runtime>  (328) 
1.6608171463012695

>  <fragmenstein_outcome>  (328) 
acceptable

>  <fragmenstein_mode>  (328) 
expansion

>  <fragmenstein_error>  (328) 


$$$$
C624-P15
     RDKit          3D

 49 50  0  0  0  0  0  0  0  0999 V2000
   11.2499    0.0455   14.0355 C   0  0  0  0  0  0  0  0  0  0  0  0
   12.0310   -0.8024   14.9901 C   0  0  0  0  0  0  0  0  0  0  0  0
   11.7377   -2.1579   15.1835 C   0  0  0  0  0  0  0  0  0  0  0  0
   12.4201   -2.8949   16.1579 C   0  0  0  0  0  0  0  0  0  0  0  0
   13.3911   -2.2677   16.9421 C   0  0  0  0  0  0  0  0  0  0  0  0
   13.7991   -2.8303   18.1442 N   0  0  0  0  0  0  0  0  0  0  0  0
   13.8405   -4.3135   18.6000 C   0  0  0  0  0  0  0  0  0  0  0  0
   13.6114   -5.2926   18.0084 O   0  0  0  0  0  0  0  0  0  0  0  0
   14.1614   -4.2676   20.1129 C   0  0  0  0  0  0  0  0  0  0  0  0
   15.6316   -3.9288   20.3533 C   0  0  0  0  0  0  0  0  0  0  0  0
   15.8780   -3.6126   21.7337 O   0  0  0  0  0  0  0  0  0  0  0  0
   14.9608   -4.2675   22.6257 C   0  0  0  0  0  0  0  0  0  0  0  0
   14.4640   -5.6018   22.0630 C   0  0  0  0  0  0  0  0  0  0  0  0
   13.7829   -5.4619   20.8078 O   0  0  0  0  0  0  0  0  0  0  0  0
   13.8063   -0.9660   16.6480 C   0  0  0  0  0  0  0  0  0  0  0  0
   15.0426   -0.3687   17.2735 C   0  0  0  0  0  0  0  0  0  0  0  0
   16.1230   -0.1083   16.3209 N   0  0  0  0  0  0  0  0  0  0  0  0
   16.9513   -1.2380   15.8317 C   0  0  0  0  0  0  0  0  0  0  0  0
   18.1523   -0.5621   15.1303 C   0  0  0  0  0  0  0  0  0  0  0  0
   17.5102   -2.0906   16.9851 C   0  0  0  0  0  0  0  0  0  0  0  0
   16.2255   -2.1560   14.8009 C   0  0  0  0  0  0  0  0  0  0  0  0
   17.1244   -3.0709   14.1739 O   0  0  0  0  0  0  0  0  0  0  0  0
   13.0970   -0.2330   15.6881 C   0  0  0  0  0  0  0  0  0  0  0  0
   11.4795    1.1092   14.1641 H   0  0  0  0  0  0  0  0  0  0  0  0
   10.1775   -0.0663   14.2197 H   0  0  0  0  0  0  0  0  0  0  0  0
   11.4924   -0.2226   13.0073 H   0  0  0  0  0  0  0  0  0  0  0  0
   10.9474   -2.6368   14.6085 H   0  0  0  0  0  0  0  0  0  0  0  0
   12.1198   -3.9223   16.3547 H   0  0  0  0  0  0  0  0  0  0  0  0
   13.9769   -2.2270   18.9380 H   0  0  0  0  0  0  0  0  0  0  0  0
   13.5258   -3.4810   20.5417 H   0  0  0  0  0  0  0  0  0  0  0  0
   16.2729   -4.7780   20.0891 H   0  0  0  0  0  0  0  0  0  0  0  0
   15.9667   -3.0715   19.7635 H   0  0  0  0  0  0  0  0  0  0  0  0
   14.1215   -3.5844   22.7986 H   0  0  0  0  0  0  0  0  0  0  0  0
   15.4733   -4.4176   23.5806 H   0  0  0  0  0  0  0  0  0  0  0  0
   13.7773   -6.0856   22.7641 H   0  0  0  0  0  0  0  0  0  0  0  0
   15.3090   -6.2794   21.8973 H   0  0  0  0  0  0  0  0  0  0  0  0
   14.7460    0.5973   17.7036 H   0  0  0  0  0  0  0  0  0  0  0  0
   15.4169   -0.9338   18.1304 H   0  0  0  0  0  0  0  0  0  0  0  0
   15.7725    0.4246   15.5274 H   0  0  0  0  0  0  0  0  0  0  0  0
   17.8288    0.0239   14.2616 H   0  0  0  0  0  0  0  0  0  0  0  0
   18.6826    0.1151   15.8114 H   0  0  0  0  0  0  0  0  0  0  0  0
   18.8837   -1.2982   14.7778 H   0  0  0  0  0  0  0  0  0  0  0  0
   16.7280   -2.6913   17.4589 H   0  0  0  0  0  0  0  0  0  0  0  0
   17.9737   -1.4648   17.7566 H   0  0  0  0  0  0  0  0  0  0  0  0
   18.2776   -2.7876   16.6291 H   0  0  0  0  0  0  0  0  0  0  0  0
   15.7585   -1.5569   14.0115 H   0  0  0  0  0  0  0  0  0  0  0  0
   15.4548   -2.7569   15.2852 H   0  0  0  0  0  0  0  0  0  0  0  0
   16.5844   -3.6689   13.6180 H   0  0  0  0  0  0  0  0  0  0  0  0
   13.3843    0.7984   15.4878 H   0  0  0  0  0  0  0  0  0  0  0  0
  1  2  1  0
  2  3  2  0
  3  4  1  0
  4  5  2  0
  5  6  1  0
  6  7  1  0
  7  8  2  0
  7  9  1  0
  9 10  1  0
 10 11  1  0
 11 12  1  0
 12 13  1  0
 13 14  1  0
  5 15  1  0
 15 16  1  0
 16 17  1  0
 17 18  1  0
 18 19  1  0
 18 20  1  0
 18 21  1  0
 21 22  1  0
 15 23  2  0
 23  2  1  0
 14  9  1  0
  1 24  1  0
  1 25  1  0
  1 26  1  0
  3 27  1  0
  4 28  1  0
  6 29  1  0
  9 30  1  0
 10 31  1  0
 10 32  1  0
 12 33  1  0
 12 34  1  0
 13 35  1  0
 13 36  1  0
 16 37  1  0
 16 38  1  0
 17 39  1  0
 19 40  1  0
 19 41  1  0
 19 42  1  0
 20 43  1  0
 20 44  1  0
 20 45  1  0
 21 46  1  0
 21 47  1  0
 22 48  1  0
 23 49  1  0
M  END
>  <Energy>  (329) 
151.3502644522714

>  <compound_id>  (329) 
624

>  <target_id>  (329) 
1

>  <reference_id>  (329) 
15

>  <inspiration_ids>  (329) 
[60, 15]

>  <energy_score>  (329) 
-46.5820792764313

>  <distance_score>  (329) 
0.8763451373053233

>  <path>  (329) 
/opt/xchem-fragalysis-2/maxwin/BulkDock/SCRATCH/505733/C624-P15/C624-P15.minimised.mol

>  <scratch_subdir>  (329) 
/opt/xchem-fragalysis-2/maxwin/BulkDock/SCRATCH/505733/C624-P15

>  <fragmenstein_runtime>  (329) 
1.5873494148254395

>  <fragmenstein_outcome>  (329) 
acceptable

>  <fragmenstein_mode>  (329) 
expansion

>  <fragmenstein_error>  (329) 


$$$$
C625-P60
     RDKit          3D

 65 67  0  0  0  0  0  0  0  0999 V2000
   16.1338    5.7796   13.4831 C   0  0  0  0  0  0  0  0  0  0  0  0
   14.7258    5.1771   13.5934 C   0  0  0  0  0  0  0  0  0  0  0  0
   13.9512    5.3348   12.2782 C   0  0  0  0  0  0  0  0  0  0  0  0
   13.9331    4.0697   11.4258 C   0  0  0  0  0  0  0  0  0  0  0  0
   15.1385    3.1727   11.6729 C   0  0  0  0  0  0  0  0  0  0  0  0
   15.2780    2.7472   13.0606 N   0  0  0  0  0  0  0  0  0  0  0  0
   16.5325    1.6730   13.4924 S   0  0  0  0  0  0  0  0  0  0  0  0
   16.4823    0.3014   12.3646 C   0  0  0  0  0  0  0  0  0  0  0  0
   17.7419    2.4230   13.2445 O   0  0  0  0  0  0  0  0  0  0  0  0
   16.0567    1.1876   14.8751 N   0  0  0  0  0  0  0  0  0  0  0  0
   17.0035    0.3904   15.6776 C   0  0  0  0  0  0  0  0  0  0  0  0
   16.4561    0.1781   17.0846 C   0  0  0  0  0  0  0  0  0  0  0  0
   14.7335   -0.3262   17.0941 C   0  0  0  0  0  0  0  0  0  0  0  0
   14.3388   -1.7848   18.3308 N   0  0  0  0  0  0  0  0  0  0  0  0
   14.5060   -3.4467   18.3551 C   0  0  0  0  0  0  0  0  0  0  0  0
   14.8268   -4.2115   17.5654 O   0  0  0  0  0  0  0  0  0  0  0  0
   14.1947   -3.7268   19.8471 C   0  0  0  0  0  0  0  0  0  0  0  0
   15.4113   -3.2758   20.6761 C   0  0  0  0  0  0  0  0  0  0  0  0
   15.2116   -3.3932   22.0953 O   0  0  0  0  0  0  0  0  0  0  0  0
   14.2097   -4.3601   22.4288 C   0  0  0  0  0  0  0  0  0  0  0  0
   14.2093   -5.5186   21.4355 C   0  0  0  0  0  0  0  0  0  0  0  0
   13.8784   -5.1034   20.1036 O   0  0  0  0  0  0  0  0  0  0  0  0
   14.4787   -1.0343   17.0660 C   0  0  0  0  0  0  0  0  0  0  0  0
   12.9129   -1.1567   16.5149 C   0  0  0  0  0  0  0  0  0  0  0  0
   12.5483   -1.5308   15.2259 C   0  0  0  0  0  0  0  0  0  0  0  0
   13.5423   -1.9999   14.3810 C   0  0  0  0  0  0  0  0  0  0  0  0
   14.8454   -2.2095   14.8441 C   0  0  0  0  0  0  0  0  0  0  0  0
   15.3251   -1.8978   16.0843 N   0  0  0  0  0  0  0  0  0  0  0  0
   14.7729    3.7066   14.0626 C   0  0  0  0  0  0  0  0  0  0  0  0
   13.3897    3.2447   14.5876 C   0  0  0  0  0  0  0  0  0  0  0  0
   13.3319    1.8477   14.8453 O   0  0  0  0  0  0  0  0  0  0  0  0
   16.7398    5.2978   12.7120 H   0  0  0  0  0  0  0  0  0  0  0  0
   16.0755    6.8465   13.2414 H   0  0  0  0  0  0  0  0  0  0  0  0
   16.6676    5.6884   14.4352 H   0  0  0  0  0  0  0  0  0  0  0  0
   14.2062    5.7703   14.3586 H   0  0  0  0  0  0  0  0  0  0  0  0
   14.3625    6.1660   11.6922 H   0  0  0  0  0  0  0  0  0  0  0  0
   12.9129    5.6159   12.4961 H   0  0  0  0  0  0  0  0  0  0  0  0
   13.8860    4.3464   10.3657 H   0  0  0  0  0  0  0  0  0  0  0  0
   13.0143    3.5040   11.6250 H   0  0  0  0  0  0  0  0  0  0  0  0
   16.0481    3.6826   11.3365 H   0  0  0  0  0  0  0  0  0  0  0  0
   15.0268    2.2893   11.0342 H   0  0  0  0  0  0  0  0  0  0  0  0
   17.2308   -0.4304   12.6754 H   0  0  0  0  0  0  0  0  0  0  0  0
   16.7230    0.6577   11.3613 H   0  0  0  0  0  0  0  0  0  0  0  0
   15.4854   -0.1427   12.3842 H   0  0  0  0  0  0  0  0  0  0  0  0
   17.9608    0.9196   15.7606 H   0  0  0  0  0  0  0  0  0  0  0  0
   17.2159   -0.5618   15.1836 H   0  0  0  0  0  0  0  0  0  0  0  0
   16.5063    1.1244   17.6421 H   0  0  0  0  0  0  0  0  0  0  0  0
   17.0433   -0.5642   17.6413 H   0  0  0  0  0  0  0  0  0  0  0  0
   14.6974    0.4016   18.1587 H   0  0  0  0  0  0  0  0  0  0  0  0
   14.0268    0.6879   16.7885 H   0  0  0  0  0  0  0  0  0  0  0  0
   13.3063   -3.1533   20.1312 H   0  0  0  0  0  0  0  0  0  0  0  0
   15.6879   -2.2356   20.4794 H   0  0  0  0  0  0  0  0  0  0  0  0
   16.2851   -3.8902   20.4259 H   0  0  0  0  0  0  0  0  0  0  0  0
   14.4150   -4.7185   23.4418 H   0  0  0  0  0  0  0  0  0  0  0  0
   13.2385   -3.8534   22.4387 H   0  0  0  0  0  0  0  0  0  0  0  0
   13.4865   -6.2837   21.7335 H   0  0  0  0  0  0  0  0  0  0  0  0
   15.1985   -5.9880   21.3940 H   0  0  0  0  0  0  0  0  0  0  0  0
   12.1404   -0.8502   17.2099 H   0  0  0  0  0  0  0  0  0  0  0  0
   11.5164   -1.4775   14.8909 H   0  0  0  0  0  0  0  0  0  0  0  0
   13.2832   -2.2904   13.3656 H   0  0  0  0  0  0  0  0  0  0  0  0
   15.5789   -2.6883   14.1976 H   0  0  0  0  0  0  0  0  0  0  0  0
   15.4428    3.6857   14.9329 H   0  0  0  0  0  0  0  0  0  0  0  0
   13.1585    3.7645   15.5237 H   0  0  0  0  0  0  0  0  0  0  0  0
   12.5853    3.4722   13.8831 H   0  0  0  0  0  0  0  0  0  0  0  0
   14.2707    1.5358   14.8590 H   0  0  0  0  0  0  0  0  0  0  0  0
  1  2  1  0
  2  3  1  0
  3  4  1  0
  4  5  1  0
  5  6  1  0
  6  7  1  0
  7  8  1  0
  7  9  2  0
  7 10  2  0
 10 11  1  0
 11 12  1  0
 12 13  1  0
 13 14  1  0
 14 15  1  0
 15 16  2  0
 15 17  1  0
 17 18  1  0
 18 19  1  0
 19 20  1  0
 20 21  1  0
 21 22  1  0
 14 23  1  0
 23 24  2  0
 24 25  1  0
 25 26  2  0
 26 27  1  0
 27 28  2  0
  6 29  1  0
 29 30  1  0
 30 31  1  0
 29  2  1  0
 22 17  1  0
 28 23  1  0
  1 32  1  0
  1 33  1  0
  1 34  1  0
  2 35  1  0
  3 36  1  0
  3 37  1  0
  4 38  1  0
  4 39  1  0
  5 40  1  0
  5 41  1  0
  8 42  1  0
  8 43  1  0
  8 44  1  0
 11 45  1  0
 11 46  1  0
 12 47  1  0
 12 48  1  0
 13 49  1  0
 13 50  1  0
 17 51  1  0
 18 52  1  0
 18 53  1  0
 20 54  1  0
 20 55  1  0
 21 56  1  0
 21 57  1  0
 24 58  1  0
 25 59  1  0
 26 60  1  0
 27 61  1  0
 29 62  1  0
 30 63  1  0
 30 64  1  0
 31 65  1  0
M  END
>  <Energy>  (330) 
681.8090033842534

>  <compound_id>  (330) 
625

>  <target_id>  (330) 
1

>  <reference_id>  (330) 
60

>  <inspiration_ids>  (330) 
[60, 26]

>  <energy_score>  (330) 
553.6232590612628

>  <distance_score>  (330) 
2.243254117113054

>  <path>  (330) 
/opt/xchem-fragalysis-2/maxwin/BulkDock/SCRATCH/505733/C625-P60/C625-P60.minimised.mol

>  <scratch_subdir>  (330) 
/opt/xchem-fragalysis-2/maxwin/BulkDock/SCRATCH/505733/C625-P60

>  <fragmenstein_runtime>  (330) 
7.730715036392212

>  <fragmenstein_outcome>  (330) 
too moved

>  <fragmenstein_mode>  (330) 
expansion

>  <fragmenstein_error>  (330) 


$$$$
C625-P26
     RDKit          3D

 65 67  0  0  0  0  0  0  0  0999 V2000
   16.5199    3.1486   11.5925 C   0  0  0  0  0  0  0  0  0  0  0  0
   15.6146    3.1433   12.8325 C   0  0  0  0  0  0  0  0  0  0  0  0
   14.1318    3.1564   12.4363 C   0  0  0  0  0  0  0  0  0  0  0  0
   13.6920    1.8105   11.8745 C   0  0  0  0  0  0  0  0  0  0  0  0
   14.0980    0.6472   12.7777 C   0  0  0  0  0  0  0  0  0  0  0  0
   15.5165    0.6685   13.1172 N   0  0  0  0  0  0  0  0  0  0  0  0
   16.3483   -0.7846   13.4656 S   0  0  0  0  0  0  0  0  0  0  0  0
   16.0498   -1.9039   12.1234 C   0  0  0  0  0  0  0  0  0  0  0  0
   17.7460   -0.4173   13.4022 O   0  0  0  0  0  0  0  0  0  0  0  0
   15.6359   -1.3248   14.7233 N   0  0  0  0  0  0  0  0  0  0  0  0
   16.4991   -1.9526   15.7431 C   0  0  0  0  0  0  0  0  0  0  0  0
   15.6881   -2.7233   16.7997 C   0  0  0  0  0  0  0  0  0  0  0  0
   14.2102   -1.8203   17.5284 C   0  0  0  0  0  0  0  0  0  0  0  0
   14.3434   -2.4553   18.7347 N   0  0  0  0  0  0  0  0  0  0  0  0
   14.0718   -3.9275   19.2794 C   0  0  0  0  0  0  0  0  0  0  0  0
   13.5769   -4.8554   18.8060 O   0  0  0  0  0  0  0  0  0  0  0  0
   14.5495   -3.8583   20.7441 C   0  0  0  0  0  0  0  0  0  0  0  0
   16.0726   -3.7153   20.8088 C   0  0  0  0  0  0  0  0  0  0  0  0
   16.5644   -3.5842   22.1541 O   0  0  0  0  0  0  0  0  0  0  0  0
   15.6764   -4.1532   23.1260 C   0  0  0  0  0  0  0  0  0  0  0  0
   14.9371   -5.3658   22.5678 C   0  0  0  0  0  0  0  0  0  0  0  0
   14.1002   -5.0302   21.4562 O   0  0  0  0  0  0  0  0  0  0  0  0
   13.6449   -1.8259   17.0390 C   0  0  0  0  0  0  0  0  0  0  0  0
   12.7913   -2.9201   16.3330 C   0  0  0  0  0  0  0  0  0  0  0  0
   11.8096   -2.5936   15.3995 C   0  0  0  0  0  0  0  0  0  0  0  0
   11.5103   -1.2557   15.1383 C   0  0  0  0  0  0  0  0  0  0  0  0
   12.1479   -0.2248   15.8168 C   0  0  0  0  0  0  0  0  0  0  0  0
   13.1002   -0.3949   16.7586 N   0  0  0  0  0  0  0  0  0  0  0  0
   15.9332    1.9383   13.7553 C   0  0  0  0  0  0  0  0  0  0  0  0
   15.3408    2.1685   15.1670 C   0  0  0  0  0  0  0  0  0  0  0  0
   15.7569    1.1653   16.0755 O   0  0  0  0  0  0  0  0  0  0  0  0
   16.4064    2.2447   10.9865 H   0  0  0  0  0  0  0  0  0  0  0  0
   16.2962    4.0113   10.9559 H   0  0  0  0  0  0  0  0  0  0  0  0
   17.5721    3.2202   11.8884 H   0  0  0  0  0  0  0  0  0  0  0  0
   15.8246    4.0734   13.3773 H   0  0  0  0  0  0  0  0  0  0  0  0
   13.9374    3.9462   11.7011 H   0  0  0  0  0  0  0  0  0  0  0  0
   13.5185    3.3969   13.3131 H   0  0  0  0  0  0  0  0  0  0  0  0
   14.1258    1.6660   10.8775 H   0  0  0  0  0  0  0  0  0  0  0  0
   12.6037    1.8073   11.7405 H   0  0  0  0  0  0  0  0  0  0  0  0
   13.8425   -0.2771   12.2500 H   0  0  0  0  0  0  0  0  0  0  0  0
   13.4898    0.6565   13.6827 H   0  0  0  0  0  0  0  0  0  0  0  0
   16.2227   -1.3758   11.1833 H   0  0  0  0  0  0  0  0  0  0  0  0
   15.0250   -2.2756   12.1696 H   0  0  0  0  0  0  0  0  0  0  0  0
   16.7587   -2.7287   12.2109 H   0  0  0  0  0  0  0  0  0  0  0  0
   17.1098   -1.1865   16.2344 H   0  0  0  0  0  0  0  0  0  0  0  0
   17.1910   -2.6608   15.2702 H   0  0  0  0  0  0  0  0  0  0  0  0
   16.3584   -2.9983   17.6276 H   0  0  0  0  0  0  0  0  0  0  0  0
   15.3163   -3.6663   16.3723 H   0  0  0  0  0  0  0  0  0  0  0  0
   14.2676   -0.8461   18.4141 H   0  0  0  0  0  0  0  0  0  0  0  0
   15.1951   -0.9760   17.4466 H   0  0  0  0  0  0  0  0  0  0  0  0
   14.0614   -3.0001   21.2217 H   0  0  0  0  0  0  0  0  0  0  0  0
   16.4317   -2.8450   20.2515 H   0  0  0  0  0  0  0  0  0  0  0  0
   16.5565   -4.5983   20.3738 H   0  0  0  0  0  0  0  0  0  0  0  0
   16.2731   -4.4316   23.9996 H   0  0  0  0  0  0  0  0  0  0  0  0
   14.9707   -3.3728   23.4322 H   0  0  0  0  0  0  0  0  0  0  0  0
   14.3048   -5.8214   23.3357 H   0  0  0  0  0  0  0  0  0  0  0  0
   15.6501   -6.1230   22.2233 H   0  0  0  0  0  0  0  0  0  0  0  0
   12.9496   -3.9657   16.5969 H   0  0  0  0  0  0  0  0  0  0  0  0
   11.2499   -3.3784   14.8958 H   0  0  0  0  0  0  0  0  0  0  0  0
   10.7407   -1.0105   14.4118 H   0  0  0  0  0  0  0  0  0  0  0  0
   11.8756    0.8098   15.6264 H   0  0  0  0  0  0  0  0  0  0  0  0
   17.0231    1.9130   13.8816 H   0  0  0  0  0  0  0  0  0  0  0  0
   14.2478    2.2031   15.1690 H   0  0  0  0  0  0  0  0  0  0  0  0
   15.6932    3.1265   15.5641 H   0  0  0  0  0  0  0  0  0  0  0  0
   15.3938    0.3262   15.7090 H   0  0  0  0  0  0  0  0  0  0  0  0
  1  2  1  0
  2  3  1  0
  3  4  1  0
  4  5  1  0
  5  6  1  0
  6  7  1  0
  7  8  1  0
  7  9  2  0
  7 10  2  0
 10 11  1  0
 11 12  1  0
 12 13  1  0
 13 14  1  0
 14 15  1  0
 15 16  2  0
 15 17  1  0
 17 18  1  0
 18 19  1  0
 19 20  1  0
 20 21  1  0
 21 22  1  0
 14 23  1  0
 23 24  2  0
 24 25  1  0
 25 26  2  0
 26 27  1  0
 27 28  2  0
  6 29  1  0
 29 30  1  0
 30 31  1  0
 29  2  1  0
 22 17  1  0
 28 23  1  0
  1 32  1  0
  1 33  1  0
  1 34  1  0
  2 35  1  0
  3 36  1  0
  3 37  1  0
  4 38  1  0
  4 39  1  0
  5 40  1  0
  5 41  1  0
  8 42  1  0
  8 43  1  0
  8 44  1  0
 11 45  1  0
 11 46  1  0
 12 47  1  0
 12 48  1  0
 13 49  1  0
 13 50  1  0
 17 51  1  0
 18 52  1  0
 18 53  1  0
 20 54  1  0
 20 55  1  0
 21 56  1  0
 21 57  1  0
 24 58  1  0
 25 59  1  0
 26 60  1  0
 27 61  1  0
 29 62  1  0
 30 63  1  0
 30 64  1  0
 31 65  1  0
M  END
>  <Energy>  (331) 
721.74615905225403

>  <compound_id>  (331) 
625

>  <target_id>  (331) 
1

>  <reference_id>  (331) 
26

>  <inspiration_ids>  (331) 
[60, 26]

>  <energy_score>  (331) 
593.5604147292621

>  <distance_score>  (331) 
1.4832297258718665

>  <path>  (331) 
/opt/xchem-fragalysis-2/maxwin/BulkDock/SCRATCH/505733/C625-P26/C625-P26.minimised.mol

>  <scratch_subdir>  (331) 
/opt/xchem-fragalysis-2/maxwin/BulkDock/SCRATCH/505733/C625-P26

>  <fragmenstein_runtime>  (331) 
5.208499908447266

>  <fragmenstein_outcome>  (331) 
too moved

>  <fragmenstein_mode>  (331) 
expansion

>  <fragmenstein_error>  (331) 


$$$$
C628-P60
     RDKit          3D

 44 45  0  0  0  0  0  0  0  0999 V2000
   11.2974    2.5525   13.3894 C   0  0  0  0  0  0  0  0  0  0  0  0
   11.8736    1.4265   14.2376 C   0  0  0  0  0  0  0  0  0  0  0  0
   12.3923    0.3079   13.3936 N   0  0  0  0  0  0  0  0  0  0  0  0
   13.2988    0.6972   12.3759 N   0  0  0  0  0  0  0  0  0  0  0  0
   12.8198   -0.7430   14.2786 C   0  0  0  0  0  0  0  0  0  0  0  0
   11.8510   -1.4196   15.0354 C   0  0  0  0  0  0  0  0  0  0  0  0
   12.2210   -2.1904   16.1343 C   0  0  0  0  0  0  0  0  0  0  0  0
   13.5377   -2.1753   16.5295 C   0  0  0  0  0  0  0  0  0  0  0  0
   13.9729   -2.5522   17.7901 N   0  0  0  0  0  0  0  0  0  0  0  0
   13.8065   -3.9463   18.1698 C   0  0  0  0  0  0  0  0  0  0  0  0
   13.9622   -4.0867   19.6822 C   0  0  0  0  0  0  0  0  0  0  0  0
   15.3044   -3.6003   20.1791 C   0  0  0  0  0  0  0  0  0  0  0  0
   15.4183   -3.8584   21.5064 F   0  0  0  0  0  0  0  0  0  0  0  0
   16.2891   -4.3091   19.5676 F   0  0  0  0  0  0  0  0  0  0  0  0
   14.4944   -1.6842   15.7383 N   0  0  0  0  0  0  0  0  0  0  0  0
   14.1450   -1.1159   14.5452 C   0  0  0  0  0  0  0  0  0  0  0  0
   15.2061   -1.3214   13.4705 C   0  0  0  0  0  0  0  0  0  0  0  0
   16.2855   -0.2474   13.2542 C   0  0  0  0  0  0  0  0  0  0  0  0
   17.2764   -0.7004   12.3021 O   0  0  0  0  0  0  0  0  0  0  0  0
   16.6515   -1.0589   11.0672 C   0  0  0  0  0  0  0  0  0  0  0  0
   15.6057   -2.1383   11.3001 C   0  0  0  0  0  0  0  0  0  0  0  0
   14.5998   -1.6687   12.1999 O   0  0  0  0  0  0  0  0  0  0  0  0
   10.7690    3.2729   14.0215 H   0  0  0  0  0  0  0  0  0  0  0  0
   10.5980    2.1580   12.6500 H   0  0  0  0  0  0  0  0  0  0  0  0
   12.0837    3.0953   12.8550 H   0  0  0  0  0  0  0  0  0  0  0  0
   12.6727    1.8269   14.8755 H   0  0  0  0  0  0  0  0  0  0  0  0
   11.0664    1.0739   14.8911 H   0  0  0  0  0  0  0  0  0  0  0  0
   12.8004    1.1887   11.6331 H   0  0  0  0  0  0  0  0  0  0  0  0
   13.6401   -0.1585   11.9112 H   0  0  0  0  0  0  0  0  0  0  0  0
   10.7989   -1.3086   14.7862 H   0  0  0  0  0  0  0  0  0  0  0  0
   11.4761   -2.6856   16.7267 H   0  0  0  0  0  0  0  0  0  0  0  0
   14.9697   -2.3234   17.7246 H   0  0  0  0  0  0  0  0  0  0  0  0
   12.8211   -4.3252   17.8816 H   0  0  0  0  0  0  0  0  0  0  0  0
   14.5559   -4.5551   17.6522 H   0  0  0  0  0  0  0  0  0  0  0  0
   13.8388   -5.1382   19.9602 H   0  0  0  0  0  0  0  0  0  0  0  0
   13.1724   -3.5341   20.2027 H   0  0  0  0  0  0  0  0  0  0  0  0
   15.4774   -2.5333   20.0177 H   0  0  0  0  0  0  0  0  0  0  0  0
   15.7417   -2.2327   13.7795 H   0  0  0  0  0  0  0  0  0  0  0  0
   15.8701    0.6966   12.8890 H   0  0  0  0  0  0  0  0  0  0  0  0
   16.8060   -0.0353   14.1938 H   0  0  0  0  0  0  0  0  0  0  0  0
   17.4275   -1.4190   10.3853 H   0  0  0  0  0  0  0  0  0  0  0  0
   16.1993   -0.1608   10.6309 H   0  0  0  0  0  0  0  0  0  0  0  0
   15.1125   -2.3934   10.3619 H   0  0  0  0  0  0  0  0  0  0  0  0
   16.0626   -3.0432   11.7071 H   0  0  0  0  0  0  0  0  0  0  0  0
  1  2  1  0
  2  3  1  0
  3  4  1  0
  3  5  1  0
  5  6  2  0
  6  7  1  0
  7  8  2  0
  8  9  1  0
  9 10  1  0
 10 11  1  0
 11 12  1  0
 12 13  1  0
 12 14  1  0
  8 15  1  0
 15 16  2  0
 16 17  1  0
 17 18  1  0
 18 19  1  0
 19 20  1  0
 20 21  1  0
 21 22  1  0
 16  5  1  0
 22 17  1  0
  1 23  1  0
  1 24  1  0
  1 25  1  0
  2 26  1  0
  2 27  1  0
  4 28  1  0
  4 29  1  0
  6 30  1  0
  7 31  1  0
  9 32  1  0
 10 33  1  0
 10 34  1  0
 11 35  1  0
 11 36  1  0
 12 37  1  0
 17 38  1  0
 18 39  1  0
 18 40  1  0
 20 41  1  0
 20 42  1  0
 21 43  1  0
 21 44  1  0
M  END
>  <Energy>  (332) 
114.36133861999673

>  <compound_id>  (332) 
628

>  <target_id>  (332) 
1

>  <reference_id>  (332) 
60

>  <inspiration_ids>  (332) 
[60, 31]

>  <energy_score>  (332) 
-41.26812311764425

>  <distance_score>  (332) 
1.441192297455701

>  <path>  (332) 
/opt/xchem-fragalysis-2/maxwin/BulkDock/SCRATCH/505733/C628-P60/C628-P60.minimised.mol

>  <scratch_subdir>  (332) 
/opt/xchem-fragalysis-2/maxwin/BulkDock/SCRATCH/505733/C628-P60

>  <fragmenstein_runtime>  (332) 
2.979301691055298

>  <fragmenstein_outcome>  (332) 
too moved

>  <fragmenstein_mode>  (332) 
expansion

>  <fragmenstein_error>  (332) 


$$$$
C628-P31
     RDKit          3D

 44 45  0  0  0  0  0  0  0  0999 V2000
    9.6394    0.4818   15.1911 C   0  0  0  0  0  0  0  0  0  0  0  0
   10.8587    1.1014   14.5374 C   0  0  0  0  0  0  0  0  0  0  0  0
   11.5772    0.2839   13.5046 N   0  0  0  0  0  0  0  0  0  0  0  0
   12.2995    1.1727   12.6443 N   0  0  0  0  0  0  0  0  0  0  0  0
   12.2754   -0.8337   14.0862 C   0  0  0  0  0  0  0  0  0  0  0  0
   11.5789   -1.8222   14.8006 C   0  0  0  0  0  0  0  0  0  0  0  0
   12.2049   -2.5772   15.7884 C   0  0  0  0  0  0  0  0  0  0  0  0
   13.4920   -2.2118   16.0926 C   0  0  0  0  0  0  0  0  0  0  0  0
   13.9266   -2.1444   17.4247 N   0  0  0  0  0  0  0  0  0  0  0  0
   14.2826   -3.4035   17.9926 C   0  0  0  0  0  0  0  0  0  0  0  0
   14.4886   -3.3846   19.5103 C   0  0  0  0  0  0  0  0  0  0  0  0
   15.5865   -2.4712   19.9748 C   0  0  0  0  0  0  0  0  0  0  0  0
   15.8033   -2.7037   21.2977 F   0  0  0  0  0  0  0  0  0  0  0  0
   16.7430   -2.7915   19.3412 F   0  0  0  0  0  0  0  0  0  0  0  0
   14.2581   -1.5943   15.1916 N   0  0  0  0  0  0  0  0  0  0  0  0
   13.6564   -1.0285   14.1092 C   0  0  0  0  0  0  0  0  0  0  0  0
   14.5621   -0.7639   12.9197 C   0  0  0  0  0  0  0  0  0  0  0  0
   15.3794   -2.0153   12.4755 C   0  0  0  0  0  0  0  0  0  0  0  0
   16.2952   -1.7066   11.4160 O   0  0  0  0  0  0  0  0  0  0  0  0
   17.0967   -0.5665   11.7344 C   0  0  0  0  0  0  0  0  0  0  0  0
   16.7684    0.0757   13.0862 C   0  0  0  0  0  0  0  0  0  0  0  0
   15.3770    0.3953   13.1671 O   0  0  0  0  0  0  0  0  0  0  0  0
    9.0498    1.2607   15.6871 H   0  0  0  0  0  0  0  0  0  0  0  0
    9.9060   -0.2299   15.9723 H   0  0  0  0  0  0  0  0  0  0  0  0
    8.9991   -0.0171   14.4625 H   0  0  0  0  0  0  0  0  0  0  0  0
   10.4937    2.0106   14.0379 H   0  0  0  0  0  0  0  0  0  0  0  0
   11.5727    1.4507   15.2895 H   0  0  0  0  0  0  0  0  0  0  0  0
   12.4934    0.7561   11.7364 H   0  0  0  0  0  0  0  0  0  0  0  0
   13.2070    1.4303   13.0536 H   0  0  0  0  0  0  0  0  0  0  0  0
   10.5099   -1.9433   14.6762 H   0  0  0  0  0  0  0  0  0  0  0  0
   11.6330   -3.2255   16.4334 H   0  0  0  0  0  0  0  0  0  0  0  0
   14.7530   -1.5336   17.3190 H   0  0  0  0  0  0  0  0  0  0  0  0
   13.4589   -4.0882   17.7769 H   0  0  0  0  0  0  0  0  0  0  0  0
   15.2043   -3.7219   17.4915 H   0  0  0  0  0  0  0  0  0  0  0  0
   14.7627   -4.3783   19.8716 H   0  0  0  0  0  0  0  0  0  0  0  0
   13.5648   -3.1514   20.0418 H   0  0  0  0  0  0  0  0  0  0  0  0
   15.3717   -1.4098   19.8270 H   0  0  0  0  0  0  0  0  0  0  0  0
   13.9717   -0.5228   12.0348 H   0  0  0  0  0  0  0  0  0  0  0  0
   14.6971   -2.7894   12.1094 H   0  0  0  0  0  0  0  0  0  0  0  0
   15.9490   -2.4529   13.3041 H   0  0  0  0  0  0  0  0  0  0  0  0
   16.9305    0.1612   10.9327 H   0  0  0  0  0  0  0  0  0  0  0  0
   18.1486   -0.8665   11.6996 H   0  0  0  0  0  0  0  0  0  0  0  0
   17.0375   -0.5749   13.9264 H   0  0  0  0  0  0  0  0  0  0  0  0
   17.3335    1.0059   13.2027 H   0  0  0  0  0  0  0  0  0  0  0  0
  1  2  1  0
  2  3  1  0
  3  4  1  0
  3  5  1  0
  5  6  2  0
  6  7  1  0
  7  8  2  0
  8  9  1  0
  9 10  1  0
 10 11  1  0
 11 12  1  0
 12 13  1  0
 12 14  1  0
  8 15  1  0
 15 16  2  0
 16 17  1  0
 17 18  1  0
 18 19  1  0
 19 20  1  0
 20 21  1  0
 21 22  1  0
 16  5  1  0
 22 17  1  0
  1 23  1  0
  1 24  1  0
  1 25  1  0
  2 26  1  0
  2 27  1  0
  4 28  1  0
  4 29  1  0
  6 30  1  0
  7 31  1  0
  9 32  1  0
 10 33  1  0
 10 34  1  0
 11 35  1  0
 11 36  1  0
 12 37  1  0
 17 38  1  0
 18 39  1  0
 18 40  1  0
 20 41  1  0
 20 42  1  0
 21 43  1  0
 21 44  1  0
M  END
>  <Energy>  (333) 
137.46077520002953

>  <compound_id>  (333) 
628

>  <target_id>  (333) 
1

>  <reference_id>  (333) 
31

>  <inspiration_ids>  (333) 
[60, 31]

>  <energy_score>  (333) 
-18.16868653761452

>  <distance_score>  (333) 
1.615101738659825

>  <path>  (333) 
/opt/xchem-fragalysis-2/maxwin/BulkDock/SCRATCH/505733/C628-P31/C628-P31.minimised.mol

>  <scratch_subdir>  (333) 
/opt/xchem-fragalysis-2/maxwin/BulkDock/SCRATCH/505733/C628-P31

>  <fragmenstein_runtime>  (333) 
2.6368658542633057

>  <fragmenstein_outcome>  (333) 
too moved

>  <fragmenstein_mode>  (333) 
expansion

>  <fragmenstein_error>  (333) 


$$$$
C629-P60
     RDKit          3D

 45 47  0  0  0  0  0  0  0  0999 V2000
   15.2810   -0.1286   18.0748 C   0  0  0  0  0  0  0  0  0  0  0  0
   14.8618   -0.9476   16.9407 N   0  0  0  0  0  0  0  0  0  0  0  0
   15.3206   -0.3765   15.6752 C   0  0  0  0  0  0  0  0  0  0  0  0
   16.5285   -1.1511   15.1110 C   0  0  0  0  0  0  0  0  0  0  0  0
   16.8394   -0.6930   13.7887 O   0  0  0  0  0  0  0  0  0  0  0  0
   14.1852   -0.4545   14.7562 N   0  0  0  0  0  0  0  0  0  0  0  0
   13.0157   -0.3719   15.6167 C   0  0  0  0  0  0  0  0  0  0  0  0
   11.7984   -0.9977   14.9245 C   0  0  0  0  0  0  0  0  0  0  0  0
   11.9708   -2.4955   14.6649 C   0  0  0  0  0  0  0  0  0  0  0  0
   12.8895   -3.1556   15.6925 C   0  0  0  0  0  0  0  0  0  0  0  0
   12.9061   -2.3853   16.9909 C   0  0  0  0  0  0  0  0  0  0  0  0
   13.4863   -3.1247   18.0796 N   0  0  0  0  0  0  0  0  0  0  0  0
   14.8138   -3.9190   18.1618 C   0  0  0  0  0  0  0  0  0  0  0  0
   15.6038   -4.1599   17.3363 O   0  0  0  0  0  0  0  0  0  0  0  0
   14.9789   -4.3422   19.6381 C   0  0  0  0  0  0  0  0  0  0  0  0
   15.7944   -3.2628   20.3524 C   0  0  0  0  0  0  0  0  0  0  0  0
   15.9795   -3.5935   21.7381 O   0  0  0  0  0  0  0  0  0  0  0  0
   14.7038   -3.7355   22.3775 C   0  0  0  0  0  0  0  0  0  0  0  0
   13.8924   -4.8250   21.6826 C   0  0  0  0  0  0  0  0  0  0  0  0
   13.7071   -4.5227   20.2922 O   0  0  0  0  0  0  0  0  0  0  0  0
   13.3941   -0.9934   16.9004 N   0  0  0  0  0  0  0  0  0  0  0  0
   14.8869   -0.5299   19.0132 H   0  0  0  0  0  0  0  0  0  0  0  0
   14.9361    0.9095   17.9928 H   0  0  0  0  0  0  0  0  0  0  0  0
   16.3731   -0.1249   18.1596 H   0  0  0  0  0  0  0  0  0  0  0  0
   15.5871    0.6858   15.7688 H   0  0  0  0  0  0  0  0  0  0  0  0
   17.4120   -0.9950   15.7383 H   0  0  0  0  0  0  0  0  0  0  0  0
   16.3353   -2.2288   15.0575 H   0  0  0  0  0  0  0  0  0  0  0  0
   16.0716   -0.9766   13.2562 H   0  0  0  0  0  0  0  0  0  0  0  0
   14.2127    0.3380   14.1222 H   0  0  0  0  0  0  0  0  0  0  0  0
   12.7958    0.6854   15.8155 H   0  0  0  0  0  0  0  0  0  0  0  0
   11.5813   -0.4841   13.9796 H   0  0  0  0  0  0  0  0  0  0  0  0
   10.9151   -0.8461   15.5597 H   0  0  0  0  0  0  0  0  0  0  0  0
   10.9849   -2.9752   14.6834 H   0  0  0  0  0  0  0  0  0  0  0  0
   12.3728   -2.6611   13.6587 H   0  0  0  0  0  0  0  0  0  0  0  0
   13.9141   -3.1966   15.3155 H   0  0  0  0  0  0  0  0  0  0  0  0
   12.5666   -4.1851   15.8723 H   0  0  0  0  0  0  0  0  0  0  0  0
   11.8628   -2.2987   17.2739 H   0  0  0  0  0  0  0  0  0  0  0  0
   13.0852   -3.0381   19.0077 H   0  0  0  0  0  0  0  0  0  0  0  0
   15.4979   -5.3083   19.6572 H   0  0  0  0  0  0  0  0  0  0  0  0
   15.2979   -2.2886   20.3045 H   0  0  0  0  0  0  0  0  0  0  0  0
   16.7841   -3.1550   19.8967 H   0  0  0  0  0  0  0  0  0  0  0  0
   14.8759   -3.9961   23.4259 H   0  0  0  0  0  0  0  0  0  0  0  0
   14.1848   -2.7714   22.3418 H   0  0  0  0  0  0  0  0  0  0  0  0
   12.9059   -4.9075   22.1441 H   0  0  0  0  0  0  0  0  0  0  0  0
   14.3931   -5.7968   21.7600 H   0  0  0  0  0  0  0  0  0  0  0  0
  1  2  1  0
  2  3  1  0
  3  4  1  0
  4  5  1  0
  3  6  1  0
  6  7  1  0
  7  8  1  0
  8  9  1  0
  9 10  1  0
 10 11  1  0
 11 12  1  0
 12 13  1  0
 13 14  2  0
 13 15  1  0
 15 16  1  0
 16 17  1  0
 17 18  1  0
 18 19  1  0
 19 20  1  0
 11 21  1  0
 21  2  1  0
 21  7  1  0
 20 15  1  0
  1 22  1  0
  1 23  1  0
  1 24  1  0
  3 25  1  0
  4 26  1  0
  4 27  1  0
  5 28  1  0
  6 29  1  0
  7 30  1  0
  8 31  1  0
  8 32  1  0
  9 33  1  0
  9 34  1  0
 10 35  1  0
 10 36  1  0
 11 37  1  0
 12 38  1  0
 15 39  1  0
 16 40  1  0
 16 41  1  0
 18 42  1  0
 18 43  1  0
 19 44  1  0
 19 45  1  0
M  END
>  <Energy>  (334) 
82.994808393759357

>  <compound_id>  (334) 
629

>  <target_id>  (334) 
1

>  <reference_id>  (334) 
60

>  <inspiration_ids>  (334) 
[60, 36]

>  <energy_score>  (334) 
-49.68800250330514

>  <distance_score>  (334) 
0.7070461734291007

>  <path>  (334) 
/opt/xchem-fragalysis-2/maxwin/BulkDock/SCRATCH/505733/C629-P60/C629-P60.minimised.mol

>  <scratch_subdir>  (334) 
/opt/xchem-fragalysis-2/maxwin/BulkDock/SCRATCH/505733/C629-P60

>  <fragmenstein_runtime>  (334) 
1.670036792755127

>  <fragmenstein_outcome>  (334) 
acceptable

>  <fragmenstein_mode>  (334) 
expansion

>  <fragmenstein_error>  (334) 


$$$$
C629-P36
     RDKit          3D

 45 47  0  0  0  0  0  0  0  0999 V2000
   15.2945   -0.1207   18.0890 C   0  0  0  0  0  0  0  0  0  0  0  0
   14.8810   -0.9083   16.9311 N   0  0  0  0  0  0  0  0  0  0  0  0
   15.3071   -0.2800   15.6817 C   0  0  0  0  0  0  0  0  0  0  0  0
   16.5265   -1.0020   15.0737 C   0  0  0  0  0  0  0  0  0  0  0  0
   16.8014   -0.4942   13.7615 O   0  0  0  0  0  0  0  0  0  0  0  0
   14.1610   -0.3544   14.7751 N   0  0  0  0  0  0  0  0  0  0  0  0
   13.0028   -0.3357   15.6545 C   0  0  0  0  0  0  0  0  0  0  0  0
   11.7930   -0.9697   14.9584 C   0  0  0  0  0  0  0  0  0  0  0  0
   12.0020   -2.4530   14.6477 C   0  0  0  0  0  0  0  0  0  0  0  0
   12.9619   -3.1219   15.6338 C   0  0  0  0  0  0  0  0  0  0  0  0
   12.9685   -2.4020   16.9556 C   0  0  0  0  0  0  0  0  0  0  0  0
   13.5689   -3.1601   18.0197 N   0  0  0  0  0  0  0  0  0  0  0  0
   14.9308   -3.8950   18.0869 C   0  0  0  0  0  0  0  0  0  0  0  0
   15.7412   -4.0632   17.2635 O   0  0  0  0  0  0  0  0  0  0  0  0
   15.0846   -4.3765   19.5460 C   0  0  0  0  0  0  0  0  0  0  0  0
   15.8008   -3.2772   20.3335 C   0  0  0  0  0  0  0  0  0  0  0  0
   15.9663   -3.6566   21.7090 O   0  0  0  0  0  0  0  0  0  0  0  0
   14.6841   -3.9101   22.2985 C   0  0  0  0  0  0  0  0  0  0  0  0
   13.9684   -5.0179   21.5301 C   0  0  0  0  0  0  0  0  0  0  0  0
   13.8042   -4.6671   20.1474 O   0  0  0  0  0  0  0  0  0  0  0  0
   13.4154   -0.9939   16.9083 N   0  0  0  0  0  0  0  0  0  0  0  0
   14.9278   -0.5680   19.0172 H   0  0  0  0  0  0  0  0  0  0  0  0
   14.9186    0.9092   18.0515 H   0  0  0  0  0  0  0  0  0  0  0  0
   16.3872   -0.0880   18.1576 H   0  0  0  0  0  0  0  0  0  0  0  0
   15.5475    0.7848   15.8105 H   0  0  0  0  0  0  0  0  0  0  0  0
   17.4160   -0.8409   15.6913 H   0  0  0  0  0  0  0  0  0  0  0  0
   16.3623   -2.0825   14.9887 H   0  0  0  0  0  0  0  0  0  0  0  0
   16.0284   -0.7756   13.2356 H   0  0  0  0  0  0  0  0  0  0  0  0
   14.1587    0.4634   14.1733 H   0  0  0  0  0  0  0  0  0  0  0  0
   12.7574    0.7073   15.8952 H   0  0  0  0  0  0  0  0  0  0  0  0
   11.5496   -0.4313   14.0340 H   0  0  0  0  0  0  0  0  0  0  0  0
   10.9148   -0.8625   15.6093 H   0  0  0  0  0  0  0  0  0  0  0  0
   11.0307   -2.9612   14.6729 H   0  0  0  0  0  0  0  0  0  0  0  0
   12.3832   -2.5712   13.6274 H   0  0  0  0  0  0  0  0  0  0  0  0
   13.9835   -3.1156   15.2442 H   0  0  0  0  0  0  0  0  0  0  0  0
   12.6736   -4.1661   15.7839 H   0  0  0  0  0  0  0  0  0  0  0  0
   11.9235   -2.3638   17.2402 H   0  0  0  0  0  0  0  0  0  0  0  0
   13.0766   -3.2755   18.9024 H   0  0  0  0  0  0  0  0  0  0  0  0
   15.6650   -5.3070   19.5401 H   0  0  0  0  0  0  0  0  0  0  0  0
   15.2386   -2.3382   20.3116 H   0  0  0  0  0  0  0  0  0  0  0  0
   16.7938   -3.0813   19.9159 H   0  0  0  0  0  0  0  0  0  0  0  0
   14.8411   -4.2066   23.3397 H   0  0  0  0  0  0  0  0  0  0  0  0
   14.1036   -2.9816   22.2878 H   0  0  0  0  0  0  0  0  0  0  0  0
   12.9766   -5.1880   21.9544 H   0  0  0  0  0  0  0  0  0  0  0  0
   14.5314   -5.9568   21.5818 H   0  0  0  0  0  0  0  0  0  0  0  0
  1  2  1  0
  2  3  1  0
  3  4  1  0
  4  5  1  0
  3  6  1  0
  6  7  1  0
  7  8  1  0
  8  9  1  0
  9 10  1  0
 10 11  1  0
 11 12  1  0
 12 13  1  0
 13 14  2  0
 13 15  1  0
 15 16  1  0
 16 17  1  0
 17 18  1  0
 18 19  1  0
 19 20  1  0
 11 21  1  0
 21  2  1  0
 21  7  1  0
 20 15  1  0
  1 22  1  0
  1 23  1  0
  1 24  1  0
  3 25  1  0
  4 26  1  0
  4 27  1  0
  5 28  1  0
  6 29  1  0
  7 30  1  0
  8 31  1  0
  8 32  1  0
  9 33  1  0
  9 34  1  0
 10 35  1  0
 10 36  1  0
 11 37  1  0
 12 38  1  0
 15 39  1  0
 16 40  1  0
 16 41  1  0
 18 42  1  0
 18 43  1  0
 19 44  1  0
 19 45  1  0
M  END
>  <Energy>  (335) 
83.434878511963561

>  <compound_id>  (335) 
629

>  <target_id>  (335) 
1

>  <reference_id>  (335) 
36

>  <inspiration_ids>  (335) 
[60, 36]

>  <energy_score>  (335) 
-49.247932385101336

>  <distance_score>  (335) 
0.75213914757889

>  <path>  (335) 
/opt/xchem-fragalysis-2/maxwin/BulkDock/SCRATCH/505733/C629-P36/C629-P36.minimised.mol

>  <scratch_subdir>  (335) 
/opt/xchem-fragalysis-2/maxwin/BulkDock/SCRATCH/505733/C629-P36

>  <fragmenstein_runtime>  (335) 
2.2215261459350586

>  <fragmenstein_outcome>  (335) 
acceptable

>  <fragmenstein_mode>  (335) 
expansion

>  <fragmenstein_error>  (335) 


$$$$
C631-P60
     RDKit          3D

 40 41  0  0  0  0  0  0  0  0999 V2000
   15.5685    0.4573   18.8564 C   0  0  0  0  0  0  0  0  0  0  0  0
   15.4473    1.3081   17.2975 S   0  0  0  0  0  0  0  0  0  0  0  0
   15.7856    0.3772   16.2375 O   0  0  0  0  0  0  0  0  0  0  0  0
   16.2169    2.5317   17.4458 O   0  0  0  0  0  0  0  0  0  0  0  0
   13.7287    1.7850   17.1458 C   0  0  0  0  0  0  0  0  0  0  0  0
   12.9970    1.1674   15.9511 C   0  0  0  0  0  0  0  0  0  0  0  0
   13.6391    1.5403   14.7287 O   0  0  0  0  0  0  0  0  0  0  0  0
   12.7748   -0.3322   16.0197 C   0  0  0  0  0  0  0  0  0  0  0  0
   12.1888   -1.0195   14.9583 C   0  0  0  0  0  0  0  0  0  0  0  0
   12.1071   -2.4071   15.0235 C   0  0  0  0  0  0  0  0  0  0  0  0
   12.6416   -3.0703   16.1245 C   0  0  0  0  0  0  0  0  0  0  0  0
   13.1667   -2.3107   17.1539 C   0  0  0  0  0  0  0  0  0  0  0  0
   13.6686   -2.8832   18.3022 N   0  0  0  0  0  0  0  0  0  0  0  0
   14.1786   -4.3110   18.5671 C   0  0  0  0  0  0  0  0  0  0  0  0
   14.3270   -5.2064   17.8384 O   0  0  0  0  0  0  0  0  0  0  0  0
   14.5130   -4.4371   20.0604 C   0  0  0  0  0  0  0  0  0  0  0  0
   15.7051   -3.5656   20.4564 C   0  0  0  0  0  0  0  0  0  0  0  0
   15.9790   -3.7021   21.8602 O   0  0  0  0  0  0  0  0  0  0  0  0
   14.8127   -3.3747   22.6341 C   0  0  0  0  0  0  0  0  0  0  0  0
   13.6377   -4.2618   22.2321 C   0  0  0  0  0  0  0  0  0  0  0  0
   13.3582   -4.1033   20.8359 O   0  0  0  0  0  0  0  0  0  0  0  0
   13.1864   -0.9631   17.1429 N   0  0  0  0  0  0  0  0  0  0  0  0
   14.9701   -0.4471   18.8380 H   0  0  0  0  0  0  0  0  0  0  0  0
   15.2265    1.1279   19.6472 H   0  0  0  0  0  0  0  0  0  0  0  0
   16.6177    0.2001   19.0182 H   0  0  0  0  0  0  0  0  0  0  0  0
   13.7396    2.8758   17.0342 H   0  0  0  0  0  0  0  0  0  0  0  0
   13.2375    1.5585   18.0950 H   0  0  0  0  0  0  0  0  0  0  0  0
   11.9993    1.6228   15.9201 H   0  0  0  0  0  0  0  0  0  0  0  0
   14.4438    0.9810   14.6581 H   0  0  0  0  0  0  0  0  0  0  0  0
   11.8252   -0.4946   14.0785 H   0  0  0  0  0  0  0  0  0  0  0  0
   11.6567   -2.9663   14.2062 H   0  0  0  0  0  0  0  0  0  0  0  0
   12.6060   -4.1527   16.1845 H   0  0  0  0  0  0  0  0  0  0  0  0
   13.7435   -2.3374   19.1457 H   0  0  0  0  0  0  0  0  0  0  0  0
   14.7488   -5.4914   20.2564 H   0  0  0  0  0  0  0  0  0  0  0  0
   16.6024   -3.8658   19.9056 H   0  0  0  0  0  0  0  0  0  0  0  0
   15.5362   -2.5029   20.2544 H   0  0  0  0  0  0  0  0  0  0  0  0
   14.5783   -2.3162   22.4730 H   0  0  0  0  0  0  0  0  0  0  0  0
   15.0570   -3.5175   23.6907 H   0  0  0  0  0  0  0  0  0  0  0  0
   12.7410   -3.9860   22.7939 H   0  0  0  0  0  0  0  0  0  0  0  0
   13.8549   -5.3179   22.4292 H   0  0  0  0  0  0  0  0  0  0  0  0
  1  2  1  0
  2  3  2  0
  2  4  2  0
  2  5  1  0
  5  6  1  0
  6  7  1  0
  6  8  1  0
  8  9  2  0
  9 10  1  0
 10 11  2  0
 11 12  1  0
 12 13  1  0
 13 14  1  0
 14 15  2  0
 14 16  1  0
 16 17  1  0
 17 18  1  0
 18 19  1  0
 19 20  1  0
 20 21  1  0
 12 22  2  0
 22  8  1  0
 21 16  1  0
  1 23  1  0
  1 24  1  0
  1 25  1  0
  5 26  1  0
  5 27  1  0
  6 28  1  0
  7 29  1  0
  9 30  1  0
 10 31  1  0
 11 32  1  0
 13 33  1  0
 16 34  1  0
 17 35  1  0
 17 36  1  0
 19 37  1  0
 19 38  1  0
 20 39  1  0
 20 40  1  0
M  END
>  <Energy>  (336) 
67.703542966721599

>  <compound_id>  (336) 
631

>  <target_id>  (336) 
1

>  <reference_id>  (336) 
60

>  <inspiration_ids>  (336) 
[60, 61]

>  <energy_score>  (336) 
-77.11634100985148

>  <distance_score>  (336) 
0.8653721367398236

>  <path>  (336) 
/opt/xchem-fragalysis-2/maxwin/BulkDock/SCRATCH/505733/C631-P60/C631-P60.minimised.mol

>  <scratch_subdir>  (336) 
/opt/xchem-fragalysis-2/maxwin/BulkDock/SCRATCH/505733/C631-P60

>  <fragmenstein_runtime>  (336) 
10.117975950241089

>  <fragmenstein_outcome>  (336) 
acceptable

>  <fragmenstein_mode>  (336) 
expansion

>  <fragmenstein_error>  (336) 


$$$$
C631-P61
     RDKit          3D

 40 41  0  0  0  0  0  0  0  0999 V2000
   15.5286    0.5263   18.8923 C   0  0  0  0  0  0  0  0  0  0  0  0
   15.4768    1.3333   17.3068 S   0  0  0  0  0  0  0  0  0  0  0  0
   15.8423    0.3653   16.2899 O   0  0  0  0  0  0  0  0  0  0  0  0
   16.2612    2.5481   17.4517 O   0  0  0  0  0  0  0  0  0  0  0  0
   13.7700    1.8288   17.0826 C   0  0  0  0  0  0  0  0  0  0  0  0
   13.0762    1.2006   15.8719 C   0  0  0  0  0  0  0  0  0  0  0  0
   13.7841    1.5254   14.6730 O   0  0  0  0  0  0  0  0  0  0  0  0
   12.8154   -0.2922   15.9639 C   0  0  0  0  0  0  0  0  0  0  0  0
   12.1872   -0.9718   14.9221 C   0  0  0  0  0  0  0  0  0  0  0  0
   12.0746   -2.3568   14.9978 C   0  0  0  0  0  0  0  0  0  0  0  0
   12.6211   -3.0273   16.0882 C   0  0  0  0  0  0  0  0  0  0  0  0
   13.1942   -2.2744   17.0974 C   0  0  0  0  0  0  0  0  0  0  0  0
   13.7033   -2.8482   18.2423 N   0  0  0  0  0  0  0  0  0  0  0  0
   14.1063   -4.3023   18.5367 C   0  0  0  0  0  0  0  0  0  0  0  0
   14.1446   -5.2305   17.8366 O   0  0  0  0  0  0  0  0  0  0  0  0
   14.4785   -4.4216   20.0221 C   0  0  0  0  0  0  0  0  0  0  0  0
   15.7072   -3.5927   20.3961 C   0  0  0  0  0  0  0  0  0  0  0  0
   16.0044   -3.7454   21.7942 O   0  0  0  0  0  0  0  0  0  0  0  0
   14.8652   -3.3880   22.5947 C   0  0  0  0  0  0  0  0  0  0  0  0
   13.6533   -4.2322   22.2101 C   0  0  0  0  0  0  0  0  0  0  0  0
   13.3520   -4.0484   20.8212 O   0  0  0  0  0  0  0  0  0  0  0  0
   13.2446   -0.9279   17.0784 N   0  0  0  0  0  0  0  0  0  0  0  0
   14.8868   -0.3479   18.8907 H   0  0  0  0  0  0  0  0  0  0  0  0
   15.2021    1.2366   19.6545 H   0  0  0  0  0  0  0  0  0  0  0  0
   16.5610    0.2262   19.0843 H   0  0  0  0  0  0  0  0  0  0  0  0
   13.8003    2.9174   16.9539 H   0  0  0  0  0  0  0  0  0  0  0  0
   13.2386    1.6244   18.0152 H   0  0  0  0  0  0  0  0  0  0  0  0
   12.0929    1.6799   15.7858 H   0  0  0  0  0  0  0  0  0  0  0  0
   14.5647    0.9305   14.6410 H   0  0  0  0  0  0  0  0  0  0  0  0
   11.8138   -0.4428   14.0480 H   0  0  0  0  0  0  0  0  0  0  0  0
   11.5906   -2.9074   14.1940 H   0  0  0  0  0  0  0  0  0  0  0  0
   12.5607   -4.1083   16.1522 H   0  0  0  0  0  0  0  0  0  0  0  0
   13.8640   -2.2831   19.0594 H   0  0  0  0  0  0  0  0  0  0  0  0
   14.6852   -5.4823   20.2191 H   0  0  0  0  0  0  0  0  0  0  0  0
   16.5823   -3.9211   19.8259 H   0  0  0  0  0  0  0  0  0  0  0  0
   15.5722   -2.5235   20.2040 H   0  0  0  0  0  0  0  0  0  0  0  0
   14.6619   -2.3211   22.4472 H   0  0  0  0  0  0  0  0  0  0  0  0
   15.1263   -3.5481   23.6448 H   0  0  0  0  0  0  0  0  0  0  0  0
   12.7779   -3.9329   22.7931 H   0  0  0  0  0  0  0  0  0  0  0  0
   13.8388   -5.2969   22.3927 H   0  0  0  0  0  0  0  0  0  0  0  0
  1  2  1  0
  2  3  2  0
  2  4  2  0
  2  5  1  0
  5  6  1  0
  6  7  1  0
  6  8  1  0
  8  9  2  0
  9 10  1  0
 10 11  2  0
 11 12  1  0
 12 13  1  0
 13 14  1  0
 14 15  2  0
 14 16  1  0
 16 17  1  0
 17 18  1  0
 18 19  1  0
 19 20  1  0
 20 21  1  0
 12 22  2  0
 22  8  1  0
 21 16  1  0
  1 23  1  0
  1 24  1  0
  1 25  1  0
  5 26  1  0
  5 27  1  0
  6 28  1  0
  7 29  1  0
  9 30  1  0
 10 31  1  0
 11 32  1  0
 13 33  1  0
 16 34  1  0
 17 35  1  0
 17 36  1  0
 19 37  1  0
 19 38  1  0
 20 39  1  0
 20 40  1  0
M  END
>  <Energy>  (337) 
67.953639231066376

>  <compound_id>  (337) 
631

>  <target_id>  (337) 
1

>  <reference_id>  (337) 
61

>  <inspiration_ids>  (337) 
[60, 61]

>  <energy_score>  (337) 
-76.86624474550851

>  <distance_score>  (337) 
0.8525213617088726

>  <path>  (337) 
/opt/xchem-fragalysis-2/maxwin/BulkDock/SCRATCH/505733/C631-P61/C631-P61.minimised.mol

>  <scratch_subdir>  (337) 
/opt/xchem-fragalysis-2/maxwin/BulkDock/SCRATCH/505733/C631-P61

>  <fragmenstein_runtime>  (337) 
10.560580253601074

>  <fragmenstein_outcome>  (337) 
acceptable

>  <fragmenstein_mode>  (337) 
expansion

>  <fragmenstein_error>  (337) 


$$$$
C633-P60
     RDKit          3D

 28 29  0  0  0  0  0  0  0  0999 V2000
   13.6787   -5.1549   18.0536 O   0  0  0  0  0  0  0  0  0  0  0  0
   13.8282   -4.1161   18.5639 C   0  0  0  0  0  0  0  0  0  0  0  0
   13.6600   -2.6821   17.9934 N   0  0  0  0  0  0  0  0  0  0  0  0
   13.1992   -2.2520   16.7543 C   0  0  0  0  0  0  0  0  0  0  0  0
   12.3915   -3.0877   15.9829 C   0  0  0  0  0  0  0  0  0  0  0  0
   11.7551   -2.5844   14.8481 C   0  0  0  0  0  0  0  0  0  0  0  0
   11.9394   -1.2551   14.4722 C   0  0  0  0  0  0  0  0  0  0  0  0
   12.7812   -0.4283   15.2126 C   0  0  0  0  0  0  0  0  0  0  0  0
   13.4120   -0.9306   16.3504 C   0  0  0  0  0  0  0  0  0  0  0  0
   14.7434    0.2925   17.3861 I   0  0  0  0  0  0  0  0  0  0  0  0
   14.1512   -3.9523   20.0643 C   0  0  0  0  0  0  0  0  0  0  0  0
   15.6346   -3.6548   20.2622 C   0  0  0  0  0  0  0  0  0  0  0  0
   15.9332   -3.3182   21.6272 O   0  0  0  0  0  0  0  0  0  0  0  0
   15.0083   -3.9026   22.5600 C   0  0  0  0  0  0  0  0  0  0  0  0
   14.4531   -5.2352   22.0563 C   0  0  0  0  0  0  0  0  0  0  0  0
   13.7435   -5.1065   20.8179 O   0  0  0  0  0  0  0  0  0  0  0  0
   13.9513   -2.0043   18.6887 H   0  0  0  0  0  0  0  0  0  0  0  0
   12.2013   -4.1169   16.2800 H   0  0  0  0  0  0  0  0  0  0  0  0
   11.1039   -3.2261   14.2586 H   0  0  0  0  0  0  0  0  0  0  0  0
   11.4319   -0.8707   13.5905 H   0  0  0  0  0  0  0  0  0  0  0  0
   12.9400    0.5954   14.8850 H   0  0  0  0  0  0  0  0  0  0  0  0
   13.5448   -3.1237   20.4495 H   0  0  0  0  0  0  0  0  0  0  0  0
   15.9751   -2.8231   19.6377 H   0  0  0  0  0  0  0  0  0  0  0  0
   16.2425   -4.5291   20.0004 H   0  0  0  0  0  0  0  0  0  0  0  0
   14.1993   -3.1815   22.7211 H   0  0  0  0  0  0  0  0  0  0  0  0
   15.5336   -4.0366   23.5103 H   0  0  0  0  0  0  0  0  0  0  0  0
   13.7695   -5.6724   22.7901 H   0  0  0  0  0  0  0  0  0  0  0  0
   15.2695   -5.9467   21.8892 H   0  0  0  0  0  0  0  0  0  0  0  0
  1  2  2  0
  2  3  1  0
  3  4  1  0
  4  5  2  0
  5  6  1  0
  6  7  2  0
  7  8  1  0
  8  9  2  0
  9 10  1  0
  2 11  1  0
 11 12  1  0
 12 13  1  0
 13 14  1  0
 14 15  1  0
 15 16  1  0
  9  4  1  0
 16 11  1  0
  3 17  1  0
  5 18  1  0
  6 19  1  0
  7 20  1  0
  8 21  1  0
 11 22  1  0
 12 23  1  0
 12 24  1  0
 14 25  1  0
 14 26  1  0
 15 27  1  0
 15 28  1  0
M  END
>  <Energy>  (338) 
120.62663855374048

>  <compound_id>  (338) 
633

>  <target_id>  (338) 
1

>  <reference_id>  (338) 
60

>  <inspiration_ids>  (338) 
[60, 66]

>  <energy_score>  (338) 
-21.221001275738217

>  <distance_score>  (338) 
0.6444725802654042

>  <path>  (338) 
/opt/xchem-fragalysis-2/maxwin/BulkDock/SCRATCH/505733/C633-P60/C633-P60.minimised.mol

>  <scratch_subdir>  (338) 
/opt/xchem-fragalysis-2/maxwin/BulkDock/SCRATCH/505733/C633-P60

>  <fragmenstein_runtime>  (338) 
1.513054609298706

>  <fragmenstein_outcome>  (338) 
acceptable

>  <fragmenstein_mode>  (338) 
expansion

>  <fragmenstein_error>  (338) 


$$$$
C633-P66
     RDKit          3D

 28 29  0  0  0  0  0  0  0  0999 V2000
   13.6148   -5.2168   18.2498 O   0  0  0  0  0  0  0  0  0  0  0  0
   14.0283   -4.1864   18.6089 C   0  0  0  0  0  0  0  0  0  0  0  0
   14.1265   -2.8269   17.8639 N   0  0  0  0  0  0  0  0  0  0  0  0
   13.6649   -2.4503   16.6044 C   0  0  0  0  0  0  0  0  0  0  0  0
   12.6167   -3.1690   16.0214 C   0  0  0  0  0  0  0  0  0  0  0  0
   11.9349   -2.6470   14.9194 C   0  0  0  0  0  0  0  0  0  0  0  0
   12.3247   -1.4293   14.3690 C   0  0  0  0  0  0  0  0  0  0  0  0
   13.4022   -0.7308   14.9113 C   0  0  0  0  0  0  0  0  0  0  0  0
   14.0614   -1.2358   16.0362 C   0  0  0  0  0  0  0  0  0  0  0  0
   15.5901   -0.1118   16.8911 I   0  0  0  0  0  0  0  0  0  0  0  0
   14.4977   -3.9522   20.0558 C   0  0  0  0  0  0  0  0  0  0  0  0
   16.0099   -3.9487   20.1902 C   0  0  0  0  0  0  0  0  0  0  0  0
   16.4089   -3.5395   21.5116 O   0  0  0  0  0  0  0  0  0  0  0  0
   15.4304   -3.8626   22.5185 C   0  0  0  0  0  0  0  0  0  0  0  0
   14.6090   -5.0973   22.1504 C   0  0  0  0  0  0  0  0  0  0  0  0
   13.8950   -4.9306   20.9224 O   0  0  0  0  0  0  0  0  0  0  0  0
   14.6158   -2.1558   18.4460 H   0  0  0  0  0  0  0  0  0  0  0  0
   12.2690   -4.1053   16.4536 H   0  0  0  0  0  0  0  0  0  0  0  0
   11.0937   -3.1863   14.4904 H   0  0  0  0  0  0  0  0  0  0  0  0
   11.7795   -1.0242   13.5205 H   0  0  0  0  0  0  0  0  0  0  0  0
   13.6947    0.2155   14.4638 H   0  0  0  0  0  0  0  0  0  0  0  0
   14.1010   -2.9845   20.3820 H   0  0  0  0  0  0  0  0  0  0  0  0
   16.4857   -3.2687   19.4770 H   0  0  0  0  0  0  0  0  0  0  0  0
   16.4220   -4.9496   20.0159 H   0  0  0  0  0  0  0  0  0  0  0  0
   14.7822   -2.9877   22.6401 H   0  0  0  0  0  0  0  0  0  0  0  0
   15.9634   -4.0188   23.4611 H   0  0  0  0  0  0  0  0  0  0  0  0
   13.8819   -5.3285   22.9346 H   0  0  0  0  0  0  0  0  0  0  0  0
   15.2646   -5.9670   22.0304 H   0  0  0  0  0  0  0  0  0  0  0  0
  1  2  2  0
  2  3  1  0
  3  4  1  0
  4  5  2  0
  5  6  1  0
  6  7  2  0
  7  8  1  0
  8  9  2  0
  9 10  1  0
  2 11  1  0
 11 12  1  0
 12 13  1  0
 13 14  1  0
 14 15  1  0
 15 16  1  0
  9  4  1  0
 16 11  1  0
  3 17  1  0
  5 18  1  0
  6 19  1  0
  7 20  1  0
  8 21  1  0
 11 22  1  0
 12 23  1  0
 12 24  1  0
 14 25  1  0
 14 26  1  0
 15 27  1  0
 15 28  1  0
M  END
>  <Energy>  (339) 
121.60909604688101

>  <compound_id>  (339) 
633

>  <target_id>  (339) 
1

>  <reference_id>  (339) 
66

>  <inspiration_ids>  (339) 
[60, 66]

>  <energy_score>  (339) 
-20.23854378259921

>  <distance_score>  (339) 
0.8733633256686022

>  <path>  (339) 
/opt/xchem-fragalysis-2/maxwin/BulkDock/SCRATCH/505733/C633-P66/C633-P66.minimised.mol

>  <scratch_subdir>  (339) 
/opt/xchem-fragalysis-2/maxwin/BulkDock/SCRATCH/505733/C633-P66

>  <fragmenstein_runtime>  (339) 
1.0831756591796875

>  <fragmenstein_outcome>  (339) 
acceptable

>  <fragmenstein_mode>  (339) 
expansion

>  <fragmenstein_error>  (339) 


$$$$
C634-P60
     RDKit          3D

 45 46  0  0  0  0  0  0  0  0999 V2000
   16.6743   -4.4048   21.5870 C   0  0  0  0  0  0  0  0  0  0  0  0
   15.2979   -3.7409   21.4073 C   0  0  0  0  0  0  0  0  0  0  0  0
   15.1042   -2.7054   22.5478 C   0  0  0  0  0  0  0  0  0  0  0  0
   14.2862   -1.6090   22.1350 O   0  0  0  0  0  0  0  0  0  0  0  0
   14.2243   -4.8507   21.4519 C   0  0  0  0  0  0  0  0  0  0  0  0
   12.8983   -4.3379   21.3951 O   0  0  0  0  0  0  0  0  0  0  0  0
   15.2117   -3.0230   20.1350 N   0  0  0  0  0  0  0  0  0  0  0  0
   15.8068   -3.3197   18.8206 C   0  0  0  0  0  0  0  0  0  0  0  0
   16.5510   -4.1567   18.5020 O   0  0  0  0  0  0  0  0  0  0  0  0
   15.1076   -2.1464   17.9604 N   0  0  0  0  0  0  0  0  0  0  0  0
   15.1181   -2.0049   16.4005 C   0  0  0  0  0  0  0  0  0  0  0  0
   15.7319   -2.5838   15.5673 O   0  0  0  0  0  0  0  0  0  0  0  0
   14.0305   -0.9468   16.0577 C   0  0  0  0  0  0  0  0  0  0  0  0
   13.9920   -0.6348   14.5510 C   0  0  0  0  0  0  0  0  0  0  0  0
   13.3411   -1.6523   13.7811 O   0  0  0  0  0  0  0  0  0  0  0  0
   12.0391   -1.9260   14.2976 C   0  0  0  0  0  0  0  0  0  0  0  0
   12.1420   -2.3366   15.7603 C   0  0  0  0  0  0  0  0  0  0  0  0
   12.7259   -1.2886   16.5532 O   0  0  0  0  0  0  0  0  0  0  0  0
   16.0544   -1.0483   18.2827 C   0  0  0  0  0  0  0  0  0  0  0  0
   15.5845   -0.0503   19.1435 C   0  0  0  0  0  0  0  0  0  0  0  0
   16.4106    1.0241   19.4586 C   0  0  0  0  0  0  0  0  0  0  0  0
   17.6802    1.0816   18.9050 C   0  0  0  0  0  0  0  0  0  0  0  0
   18.0642    0.0656   18.0468 C   0  0  0  0  0  0  0  0  0  0  0  0
   17.2754   -0.9795   17.7128 N   0  0  0  0  0  0  0  0  0  0  0  0
   16.8340   -5.2078   20.8592 H   0  0  0  0  0  0  0  0  0  0  0  0
   16.7718   -4.8449   22.5860 H   0  0  0  0  0  0  0  0  0  0  0  0
   17.4849   -3.6785   21.4572 H   0  0  0  0  0  0  0  0  0  0  0  0
   16.0681   -2.2610   22.8205 H   0  0  0  0  0  0  0  0  0  0  0  0
   14.6868   -3.1556   23.4550 H   0  0  0  0  0  0  0  0  0  0  0  0
   13.3452   -1.8815   22.2375 H   0  0  0  0  0  0  0  0  0  0  0  0
   14.3065   -5.4233   22.3823 H   0  0  0  0  0  0  0  0  0  0  0  0
   14.3480   -5.5544   20.6212 H   0  0  0  0  0  0  0  0  0  0  0  0
   12.7370   -4.0208   20.4868 H   0  0  0  0  0  0  0  0  0  0  0  0
   14.5407   -2.2723   20.0360 H   0  0  0  0  0  0  0  0  0  0  0  0
   14.3193   -0.0156   16.5564 H   0  0  0  0  0  0  0  0  0  0  0  0
   13.4434    0.3005   14.3846 H   0  0  0  0  0  0  0  0  0  0  0  0
   15.0001   -0.4982   14.1461 H   0  0  0  0  0  0  0  0  0  0  0  0
   11.4191   -1.0303   14.1814 H   0  0  0  0  0  0  0  0  0  0  0  0
   11.6043   -2.7366   13.7066 H   0  0  0  0  0  0  0  0  0  0  0  0
   12.7394   -3.2472   15.8785 H   0  0  0  0  0  0  0  0  0  0  0  0
   11.1452   -2.5332   16.1537 H   0  0  0  0  0  0  0  0  0  0  0  0
   14.5901   -0.0997   19.5763 H   0  0  0  0  0  0  0  0  0  0  0  0
   16.0671    1.7996   20.1379 H   0  0  0  0  0  0  0  0  0  0  0  0
   18.3570    1.8971   19.1351 H   0  0  0  0  0  0  0  0  0  0  0  0
   19.0478    0.0646   17.5842 H   0  0  0  0  0  0  0  0  0  0  0  0
  1  2  1  0
  2  3  1  0
  3  4  1  0
  2  5  1  0
  5  6  1  0
  2  7  1  0
  7  8  1  0
  8  9  2  0
  8 10  1  0
 10 11  1  0
 11 12  2  0
 11 13  1  0
 13 14  1  0
 14 15  1  0
 15 16  1  0
 16 17  1  0
 17 18  1  0
 10 19  1  0
 19 20  2  0
 20 21  1  0
 21 22  2  0
 22 23  1  0
 23 24  2  0
 18 13  1  0
 24 19  1  0
  1 25  1  0
  1 26  1  0
  1 27  1  0
  3 28  1  0
  3 29  1  0
  4 30  1  0
  5 31  1  0
  5 32  1  0
  6 33  1  0
  7 34  1  0
 13 35  1  0
 14 36  1  0
 14 37  1  0
 16 38  1  0
 16 39  1  0
 17 40  1  0
 17 41  1  0
 20 42  1  0
 21 43  1  0
 22 44  1  0
 23 45  1  0
M  END
>  <Energy>  (340) 
147.09303374754663

>  <compound_id>  (340) 
634

>  <target_id>  (340) 
1

>  <reference_id>  (340) 
60

>  <inspiration_ids>  (340) 
[60, 71]

>  <energy_score>  (340) 
-0.5433762939748021

>  <distance_score>  (340) 
2.1395246278135933

>  <path>  (340) 
/opt/xchem-fragalysis-2/maxwin/BulkDock/SCRATCH/505733/C634-P60/C634-P60.minimised.mol

>  <scratch_subdir>  (340) 
/opt/xchem-fragalysis-2/maxwin/BulkDock/SCRATCH/505733/C634-P60

>  <fragmenstein_runtime>  (340) 
4.297570705413818

>  <fragmenstein_outcome>  (340) 
too moved

>  <fragmenstein_mode>  (340) 
expansion

>  <fragmenstein_error>  (340) 


$$$$
C634-P71
     RDKit          3D

 45 46  0  0  0  0  0  0  0  0999 V2000
   14.8113   -3.2503   22.3751 C   0  0  0  0  0  0  0  0  0  0  0  0
   14.7975   -4.0069   21.0385 C   0  0  0  0  0  0  0  0  0  0  0  0
   13.5403   -4.9115   20.9492 C   0  0  0  0  0  0  0  0  0  0  0  0
   13.6720   -6.1464   21.6517 O   0  0  0  0  0  0  0  0  0  0  0  0
   16.0996   -4.8492   20.9738 C   0  0  0  0  0  0  0  0  0  0  0  0
   16.0654   -5.7842   19.8939 O   0  0  0  0  0  0  0  0  0  0  0  0
   14.7227   -3.0286   19.9430 N   0  0  0  0  0  0  0  0  0  0  0  0
   15.4778   -2.9390   18.6780 C   0  0  0  0  0  0  0  0  0  0  0  0
   16.3678   -3.5807   18.2834 O   0  0  0  0  0  0  0  0  0  0  0  0
   14.6582   -1.7531   17.9871 N   0  0  0  0  0  0  0  0  0  0  0  0
   14.7369   -1.3180   16.4945 C   0  0  0  0  0  0  0  0  0  0  0  0
   15.4863   -1.6288   15.6284 O   0  0  0  0  0  0  0  0  0  0  0  0
   13.5014   -0.3982   16.2465 C   0  0  0  0  0  0  0  0  0  0  0  0
   13.5422    0.2243   14.8408 C   0  0  0  0  0  0  0  0  0  0  0  0
   13.2205   -0.6675   13.7668 O   0  0  0  0  0  0  0  0  0  0  0  0
   12.4689   -1.8058   14.1910 C   0  0  0  0  0  0  0  0  0  0  0  0
   11.5396   -1.4529   15.3390 C   0  0  0  0  0  0  0  0  0  0  0  0
   12.2692   -1.0821   16.5199 O   0  0  0  0  0  0  0  0  0  0  0  0
   15.3891   -0.6130   18.5811 C   0  0  0  0  0  0  0  0  0  0  0  0
   16.6992   -0.2775   18.2299 C   0  0  0  0  0  0  0  0  0  0  0  0
   17.2987    0.8138   18.8528 C   0  0  0  0  0  0  0  0  0  0  0  0
   16.5894    1.5288   19.8094 C   0  0  0  0  0  0  0  0  0  0  0  0
   15.3003    1.1247   20.1047 C   0  0  0  0  0  0  0  0  0  0  0  0
   14.6868    0.0785   19.5100 N   0  0  0  0  0  0  0  0  0  0  0  0
   13.9276   -2.6170   22.4878 H   0  0  0  0  0  0  0  0  0  0  0  0
   15.6866   -2.5939   22.4452 H   0  0  0  0  0  0  0  0  0  0  0  0
   14.8360   -3.9407   23.2254 H   0  0  0  0  0  0  0  0  0  0  0  0
   12.6618   -4.3894   21.3426 H   0  0  0  0  0  0  0  0  0  0  0  0
   13.3138   -5.1523   19.9047 H   0  0  0  0  0  0  0  0  0  0  0  0
   14.3834   -6.6371   21.1908 H   0  0  0  0  0  0  0  0  0  0  0  0
   16.9896   -4.2177   20.8681 H   0  0  0  0  0  0  0  0  0  0  0  0
   16.2297   -5.4332   21.8919 H   0  0  0  0  0  0  0  0  0  0  0  0
   16.3328   -5.2722   19.0988 H   0  0  0  0  0  0  0  0  0  0  0  0
   14.0628   -2.2556   19.9954 H   0  0  0  0  0  0  0  0  0  0  0  0
   13.5643    0.4294   16.9614 H   0  0  0  0  0  0  0  0  0  0  0  0
   12.8074    1.0371   14.7913 H   0  0  0  0  0  0  0  0  0  0  0  0
   14.5214    0.6657   14.6273 H   0  0  0  0  0  0  0  0  0  0  0  0
   11.9164   -2.1860   13.3313 H   0  0  0  0  0  0  0  0  0  0  0  0
   13.1762   -2.5788   14.5005 H   0  0  0  0  0  0  0  0  0  0  0  0
   10.9082   -2.3072   15.5966 H   0  0  0  0  0  0  0  0  0  0  0  0
   10.8874   -0.6132   15.0745 H   0  0  0  0  0  0  0  0  0  0  0  0
   17.2572   -0.8570   17.4982 H   0  0  0  0  0  0  0  0  0  0  0  0
   18.3179    1.0948   18.5998 H   0  0  0  0  0  0  0  0  0  0  0  0
   17.0336    2.3787   20.3166 H   0  0  0  0  0  0  0  0  0  0  0  0
   14.7060    1.6493   20.8486 H   0  0  0  0  0  0  0  0  0  0  0  0
  1  2  1  0
  2  3  1  0
  3  4  1  0
  2  5  1  0
  5  6  1  0
  2  7  1  0
  7  8  1  0
  8  9  2  0
  8 10  1  0
 10 11  1  0
 11 12  2  0
 11 13  1  0
 13 14  1  0
 14 15  1  0
 15 16  1  0
 16 17  1  0
 17 18  1  0
 10 19  1  0
 19 20  2  0
 20 21  1  0
 21 22  2  0
 22 23  1  0
 23 24  2  0
 18 13  1  0
 24 19  1  0
  1 25  1  0
  1 26  1  0
  1 27  1  0
  3 28  1  0
  3 29  1  0
  4 30  1  0
  5 31  1  0
  5 32  1  0
  6 33  1  0
  7 34  1  0
 13 35  1  0
 14 36  1  0
 14 37  1  0
 16 38  1  0
 16 39  1  0
 17 40  1  0
 17 41  1  0
 20 42  1  0
 21 43  1  0
 22 44  1  0
 23 45  1  0
M  END
>  <Energy>  (341) 
144.65995927699208

>  <compound_id>  (341) 
634

>  <target_id>  (341) 
1

>  <reference_id>  (341) 
71

>  <inspiration_ids>  (341) 
[60, 71]

>  <energy_score>  (341) 
-2.9764507645334106

>  <distance_score>  (341) 
2.0861311204506348

>  <path>  (341) 
/opt/xchem-fragalysis-2/maxwin/BulkDock/SCRATCH/505733/C634-P71/C634-P71.minimised.mol

>  <scratch_subdir>  (341) 
/opt/xchem-fragalysis-2/maxwin/BulkDock/SCRATCH/505733/C634-P71

>  <fragmenstein_runtime>  (341) 
3.9813268184661865

>  <fragmenstein_outcome>  (341) 
too moved

>  <fragmenstein_mode>  (341) 
expansion

>  <fragmenstein_error>  (341) 


$$$$
C635-P60
     RDKit          3D

 34 35  0  0  0  0  0  0  0  0999 V2000
   12.3027    2.1961   16.3391 O   0  0  0  0  0  0  0  0  0  0  0  0
   13.5236    2.2613   16.3871 C   0  0  0  0  0  0  0  0  0  0  0  0
   14.1670    2.8429   17.4303 O   0  0  0  0  0  0  0  0  0  0  0  0
   14.4811    1.7567   15.3029 C   0  0  0  0  0  0  0  0  0  0  0  0
   13.8901    0.9304   14.3101 O   0  0  0  0  0  0  0  0  0  0  0  0
   13.4195   -0.2625   14.8572 C   0  0  0  0  0  0  0  0  0  0  0  0
   12.3688   -0.8768   14.1953 C   0  0  0  0  0  0  0  0  0  0  0  0
   11.9157   -2.1029   14.6678 C   0  0  0  0  0  0  0  0  0  0  0  0
   12.5368   -2.6756   15.7707 C   0  0  0  0  0  0  0  0  0  0  0  0
   13.5806   -1.9875   16.3781 C   0  0  0  0  0  0  0  0  0  0  0  0
   14.2080   -2.5164   17.4911 N   0  0  0  0  0  0  0  0  0  0  0  0
   14.0403   -3.9016   18.1839 C   0  0  0  0  0  0  0  0  0  0  0  0
   13.4032   -4.8323   17.8725 O   0  0  0  0  0  0  0  0  0  0  0  0
   14.8779   -3.9198   19.4972 C   0  0  0  0  0  0  0  0  0  0  0  0
   14.5727   -2.7398   20.4209 C   0  0  0  0  0  0  0  0  0  0  0  0
   15.3210   -2.8454   21.6424 O   0  0  0  0  0  0  0  0  0  0  0  0
   14.9280   -4.0361   22.3356 C   0  0  0  0  0  0  0  0  0  0  0  0
   15.2245   -5.2456   21.4578 C   0  0  0  0  0  0  0  0  0  0  0  0
   14.5538   -5.1485   20.1984 O   0  0  0  0  0  0  0  0  0  0  0  0
   14.0229   -0.7812   15.9571 N   0  0  0  0  0  0  0  0  0  0  0  0
   15.1402    2.8290   17.3665 H   0  0  0  0  0  0  0  0  0  0  0  0
   15.3476    1.2608   15.7571 H   0  0  0  0  0  0  0  0  0  0  0  0
   14.8574    2.6463   14.7852 H   0  0  0  0  0  0  0  0  0  0  0  0
   11.9061   -0.4091   13.3348 H   0  0  0  0  0  0  0  0  0  0  0  0
   11.0930   -2.6135   14.1752 H   0  0  0  0  0  0  0  0  0  0  0  0
   12.1922   -3.6382   16.1346 H   0  0  0  0  0  0  0  0  0  0  0  0
   14.8980   -1.9737   17.9855 H   0  0  0  0  0  0  0  0  0  0  0  0
   15.9404   -3.9571   19.2298 H   0  0  0  0  0  0  0  0  0  0  0  0
   13.5066   -2.7109   20.6593 H   0  0  0  0  0  0  0  0  0  0  0  0
   14.8395   -1.7791   19.9750 H   0  0  0  0  0  0  0  0  0  0  0  0
   13.8613   -3.9724   22.5805 H   0  0  0  0  0  0  0  0  0  0  0  0
   15.4945   -4.0911   23.2697 H   0  0  0  0  0  0  0  0  0  0  0  0
   16.3001   -5.3285   21.2642 H   0  0  0  0  0  0  0  0  0  0  0  0
   14.8936   -6.1655   21.9489 H   0  0  0  0  0  0  0  0  0  0  0  0
  1  2  2  0
  2  3  1  0
  2  4  1  0
  4  5  1  0
  5  6  1  0
  6  7  2  0
  7  8  1  0
  8  9  2  0
  9 10  1  0
 10 11  1  0
 11 12  1  0
 12 13  2  0
 12 14  1  0
 14 15  1  0
 15 16  1  0
 16 17  1  0
 17 18  1  0
 18 19  1  0
 10 20  2  0
 20  6  1  0
 19 14  1  0
  3 21  1  0
  4 22  1  0
  4 23  1  0
  7 24  1  0
  8 25  1  0
  9 26  1  0
 11 27  1  0
 14 28  1  0
 15 29  1  0
 15 30  1  0
 17 31  1  0
 17 32  1  0
 18 33  1  0
 18 34  1  0
M  END
>  <Energy>  (342) 
58.806544362706248

>  <compound_id>  (342) 
635

>  <target_id>  (342) 
1

>  <reference_id>  (342) 
60

>  <inspiration_ids>  (342) 
[60, 76]

>  <energy_score>  (342) 
-27.711817165861973

>  <distance_score>  (342) 
1.448927650611306

>  <path>  (342) 
/opt/xchem-fragalysis-2/maxwin/BulkDock/SCRATCH/505733/C635-P60/C635-P60.minimised.mol

>  <scratch_subdir>  (342) 
/opt/xchem-fragalysis-2/maxwin/BulkDock/SCRATCH/505733/C635-P60

>  <fragmenstein_runtime>  (342) 
1.380906343460083

>  <fragmenstein_outcome>  (342) 
too moved

>  <fragmenstein_mode>  (342) 
expansion

>  <fragmenstein_error>  (342) 


$$$$
C635-P76
     RDKit          3D

 34 35  0  0  0  0  0  0  0  0999 V2000
   15.7822    2.4013   13.0540 O   0  0  0  0  0  0  0  0  0  0  0  0
   16.1950    1.7983   14.0320 C   0  0  0  0  0  0  0  0  0  0  0  0
   17.3473    2.1929   14.6197 O   0  0  0  0  0  0  0  0  0  0  0  0
   15.5753    0.6027   14.7253 C   0  0  0  0  0  0  0  0  0  0  0  0
   14.3515    0.2640   14.0790 O   0  0  0  0  0  0  0  0  0  0  0  0
   13.7485   -0.8494   14.6583 C   0  0  0  0  0  0  0  0  0  0  0  0
   12.5464   -1.2630   14.1118 C   0  0  0  0  0  0  0  0  0  0  0  0
   11.9004   -2.3644   14.6669 C   0  0  0  0  0  0  0  0  0  0  0  0
   12.4668   -3.0087   15.7579 C   0  0  0  0  0  0  0  0  0  0  0  0
   13.6695   -2.5271   16.2557 C   0  0  0  0  0  0  0  0  0  0  0  0
   14.1491   -3.1051   17.4174 N   0  0  0  0  0  0  0  0  0  0  0  0
   15.4172   -2.7850   18.2531 C   0  0  0  0  0  0  0  0  0  0  0  0
   16.2909   -2.0368   18.0471 O   0  0  0  0  0  0  0  0  0  0  0  0
   15.3482   -3.7015   19.5005 C   0  0  0  0  0  0  0  0  0  0  0  0
   15.7848   -2.8699   20.7120 C   0  0  0  0  0  0  0  0  0  0  0  0
   15.7520   -3.6548   21.9127 O   0  0  0  0  0  0  0  0  0  0  0  0
   14.4260   -4.1456   22.1327 C   0  0  0  0  0  0  0  0  0  0  0  0
   13.9973   -5.0076   20.9492 C   0  0  0  0  0  0  0  0  0  0  0  0
   14.0388   -4.2761   19.7104 O   0  0  0  0  0  0  0  0  0  0  0  0
   14.3106   -1.4610   15.7278 N   0  0  0  0  0  0  0  0  0  0  0  0
   17.6351    2.9534   14.0730 H   0  0  0  0  0  0  0  0  0  0  0  0
   16.2900   -0.2256   14.6518 H   0  0  0  0  0  0  0  0  0  0  0  0
   15.3875    0.8856   15.7679 H   0  0  0  0  0  0  0  0  0  0  0  0
   12.1060   -0.7160   13.2882 H   0  0  0  0  0  0  0  0  0  0  0  0
   10.9593   -2.7109   14.2545 H   0  0  0  0  0  0  0  0  0  0  0  0
   11.9664   -3.8610   16.2047 H   0  0  0  0  0  0  0  0  0  0  0  0
   13.6402   -3.8700   17.8521 H   0  0  0  0  0  0  0  0  0  0  0  0
   16.0455   -4.5320   19.3340 H   0  0  0  0  0  0  0  0  0  0  0  0
   15.1353   -1.9957   20.8480 H   0  0  0  0  0  0  0  0  0  0  0  0
   16.8093   -2.5034   20.5883 H   0  0  0  0  0  0  0  0  0  0  0  0
   13.7522   -3.2958   22.2737 H   0  0  0  0  0  0  0  0  0  0  0  0
   14.4299   -4.7370   23.0531 H   0  0  0  0  0  0  0  0  0  0  0  0
   14.6543   -5.8789   20.8480 H   0  0  0  0  0  0  0  0  0  0  0  0
   12.9736   -5.3639   21.0890 H   0  0  0  0  0  0  0  0  0  0  0  0
  1  2  2  0
  2  3  1  0
  2  4  1  0
  4  5  1  0
  5  6  1  0
  6  7  2  0
  7  8  1  0
  8  9  2  0
  9 10  1  0
 10 11  1  0
 11 12  1  0
 12 13  2  0
 12 14  1  0
 14 15  1  0
 15 16  1  0
 16 17  1  0
 17 18  1  0
 18 19  1  0
 10 20  2  0
 20  6  1  0
 19 14  1  0
  3 21  1  0
  4 22  1  0
  4 23  1  0
  7 24  1  0
  8 25  1  0
  9 26  1  0
 11 27  1  0
 14 28  1  0
 15 29  1  0
 15 30  1  0
 17 31  1  0
 17 32  1  0
 18 33  1  0
 18 34  1  0
M  END
>  <Energy>  (343) 
45.385690208262517

>  <compound_id>  (343) 
635

>  <target_id>  (343) 
1

>  <reference_id>  (343) 
76

>  <inspiration_ids>  (343) 
[60, 76]

>  <energy_score>  (343) 
-41.1326713203063

>  <distance_score>  (343) 
1.797909789171956

>  <path>  (343) 
/opt/xchem-fragalysis-2/maxwin/BulkDock/SCRATCH/505733/C635-P76/C635-P76.minimised.mol

>  <scratch_subdir>  (343) 
/opt/xchem-fragalysis-2/maxwin/BulkDock/SCRATCH/505733/C635-P76

>  <fragmenstein_runtime>  (343) 
1.674267292022705

>  <fragmenstein_outcome>  (343) 
too moved

>  <fragmenstein_mode>  (343) 
expansion

>  <fragmenstein_error>  (343) 


$$$$
C639-P60
     RDKit          3D

 45 47  0  0  0  0  0  0  0  0999 V2000
   14.5586   -4.9333   17.8392 O   0  0  0  0  0  0  0  0  0  0  0  0
   14.5134   -3.7754   18.1037 C   0  0  0  0  0  0  0  0  0  0  0  0
   14.0920   -3.3053   19.4750 C   0  0  0  0  0  0  0  0  0  0  0  0
   15.3108   -3.8993   20.6185 S   0  0  0  0  0  0  0  0  0  0  0  0
   16.5219   -3.1230   20.4247 O   0  0  0  0  0  0  0  0  0  0  0  0
   15.3416   -5.3497   20.6072 O   0  0  0  0  0  0  0  0  0  0  0  0
   14.6342   -3.4460   22.1940 C   0  0  0  0  0  0  0  0  0  0  0  0
   13.6777   -4.2843   22.7761 C   0  0  0  0  0  0  0  0  0  0  0  0
   13.1368   -3.9481   24.0122 C   0  0  0  0  0  0  0  0  0  0  0  0
   13.5615   -2.7892   24.6612 C   0  0  0  0  0  0  0  0  0  0  0  0
   14.5351   -1.9687   24.0869 C   0  0  0  0  0  0  0  0  0  0  0  0
   15.0813   -2.2971   22.8478 C   0  0  0  0  0  0  0  0  0  0  0  0
   14.9224   -2.5316   17.2889 N   0  0  0  0  0  0  0  0  0  0  0  0
   15.7119   -2.5106   15.9617 C   0  0  0  0  0  0  0  0  0  0  0  0
   16.0219   -3.3882   15.2237 O   0  0  0  0  0  0  0  0  0  0  0  0
   16.1933   -1.0464   15.7372 C   0  0  0  0  0  0  0  0  0  0  0  0
   15.5870   -0.4342   14.4621 C   0  0  0  0  0  0  0  0  0  0  0  0
   16.1783   -0.8319   13.2221 O   0  0  0  0  0  0  0  0  0  0  0  0
   17.5219   -1.2981   13.3541 C   0  0  0  0  0  0  0  0  0  0  0  0
   18.2349   -0.6523   14.5328 C   0  0  0  0  0  0  0  0  0  0  0  0
   17.6274   -1.0009   15.7778 O   0  0  0  0  0  0  0  0  0  0  0  0
   13.5760   -2.1790   16.7424 C   0  0  0  0  0  0  0  0  0  0  0  0
   12.7538   -3.1088   16.0954 C   0  0  0  0  0  0  0  0  0  0  0  0
   11.6244   -2.6647   15.4108 C   0  0  0  0  0  0  0  0  0  0  0  0
   11.3304   -1.3106   15.3847 C   0  0  0  0  0  0  0  0  0  0  0  0
   12.1743   -0.4546   16.0659 C   0  0  0  0  0  0  0  0  0  0  0  0
   13.2736   -0.8566   16.7510 N   0  0  0  0  0  0  0  0  0  0  0  0
   13.1243   -3.7403   19.7259 H   0  0  0  0  0  0  0  0  0  0  0  0
   14.0601   -2.2176   19.5608 H   0  0  0  0  0  0  0  0  0  0  0  0
   13.3529   -5.1928   22.2766 H   0  0  0  0  0  0  0  0  0  0  0  0
   12.3794   -4.5770   24.4733 H   0  0  0  0  0  0  0  0  0  0  0  0
   13.1298   -2.5231   25.6233 H   0  0  0  0  0  0  0  0  0  0  0  0
   14.8622   -1.0712   24.6056 H   0  0  0  0  0  0  0  0  0  0  0  0
   15.8424   -1.6580   22.4078 H   0  0  0  0  0  0  0  0  0  0  0  0
   15.8675   -0.4417   16.5907 H   0  0  0  0  0  0  0  0  0  0  0  0
   15.6956    0.6559   14.5125 H   0  0  0  0  0  0  0  0  0  0  0  0
   14.5185   -0.6416   14.3782 H   0  0  0  0  0  0  0  0  0  0  0  0
   17.4969   -2.3868   13.4577 H   0  0  0  0  0  0  0  0  0  0  0  0
   18.0433   -1.0680   12.4199 H   0  0  0  0  0  0  0  0  0  0  0  0
   18.2198    0.4401   14.4458 H   0  0  0  0  0  0  0  0  0  0  0  0
   19.2802   -0.9729   14.5719 H   0  0  0  0  0  0  0  0  0  0  0  0
   13.0075   -4.1645   16.0487 H   0  0  0  0  0  0  0  0  0  0  0  0
   11.0005   -3.3706   14.8654 H   0  0  0  0  0  0  0  0  0  0  0  0
   10.4790   -0.9398   14.8203 H   0  0  0  0  0  0  0  0  0  0  0  0
   11.9976    0.6181   16.0640 H   0  0  0  0  0  0  0  0  0  0  0  0
  1  2  2  0
  2  3  1  0
  3  4  1  0
  4  5  2  0
  4  6  2  0
  4  7  1  0
  7  8  2  0
  8  9  1  0
  9 10  2  0
 10 11  1  0
 11 12  2  0
  2 13  1  0
 13 14  1  0
 14 15  2  0
 14 16  1  0
 16 17  1  0
 17 18  1  0
 18 19  1  0
 19 20  1  0
 20 21  1  0
 13 22  1  0
 22 23  2  0
 23 24  1  0
 24 25  2  0
 25 26  1  0
 26 27  2  0
 12  7  1  0
 21 16  1  0
 27 22  1  0
  3 28  1  0
  3 29  1  0
  8 30  1  0
  9 31  1  0
 10 32  1  0
 11 33  1  0
 12 34  1  0
 16 35  1  0
 17 36  1  0
 17 37  1  0
 19 38  1  0
 19 39  1  0
 20 40  1  0
 20 41  1  0
 23 42  1  0
 24 43  1  0
 25 44  1  0
 26 45  1  0
M  END
>  <Energy>  (344) 
142.9563144594548

>  <compound_id>  (344) 
639

>  <target_id>  (344) 
1

>  <reference_id>  (344) 
60

>  <inspiration_ids>  (344) 
[60, 97]

>  <energy_score>  (344) 
-1.108569509732149

>  <distance_score>  (344) 
2.5546434633692665

>  <path>  (344) 
/opt/xchem-fragalysis-2/maxwin/BulkDock/SCRATCH/505733/C639-P60/C639-P60.minimised.mol

>  <scratch_subdir>  (344) 
/opt/xchem-fragalysis-2/maxwin/BulkDock/SCRATCH/505733/C639-P60

>  <fragmenstein_runtime>  (344) 
7.166897296905518

>  <fragmenstein_outcome>  (344) 
too moved

>  <fragmenstein_mode>  (344) 
expansion

>  <fragmenstein_error>  (344) 


$$$$
C639-P97
     RDKit          3D

 45 47  0  0  0  0  0  0  0  0999 V2000
   16.1026   -3.9788   17.1855 O   0  0  0  0  0  0  0  0  0  0  0  0
   15.4657   -2.9442   17.1171 C   0  0  0  0  0  0  0  0  0  0  0  0
   14.6978   -2.5534   18.3774 C   0  0  0  0  0  0  0  0  0  0  0  0
   15.7418   -2.5773   19.8158 S   0  0  0  0  0  0  0  0  0  0  0  0
   15.2098   -1.5735   20.7228 O   0  0  0  0  0  0  0  0  0  0  0  0
   17.1416   -2.5219   19.4475 O   0  0  0  0  0  0  0  0  0  0  0  0
   15.4211   -4.1611   20.5543 C   0  0  0  0  0  0  0  0  0  0  0  0
   14.4793   -4.2623   21.5834 C   0  0  0  0  0  0  0  0  0  0  0  0
   14.2240   -5.5040   22.1623 C   0  0  0  0  0  0  0  0  0  0  0  0
   14.9143   -6.6323   21.7200 C   0  0  0  0  0  0  0  0  0  0  0  0
   15.8658   -6.5235   20.7029 C   0  0  0  0  0  0  0  0  0  0  0  0
   16.1281   -5.2839   20.1204 C   0  0  0  0  0  0  0  0  0  0  0  0
   15.3923   -1.9528   16.0477 N   0  0  0  0  0  0  0  0  0  0  0  0
   16.6197   -1.2859   15.4389 C   0  0  0  0  0  0  0  0  0  0  0  0
   17.6044   -0.8724   15.9197 O   0  0  0  0  0  0  0  0  0  0  0  0
   16.2965   -1.1238   13.9374 C   0  0  0  0  0  0  0  0  0  0  0  0
   17.5788   -0.8602   13.1421 C   0  0  0  0  0  0  0  0  0  0  0  0
   17.2683   -0.6369   11.7546 O   0  0  0  0  0  0  0  0  0  0  0  0
   16.5698   -1.7697   11.2205 C   0  0  0  0  0  0  0  0  0  0  0  0
   15.2927   -2.0309   12.0106 C   0  0  0  0  0  0  0  0  0  0  0  0
   15.6017   -2.2537   13.3913 O   0  0  0  0  0  0  0  0  0  0  0  0
   13.9910   -1.6515   16.0099 C   0  0  0  0  0  0  0  0  0  0  0  0
   13.0275   -2.6647   15.8844 C   0  0  0  0  0  0  0  0  0  0  0  0
   11.7372   -2.3367   15.4724 C   0  0  0  0  0  0  0  0  0  0  0  0
   11.4227   -1.0118   15.2118 C   0  0  0  0  0  0  0  0  0  0  0  0
   12.4155   -0.0658   15.3770 C   0  0  0  0  0  0  0  0  0  0  0  0
   13.6777   -0.3586   15.7663 N   0  0  0  0  0  0  0  0  0  0  0  0
   14.3540   -1.5159   18.3423 H   0  0  0  0  0  0  0  0  0  0  0  0
   13.8518   -3.2250   18.5405 H   0  0  0  0  0  0  0  0  0  0  0  0
   13.9492   -3.3847   21.9490 H   0  0  0  0  0  0  0  0  0  0  0  0
   13.4997   -5.5838   22.9693 H   0  0  0  0  0  0  0  0  0  0  0  0
   14.7267   -7.5998   22.1798 H   0  0  0  0  0  0  0  0  0  0  0  0
   16.4105   -7.4045   20.3697 H   0  0  0  0  0  0  0  0  0  0  0  0
   16.8841   -5.2038   19.3411 H   0  0  0  0  0  0  0  0  0  0  0  0
   15.6408   -0.2477   13.8466 H   0  0  0  0  0  0  0  0  0  0  0  0
   18.2734   -1.7065   13.2121 H   0  0  0  0  0  0  0  0  0  0  0  0
   18.0971    0.0315   13.5093 H   0  0  0  0  0  0  0  0  0  0  0  0
   16.3330   -1.5583   10.1737 H   0  0  0  0  0  0  0  0  0  0  0  0
   17.2369   -2.6389   11.2533 H   0  0  0  0  0  0  0  0  0  0  0  0
   14.7803   -2.9169   11.6271 H   0  0  0  0  0  0  0  0  0  0  0  0
   14.6043   -1.1808   11.9392 H   0  0  0  0  0  0  0  0  0  0  0  0
   13.2819   -3.7160   15.9878 H   0  0  0  0  0  0  0  0  0  0  0  0
   11.0041   -3.1194   15.2901 H   0  0  0  0  0  0  0  0  0  0  0  0
   10.4424   -0.7296   14.8377 H   0  0  0  0  0  0  0  0  0  0  0  0
   12.2266    0.9837   15.1654 H   0  0  0  0  0  0  0  0  0  0  0  0
  1  2  2  0
  2  3  1  0
  3  4  1  0
  4  5  2  0
  4  6  2  0
  4  7  1  0
  7  8  2  0
  8  9  1  0
  9 10  2  0
 10 11  1  0
 11 12  2  0
  2 13  1  0
 13 14  1  0
 14 15  2  0
 14 16  1  0
 16 17  1  0
 17 18  1  0
 18 19  1  0
 19 20  1  0
 20 21  1  0
 13 22  1  0
 22 23  2  0
 23 24  1  0
 24 25  2  0
 25 26  1  0
 26 27  2  0
 12  7  1  0
 21 16  1  0
 27 22  1  0
  3 28  1  0
  3 29  1  0
  8 30  1  0
  9 31  1  0
 10 32  1  0
 11 33  1  0
 12 34  1  0
 16 35  1  0
 17 36  1  0
 17 37  1  0
 19 38  1  0
 19 39  1  0
 20 40  1  0
 20 41  1  0
 23 42  1  0
 24 43  1  0
 25 44  1  0
 26 45  1  0
M  END
>  <Energy>  (345) 
124.50470998723306

>  <compound_id>  (345) 
639

>  <target_id>  (345) 
1

>  <reference_id>  (345) 
97

>  <inspiration_ids>  (345) 
[60, 97]

>  <energy_score>  (345) 
-19.560173981953596

>  <distance_score>  (345) 
2.3542304931591165

>  <path>  (345) 
/opt/xchem-fragalysis-2/maxwin/BulkDock/SCRATCH/505733/C639-P97/C639-P97.minimised.mol

>  <scratch_subdir>  (345) 
/opt/xchem-fragalysis-2/maxwin/BulkDock/SCRATCH/505733/C639-P97

>  <fragmenstein_runtime>  (345) 
5.394756317138672

>  <fragmenstein_outcome>  (345) 
too moved

>  <fragmenstein_mode>  (345) 
expansion

>  <fragmenstein_error>  (345) 


$$$$
C640-P60
     RDKit          3D

 51 53  0  0  0  0  0  0  0  0999 V2000
    9.4929   -0.1380   14.2856 N   0  0  0  0  0  0  0  0  0  0  0  0
   10.4034   -0.3801   15.6613 S   0  0  0  0  0  0  0  0  0  0  0  0
    9.9405    0.6481   16.5587 O   0  0  0  0  0  0  0  0  0  0  0  0
   10.1917   -1.7592   15.9654 O   0  0  0  0  0  0  0  0  0  0  0  0
   12.0499   -0.0752   15.0436 C   0  0  0  0  0  0  0  0  0  0  0  0
   12.2100    1.4344   14.7854 C   0  0  0  0  0  0  0  0  0  0  0  0
   12.7529    2.1782   15.9797 C   0  0  0  0  0  0  0  0  0  0  0  0
   14.0868    1.6015   16.3810 C   0  0  0  0  0  0  0  0  0  0  0  0
   13.9680    0.1392   16.7405 C   0  0  0  0  0  0  0  0  0  0  0  0
   13.3466   -0.7835   15.6758 C   0  0  0  0  0  0  0  0  0  0  0  0
   14.2725   -0.8866   14.4046 C   0  0  0  0  0  0  0  0  0  0  0  0
   13.7317   -1.9511   13.4127 C   0  0  0  0  0  0  0  0  0  0  0  0
   12.5064   -2.7824   13.9018 C   0  0  0  0  0  0  0  0  0  0  0  0
   12.5606   -3.2203   15.3814 C   0  0  0  0  0  0  0  0  0  0  0  0
   13.4474   -2.3033   16.1930 C   0  0  0  0  0  0  0  0  0  0  0  0
   13.5503   -2.5501   17.6741 N   0  0  0  0  0  0  0  0  0  0  0  0
   13.1841   -3.8895   18.1829 C   0  0  0  0  0  0  0  0  0  0  0  0
   14.1899   -4.7926   17.9887 F   0  0  0  0  0  0  0  0  0  0  0  0
   14.8210   -2.2846   18.2964 C   0  0  0  0  0  0  0  0  0  0  0  0
   14.8441   -1.7660   19.6041 C   0  0  0  0  0  0  0  0  0  0  0  0
   16.0450   -1.4985   20.2691 C   0  0  0  0  0  0  0  0  0  0  0  0
   17.2594   -1.7642   19.6485 C   0  0  0  0  0  0  0  0  0  0  0  0
   17.2696   -2.3127   18.3710 C   0  0  0  0  0  0  0  0  0  0  0  0
   16.0653   -2.5788   17.7075 C   0  0  0  0  0  0  0  0  0  0  0  0
    9.7133   -0.8146   13.5304 H   0  0  0  0  0  0  0  0  0  0  0  0
    8.5112   -0.3567   14.4712 H   0  0  0  0  0  0  0  0  0  0  0  0
   11.9396   -0.4230   14.0170 H   0  0  0  0  0  0  0  0  0  0  0  0
   12.8836    1.5975   13.9349 H   0  0  0  0  0  0  0  0  0  0  0  0
   11.2621    1.8950   14.4815 H   0  0  0  0  0  0  0  0  0  0  0  0
   12.0543    2.1434   16.8208 H   0  0  0  0  0  0  0  0  0  0  0  0
   12.8768    3.2370   15.7237 H   0  0  0  0  0  0  0  0  0  0  0  0
   14.4779    2.1566   17.2422 H   0  0  0  0  0  0  0  0  0  0  0  0
   14.8153    1.7369   15.5726 H   0  0  0  0  0  0  0  0  0  0  0  0
   13.3775    0.0764   17.6614 H   0  0  0  0  0  0  0  0  0  0  0  0
   14.9901   -0.1754   16.9627 H   0  0  0  0  0  0  0  0  0  0  0  0
   15.2990   -1.1514   14.6947 H   0  0  0  0  0  0  0  0  0  0  0  0
   14.3849    0.0685   13.8815 H   0  0  0  0  0  0  0  0  0  0  0  0
   14.5647   -2.6089   13.1453 H   0  0  0  0  0  0  0  0  0  0  0  0
   13.4651   -1.4507   12.4767 H   0  0  0  0  0  0  0  0  0  0  0  0
   12.3379   -3.6311   13.2388 H   0  0  0  0  0  0  0  0  0  0  0  0
   11.5794   -2.2381   13.7331 H   0  0  0  0  0  0  0  0  0  0  0  0
   12.9946   -4.2126   15.4891 H   0  0  0  0  0  0  0  0  0  0  0  0
   11.5648   -3.3709   15.7865 H   0  0  0  0  0  0  0  0  0  0  0  0
   14.4229   -2.6523   15.8438 H   0  0  0  0  0  0  0  0  0  0  0  0
   12.2991   -4.2797   17.6843 H   0  0  0  0  0  0  0  0  0  0  0  0
   12.9930   -3.8585   19.2602 H   0  0  0  0  0  0  0  0  0  0  0  0
   13.9201   -1.5629   20.1344 H   0  0  0  0  0  0  0  0  0  0  0  0
   16.0209   -1.0899   21.2761 H   0  0  0  0  0  0  0  0  0  0  0  0
   18.1927   -1.5619   20.1659 H   0  0  0  0  0  0  0  0  0  0  0  0
   18.2144   -2.5512   17.8902 H   0  0  0  0  0  0  0  0  0  0  0  0
   16.1343   -3.0581   16.7371 H   0  0  0  0  0  0  0  0  0  0  0  0
  1  2  1  0
  2  3  2  0
  2  4  2  0
  2  5  1  0
  5  6  1  0
  6  7  1  0
  7  8  1  0
  8  9  1  0
  9 10  1  0
 10 11  1  0
 11 12  1  0
 12 13  1  0
 13 14  1  0
 14 15  1  0
 15 16  1  0
 16 17  1  0
 17 18  1  0
 16 19  1  0
 19 20  2  0
 20 21  1  0
 21 22  2  0
 22 23  1  0
 23 24  2  0
 10  5  1  0
 24 19  1  0
 15 10  1  0
  1 25  1  0
  1 26  1  0
  5 27  1  0
  6 28  1  0
  6 29  1  0
  7 30  1  0
  7 31  1  0
  8 32  1  0
  8 33  1  0
  9 34  1  0
  9 35  1  0
 11 36  1  0
 11 37  1  0
 12 38  1  0
 12 39  1  0
 13 40  1  0
 13 41  1  0
 14 42  1  0
 14 43  1  0
 15 44  1  0
 17 45  1  0
 17 46  1  0
 20 47  1  0
 21 48  1  0
 22 49  1  0
 23 50  1  0
 24 51  1  0
M  END
>  <Energy>  (346) 
5.4488524892738353

>  <compound_id>  (346) 
640

>  <target_id>  (346) 
1

>  <reference_id>  (346) 
60

>  <inspiration_ids>  (346) 
[60, 98]

>  <energy_score>  (346) 
-27.94083063294684

>  <distance_score>  (346) 
2.3531142547571853

>  <path>  (346) 
/opt/xchem-fragalysis-2/maxwin/BulkDock/SCRATCH/505733/C640-P60/C640-P60.minimised.mol

>  <scratch_subdir>  (346) 
/opt/xchem-fragalysis-2/maxwin/BulkDock/SCRATCH/505733/C640-P60

>  <fragmenstein_runtime>  (346) 
2.63834547996521

>  <fragmenstein_outcome>  (346) 
too moved

>  <fragmenstein_mode>  (346) 
expansion

>  <fragmenstein_error>  (346) 


$$$$
C640-P98
     RDKit          3D

 51 53  0  0  0  0  0  0  0  0999 V2000
   10.1915    1.2554   15.9699 N   0  0  0  0  0  0  0  0  0  0  0  0
   10.8293   -0.1546   15.2932 S   0  0  0  0  0  0  0  0  0  0  0  0
   10.8901    0.2120   13.9007 O   0  0  0  0  0  0  0  0  0  0  0  0
    9.9358   -1.1228   15.8849 O   0  0  0  0  0  0  0  0  0  0  0  0
   12.5187   -0.2370   15.9920 C   0  0  0  0  0  0  0  0  0  0  0  0
   13.0850    1.1957   15.8316 C   0  0  0  0  0  0  0  0  0  0  0  0
   14.2700    1.4573   16.7347 C   0  0  0  0  0  0  0  0  0  0  0  0
   15.0584    0.1971   16.9973 C   0  0  0  0  0  0  0  0  0  0  0  0
   15.0080   -0.7002   15.7752 C   0  0  0  0  0  0  0  0  0  0  0  0
   13.5907   -1.3019   15.4941 C   0  0  0  0  0  0  0  0  0  0  0  0
   13.5825   -1.4556   13.9561 C   0  0  0  0  0  0  0  0  0  0  0  0
   12.5095   -2.3373   13.3703 C   0  0  0  0  0  0  0  0  0  0  0  0
   11.6392   -3.1230   14.3250 C   0  0  0  0  0  0  0  0  0  0  0  0
   12.1346   -3.3496   15.7503 C   0  0  0  0  0  0  0  0  0  0  0  0
   13.5031   -2.7728   16.1102 C   0  0  0  0  0  0  0  0  0  0  0  0
   13.8169   -2.8885   17.5854 N   0  0  0  0  0  0  0  0  0  0  0  0
   13.3005   -4.0754   18.3163 C   0  0  0  0  0  0  0  0  0  0  0  0
   14.1446   -5.1425   18.2044 F   0  0  0  0  0  0  0  0  0  0  0  0
   15.1783   -2.8308   18.0180 C   0  0  0  0  0  0  0  0  0  0  0  0
   15.4583   -2.2771   19.2837 C   0  0  0  0  0  0  0  0  0  0  0  0
   16.7587   -2.2376   19.7928 C   0  0  0  0  0  0  0  0  0  0  0  0
   17.8085   -2.7763   19.0567 C   0  0  0  0  0  0  0  0  0  0  0  0
   17.5535   -3.3665   17.8222 C   0  0  0  0  0  0  0  0  0  0  0  0
   16.2500   -3.4045   17.3143 C   0  0  0  0  0  0  0  0  0  0  0  0
    9.2440    1.0649   16.3062 H   0  0  0  0  0  0  0  0  0  0  0  0
   10.1799    1.9789   15.2468 H   0  0  0  0  0  0  0  0  0  0  0  0
   12.3663   -0.4572   17.0431 H   0  0  0  0  0  0  0  0  0  0  0  0
   13.3674    1.3694   14.7855 H   0  0  0  0  0  0  0  0  0  0  0  0
   12.3647    1.9842   16.0598 H   0  0  0  0  0  0  0  0  0  0  0  0
   13.9353    1.8767   17.6915 H   0  0  0  0  0  0  0  0  0  0  0  0
   14.9113    2.2189   16.2747 H   0  0  0  0  0  0  0  0  0  0  0  0
   14.6265   -0.2800   17.8754 H   0  0  0  0  0  0  0  0  0  0  0  0
   16.0946    0.4519   17.2457 H   0  0  0  0  0  0  0  0  0  0  0  0
   15.7744   -1.4736   15.8108 H   0  0  0  0  0  0  0  0  0  0  0  0
   15.3312   -0.0813   14.9233 H   0  0  0  0  0  0  0  0  0  0  0  0
   14.5448   -1.8874   13.6406 H   0  0  0  0  0  0  0  0  0  0  0  0
   13.5506   -0.4764   13.4621 H   0  0  0  0  0  0  0  0  0  0  0  0
   11.8728   -1.7272   12.7331 H   0  0  0  0  0  0  0  0  0  0  0  0
   12.9905   -3.0243   12.6693 H   0  0  0  0  0  0  0  0  0  0  0  0
   11.3899   -4.0618   13.8368 H   0  0  0  0  0  0  0  0  0  0  0  0
   10.6511   -2.6739   14.3772 H   0  0  0  0  0  0  0  0  0  0  0  0
   12.1223   -4.4206   15.9542 H   0  0  0  0  0  0  0  0  0  0  0  0
   11.3973   -2.9401   16.4333 H   0  0  0  0  0  0  0  0  0  0  0  0
   14.2342   -3.3882   15.5831 H   0  0  0  0  0  0  0  0  0  0  0  0
   12.3462   -4.4085   17.9373 H   0  0  0  0  0  0  0  0  0  0  0  0
   13.1788   -3.8586   19.3836 H   0  0  0  0  0  0  0  0  0  0  0  0
   14.6500   -1.8610   19.8820 H   0  0  0  0  0  0  0  0  0  0  0  0
   16.9439   -1.7938   20.7670 H   0  0  0  0  0  0  0  0  0  0  0  0
   18.8201   -2.7532   19.4523 H   0  0  0  0  0  0  0  0  0  0  0  0
   18.3658   -3.8145   17.2563 H   0  0  0  0  0  0  0  0  0  0  0  0
   16.0905   -3.9176   16.3715 H   0  0  0  0  0  0  0  0  0  0  0  0
  1  2  1  0
  2  3  2  0
  2  4  2  0
  2  5  1  0
  5  6  1  0
  6  7  1  0
  7  8  1  0
  8  9  1  0
  9 10  1  0
 10 11  1  0
 11 12  1  0
 12 13  1  0
 13 14  1  0
 14 15  1  0
 15 16  1  0
 16 17  1  0
 17 18  1  0
 16 19  1  0
 19 20  2  0
 20 21  1  0
 21 22  2  0
 22 23  1  0
 23 24  2  0
 10  5  1  0
 24 19  1  0
 15 10  1  0
  1 25  1  0
  1 26  1  0
  5 27  1  0
  6 28  1  0
  6 29  1  0
  7 30  1  0
  7 31  1  0
  8 32  1  0
  8 33  1  0
  9 34  1  0
  9 35  1  0
 11 36  1  0
 11 37  1  0
 12 38  1  0
 12 39  1  0
 13 40  1  0
 13 41  1  0
 14 42  1  0
 14 43  1  0
 15 44  1  0
 17 45  1  0
 17 46  1  0
 20 47  1  0
 21 48  1  0
 22 49  1  0
 23 50  1  0
 24 51  1  0
M  END
>  <Energy>  (347) 
-9.6881013808252909

>  <compound_id>  (347) 
640

>  <target_id>  (347) 
1

>  <reference_id>  (347) 
98

>  <inspiration_ids>  (347) 
[60, 98]

>  <energy_score>  (347) 
-43.07778450304522

>  <distance_score>  (347) 
2.2234476788883692

>  <path>  (347) 
/opt/xchem-fragalysis-2/maxwin/BulkDock/SCRATCH/505733/C640-P98/C640-P98.minimised.mol

>  <scratch_subdir>  (347) 
/opt/xchem-fragalysis-2/maxwin/BulkDock/SCRATCH/505733/C640-P98

>  <fragmenstein_runtime>  (347) 
3.1659328937530518

>  <fragmenstein_outcome>  (347) 
too moved

>  <fragmenstein_mode>  (347) 
expansion

>  <fragmenstein_error>  (347) 


$$$$
C641-P60
     RDKit          3D

 43 45  0  0  0  0  0  0  0  0999 V2000
   11.5692    4.5420   15.2585 C   0  0  0  0  0  0  0  0  0  0  0  0
   12.2526    3.2945   15.7003 C   0  0  0  0  0  0  0  0  0  0  0  0
   11.8891    2.1045   15.3267 N   0  0  0  0  0  0  0  0  0  0  0  0
   12.7552    1.2368   15.9544 N   0  0  0  0  0  0  0  0  0  0  0  0
   12.5303   -0.1554   15.8835 C   0  0  0  0  0  0  0  0  0  0  0  0
   11.6601   -0.7354   14.9535 C   0  0  0  0  0  0  0  0  0  0  0  0
   11.4202   -2.1170   14.9728 C   0  0  0  0  0  0  0  0  0  0  0  0
   12.0092   -2.9216   15.9438 C   0  0  0  0  0  0  0  0  0  0  0  0
   12.8563   -2.3394   16.8714 C   0  0  0  0  0  0  0  0  0  0  0  0
   13.3569   -3.0911   18.0098 N   0  0  0  0  0  0  0  0  0  0  0  0
   14.8293   -3.4643   18.0656 S   0  0  0  0  0  0  0  0  0  0  0  0
   14.6322   -5.0214   17.5374 N   0  0  0  0  0  0  0  0  0  0  0  0
   15.8856   -3.0024   17.1969 O   0  0  0  0  0  0  0  0  0  0  0  0
   15.3879   -3.3926   19.7288 C   0  0  0  0  0  0  0  0  0  0  0  0
   16.2198   -2.3338   20.0908 C   0  0  0  0  0  0  0  0  0  0  0  0
   16.6895   -2.2304   21.4027 C   0  0  0  0  0  0  0  0  0  0  0  0
   16.3512   -3.1890   22.3546 C   0  0  0  0  0  0  0  0  0  0  0  0
   15.5344   -4.2495   21.9968 C   0  0  0  0  0  0  0  0  0  0  0  0
   15.0266   -4.3236   20.6958 C   0  0  0  0  0  0  0  0  0  0  0  0
   14.1199   -5.2973   20.4399 O   0  0  0  0  0  0  0  0  0  0  0  0
   12.8888   -4.8484   20.9800 C   0  0  0  0  0  0  0  0  0  0  0  0
   11.9550   -5.6493   20.4376 F   0  0  0  0  0  0  0  0  0  0  0  0
   12.8880   -5.1182   22.3129 F   0  0  0  0  0  0  0  0  0  0  0  0
   13.1394   -0.9868   16.8195 C   0  0  0  0  0  0  0  0  0  0  0  0
   13.7165    1.8730   16.7584 C   0  0  0  0  0  0  0  0  0  0  0  0
   14.6076    1.4039   17.4470 O   0  0  0  0  0  0  0  0  0  0  0  0
   13.4314    3.3303   16.6134 C   0  0  0  0  0  0  0  0  0  0  0  0
   10.7274    4.3045   14.6028 H   0  0  0  0  0  0  0  0  0  0  0  0
   11.2020    5.0831   16.1344 H   0  0  0  0  0  0  0  0  0  0  0  0
   12.2801    5.1727   14.7188 H   0  0  0  0  0  0  0  0  0  0  0  0
   11.1564   -0.1276   14.2039 H   0  0  0  0  0  0  0  0  0  0  0  0
   10.7429   -2.5603   14.2492 H   0  0  0  0  0  0  0  0  0  0  0  0
   11.7661   -3.9774   16.0006 H   0  0  0  0  0  0  0  0  0  0  0  0
   13.6220   -5.0486   17.4060 H   0  0  0  0  0  0  0  0  0  0  0  0
   15.0102   -4.9911   16.5934 H   0  0  0  0  0  0  0  0  0  0  0  0
   16.5083   -1.5798   19.3599 H   0  0  0  0  0  0  0  0  0  0  0  0
   17.3327   -1.3975   21.6795 H   0  0  0  0  0  0  0  0  0  0  0  0
   16.7282   -3.1065   23.3707 H   0  0  0  0  0  0  0  0  0  0  0  0
   15.2665   -4.9957   22.7413 H   0  0  0  0  0  0  0  0  0  0  0  0
   12.6452   -3.7977   20.7960 H   0  0  0  0  0  0  0  0  0  0  0  0
   13.7871   -0.6001   17.5965 H   0  0  0  0  0  0  0  0  0  0  0  0
   14.2675    3.8494   16.1419 H   0  0  0  0  0  0  0  0  0  0  0  0
   13.1592    3.7734   17.5730 H   0  0  0  0  0  0  0  0  0  0  0  0
  1  2  1  0
  2  3  2  0
  3  4  1  0
  4  5  1  0
  5  6  2  0
  6  7  1  0
  7  8  2  0
  8  9  1  0
  9 10  1  0
 10 11  2  0
 11 12  1  0
 11 13  2  0
 11 14  1  0
 14 15  2  0
 15 16  1  0
 16 17  2  0
 17 18  1  0
 18 19  2  0
 19 20  1  0
 20 21  1  0
 21 22  1  0
 21 23  1  0
  9 24  2  0
  4 25  1  0
 25 26  2  0
 25 27  1  0
 27  2  1  0
 24  5  1  0
 19 14  1  0
  1 28  1  0
  1 29  1  0
  1 30  1  0
  6 31  1  0
  7 32  1  0
  8 33  1  0
 12 34  1  0
 12 35  1  0
 15 36  1  0
 16 37  1  0
 17 38  1  0
 18 39  1  0
 21 40  1  0
 24 41  1  0
 27 42  1  0
 27 43  1  0
M  END
>  <Energy>  (348) 
-46.886394874454304

>  <compound_id>  (348) 
641

>  <target_id>  (348) 
1

>  <reference_id>  (348) 
60

>  <inspiration_ids>  (348) 
[60, 103]

>  <energy_score>  (348) 
-54.734005009426255

>  <distance_score>  (348) 
1.2470695686441104

>  <path>  (348) 
/opt/xchem-fragalysis-2/maxwin/BulkDock/SCRATCH/505733/C641-P60/C641-P60.minimised.mol

>  <scratch_subdir>  (348) 
/opt/xchem-fragalysis-2/maxwin/BulkDock/SCRATCH/505733/C641-P60

>  <fragmenstein_runtime>  (348) 
2.9478771686553955

>  <fragmenstein_outcome>  (348) 
too moved

>  <fragmenstein_mode>  (348) 
expansion

>  <fragmenstein_error>  (348) 


$$$$
C641-P103
     RDKit          3D

 43 45  0  0  0  0  0  0  0  0999 V2000
   14.3900    3.2147   19.0053 C   0  0  0  0  0  0  0  0  0  0  0  0
   13.9136    2.4297   17.8342 C   0  0  0  0  0  0  0  0  0  0  0  0
   13.8315    1.1344   17.8148 N   0  0  0  0  0  0  0  0  0  0  0  0
   13.3255    0.7975   16.5680 N   0  0  0  0  0  0  0  0  0  0  0  0
   13.0100   -0.5514   16.2942 C   0  0  0  0  0  0  0  0  0  0  0  0
   12.1879   -0.9638   15.2367 C   0  0  0  0  0  0  0  0  0  0  0  0
   11.8107   -2.3071   15.1166 C   0  0  0  0  0  0  0  0  0  0  0  0
   12.2646   -3.2433   16.0451 C   0  0  0  0  0  0  0  0  0  0  0  0
   13.1318   -2.8521   17.0546 C   0  0  0  0  0  0  0  0  0  0  0  0
   13.5301   -3.8134   18.0767 N   0  0  0  0  0  0  0  0  0  0  0  0
   14.9806   -3.8982   18.5253 S   0  0  0  0  0  0  0  0  0  0  0  0
   15.3028   -5.5172   18.3419 N   0  0  0  0  0  0  0  0  0  0  0  0
   16.1401   -3.3332   17.8733 O   0  0  0  0  0  0  0  0  0  0  0  0
   15.0772   -3.4734   20.2300 C   0  0  0  0  0  0  0  0  0  0  0  0
   15.4611   -2.1642   20.5323 C   0  0  0  0  0  0  0  0  0  0  0  0
   15.6423   -1.7772   21.8579 C   0  0  0  0  0  0  0  0  0  0  0  0
   15.4664   -2.6954   22.8862 C   0  0  0  0  0  0  0  0  0  0  0  0
   15.1115   -4.0030   22.5878 C   0  0  0  0  0  0  0  0  0  0  0  0
   14.8830   -4.3881   21.2631 C   0  0  0  0  0  0  0  0  0  0  0  0
   14.5512   -5.6929   21.0484 O   0  0  0  0  0  0  0  0  0  0  0  0
   13.1827   -5.8696   21.3925 C   0  0  0  0  0  0  0  0  0  0  0  0
   12.9148   -7.1981   21.3026 F   0  0  0  0  0  0  0  0  0  0  0  0
   12.9777   -5.5680   22.7016 F   0  0  0  0  0  0  0  0  0  0  0  0
   13.4951   -1.5182   17.1693 C   0  0  0  0  0  0  0  0  0  0  0  0
   13.1102    1.8897   15.7476 C   0  0  0  0  0  0  0  0  0  0  0  0
   12.7129    1.9125   14.6003 O   0  0  0  0  0  0  0  0  0  0  0  0
   13.4953    3.0847   16.5618 C   0  0  0  0  0  0  0  0  0  0  0  0
   13.6100    3.9157   19.3132 H   0  0  0  0  0  0  0  0  0  0  0  0
   14.6257    2.5491   19.8398 H   0  0  0  0  0  0  0  0  0  0  0  0
   15.2861    3.7745   18.7257 H   0  0  0  0  0  0  0  0  0  0  0  0
   11.7845   -0.2586   14.5140 H   0  0  0  0  0  0  0  0  0  0  0  0
   11.1422   -2.6137   14.3145 H   0  0  0  0  0  0  0  0  0  0  0  0
   11.9269   -4.2727   15.9999 H   0  0  0  0  0  0  0  0  0  0  0  0
   15.8443   -5.8151   19.1467 H   0  0  0  0  0  0  0  0  0  0  0  0
   15.9648   -5.5360   17.5714 H   0  0  0  0  0  0  0  0  0  0  0  0
   15.6428   -1.4382   19.7431 H   0  0  0  0  0  0  0  0  0  0  0  0
   15.9312   -0.7545   22.0894 H   0  0  0  0  0  0  0  0  0  0  0  0
   15.6177   -2.3933   23.9195 H   0  0  0  0  0  0  0  0  0  0  0  0
   15.0103   -4.7185   23.4013 H   0  0  0  0  0  0  0  0  0  0  0  0
   12.5059   -5.3059   20.7424 H   0  0  0  0  0  0  0  0  0  0  0  0
   14.1412   -1.2150   17.9840 H   0  0  0  0  0  0  0  0  0  0  0  0
   12.6373    3.7381   16.7285 H   0  0  0  0  0  0  0  0  0  0  0  0
   14.3351    3.6138   16.1083 H   0  0  0  0  0  0  0  0  0  0  0  0
  1  2  1  0
  2  3  2  0
  3  4  1  0
  4  5  1  0
  5  6  2  0
  6  7  1  0
  7  8  2  0
  8  9  1  0
  9 10  1  0
 10 11  2  0
 11 12  1  0
 11 13  2  0
 11 14  1  0
 14 15  2  0
 15 16  1  0
 16 17  2  0
 17 18  1  0
 18 19  2  0
 19 20  1  0
 20 21  1  0
 21 22  1  0
 21 23  1  0
  9 24  2  0
  4 25  1  0
 25 26  2  0
 25 27  1  0
 27  2  1  0
 24  5  1  0
 19 14  1  0
  1 28  1  0
  1 29  1  0
  1 30  1  0
  6 31  1  0
  7 32  1  0
  8 33  1  0
 12 34  1  0
 12 35  1  0
 15 36  1  0
 16 37  1  0
 17 38  1  0
 18 39  1  0
 21 40  1  0
 24 41  1  0
 27 42  1  0
 27 43  1  0
M  END
>  <Energy>  (349) 
-45.196750122398186

>  <compound_id>  (349) 
641

>  <target_id>  (349) 
1

>  <reference_id>  (349) 
103

>  <inspiration_ids>  (349) 
[60, 103]

>  <energy_score>  (349) 
-53.0443602573728

>  <distance_score>  (349) 
1.4012628775269762

>  <path>  (349) 
/opt/xchem-fragalysis-2/maxwin/BulkDock/SCRATCH/505733/C641-P103/C641-P103.minimised.mol

>  <scratch_subdir>  (349) 
/opt/xchem-fragalysis-2/maxwin/BulkDock/SCRATCH/505733/C641-P103

>  <fragmenstein_runtime>  (349) 
2.8329591751098633

>  <fragmenstein_outcome>  (349) 
too moved

>  <fragmenstein_mode>  (349) 
expansion

>  <fragmenstein_error>  (349) 


$$$$
C642-P60
     RDKit          3D

 45 47  0  0  0  0  0  0  0  0999 V2000
   15.6463   -4.1289   17.2824 C   0  0  0  0  0  0  0  0  0  0  0  0
   14.2270   -3.8323   17.3194 N   0  0  0  0  0  0  0  0  0  0  0  0
   13.5531   -4.1895   18.5525 C   0  0  0  0  0  0  0  0  0  0  0  0
   13.7367   -2.8955   16.4284 C   0  0  0  0  0  0  0  0  0  0  0  0
   14.3241   -2.5239   15.3267 N   0  0  0  0  0  0  0  0  0  0  0  0
   13.4356   -1.4619   14.8060 C   0  0  0  0  0  0  0  0  0  0  0  0
   14.1260   -0.5639   14.0756 F   0  0  0  0  0  0  0  0  0  0  0  0
   12.8229   -0.7985   16.0659 C   0  0  0  0  0  0  0  0  0  0  0  0
   13.9631   -0.0783   16.8782 C   0  0  0  0  0  0  0  0  0  0  0  0
   14.3326   -0.4276   18.1901 C   0  0  0  0  0  0  0  0  0  0  0  0
   15.2093    0.3473   18.9388 C   0  0  0  0  0  0  0  0  0  0  0  0
   15.7017    1.5236   18.4040 C   0  0  0  0  0  0  0  0  0  0  0  0
   15.3786    1.8594   17.1020 C   0  0  0  0  0  0  0  0  0  0  0  0
   15.7428    3.0464   16.6148 F   0  0  0  0  0  0  0  0  0  0  0  0
   14.6041    1.0324   16.3123 C   0  0  0  0  0  0  0  0  0  0  0  0
   11.7260    0.2373   15.6523 C   0  0  0  0  0  0  0  0  0  0  0  0
   11.8370    1.6102   15.9615 C   0  0  0  0  0  0  0  0  0  0  0  0
   11.3980    2.5967   15.0795 C   0  0  0  0  0  0  0  0  0  0  0  0
   10.7779    2.2258   13.9023 C   0  0  0  0  0  0  0  0  0  0  0  0
   10.4113    0.8939   13.7391 C   0  0  0  0  0  0  0  0  0  0  0  0
   10.7695   -0.0616   14.6813 C   0  0  0  0  0  0  0  0  0  0  0  0
    9.5488   -1.2315   15.1962 S   0  0  0  0  0  0  0  0  0  0  0  0
    8.1079   -1.1027   14.3335 N   0  0  0  0  0  0  0  0  0  0  0  0
   10.0465   -2.5474   14.8869 O   0  0  0  0  0  0  0  0  0  0  0  0
    9.1950   -0.8404   16.5386 O   0  0  0  0  0  0  0  0  0  0  0  0
   12.4616   -2.1434   16.7025 C   0  0  0  0  0  0  0  0  0  0  0  0
   15.9605   -4.4115   16.2716 H   0  0  0  0  0  0  0  0  0  0  0  0
   16.2261   -3.2540   17.5956 H   0  0  0  0  0  0  0  0  0  0  0  0
   15.9163   -4.9602   17.9418 H   0  0  0  0  0  0  0  0  0  0  0  0
   12.5534   -4.5342   18.3100 H   0  0  0  0  0  0  0  0  0  0  0  0
   13.4996   -3.3519   19.2509 H   0  0  0  0  0  0  0  0  0  0  0  0
   14.0571   -5.0085   19.0738 H   0  0  0  0  0  0  0  0  0  0  0  0
   12.6950   -1.9146   14.1346 H   0  0  0  0  0  0  0  0  0  0  0  0
   13.9603   -1.3117   18.6839 H   0  0  0  0  0  0  0  0  0  0  0  0
   15.4660    0.0591   19.9551 H   0  0  0  0  0  0  0  0  0  0  0  0
   16.3260    2.1871   18.9929 H   0  0  0  0  0  0  0  0  0  0  0  0
   14.4163    1.3477   15.2891 H   0  0  0  0  0  0  0  0  0  0  0  0
   12.3714    1.9574   16.8449 H   0  0  0  0  0  0  0  0  0  0  0  0
   11.5943    3.6438   15.2995 H   0  0  0  0  0  0  0  0  0  0  0  0
   10.4809    2.9896   13.1911 H   0  0  0  0  0  0  0  0  0  0  0  0
    9.7354    0.6197   12.9536 H   0  0  0  0  0  0  0  0  0  0  0  0
    8.3965   -1.0443   13.3413 H   0  0  0  0  0  0  0  0  0  0  0  0
    7.7141   -2.0525   14.3463 H   0  0  0  0  0  0  0  0  0  0  0  0
   11.6747   -2.7224   16.2421 H   0  0  0  0  0  0  0  0  0  0  0  0
   12.2627   -2.1063   17.7500 H   0  0  0  0  0  0  0  0  0  0  0  0
  1  2  1  0
  2  3  1  0
  2  4  1  0
  4  5  2  0
  5  6  1  0
  6  7  1  0
  6  8  1  0
  8  9  1  0
  9 10  2  0
 10 11  1  0
 11 12  2  0
 12 13  1  0
 13 14  1  0
 13 15  2  0
  8 16  1  0
 16 17  2  0
 17 18  1  0
 18 19  2  0
 19 20  1  0
 20 21  2  0
 21 22  1  0
 22 23  1  0
 22 24  2  0
 22 25  2  0
  8 26  1  0
 26  4  1  0
 15  9  1  0
 21 16  1  0
  1 27  1  0
  1 28  1  0
  1 29  1  0
  3 30  1  0
  3 31  1  0
  3 32  1  0
  6 33  1  0
 10 34  1  0
 11 35  1  0
 12 36  1  0
 15 37  1  0
 17 38  1  0
 18 39  1  0
 19 40  1  0
 20 41  1  0
 23 42  1  0
 23 43  1  0
 26 44  1  0
 26 45  1  0
M  END
>  <Energy>  (350) 
49.05825884122649

>  <compound_id>  (350) 
642

>  <target_id>  (350) 
1

>  <reference_id>  (350) 
60

>  <inspiration_ids>  (350) 
[60, 106]

>  <energy_score>  (350) 
-18.078439947127094

>  <distance_score>  (350) 
2.1784687901579116

>  <path>  (350) 
/opt/xchem-fragalysis-2/maxwin/BulkDock/SCRATCH/505733/C642-P60/C642-P60.minimised.mol

>  <scratch_subdir>  (350) 
/opt/xchem-fragalysis-2/maxwin/BulkDock/SCRATCH/505733/C642-P60

>  <fragmenstein_runtime>  (350) 
4.698390483856201

>  <fragmenstein_outcome>  (350) 
too moved

>  <fragmenstein_mode>  (350) 
expansion

>  <fragmenstein_error>  (350) 


$$$$
C642-P106
     RDKit          3D

 45 47  0  0  0  0  0  0  0  0999 V2000
   15.7358   -4.5331   18.3547 C   0  0  0  0  0  0  0  0  0  0  0  0
   14.6259   -3.9964   17.5617 N   0  0  0  0  0  0  0  0  0  0  0  0
   13.3317   -4.0891   18.2161 C   0  0  0  0  0  0  0  0  0  0  0  0
   14.9093   -2.9414   16.7072 C   0  0  0  0  0  0  0  0  0  0  0  0
   16.1223   -2.5719   16.4358 N   0  0  0  0  0  0  0  0  0  0  0  0
   15.9763   -1.4254   15.5319 C   0  0  0  0  0  0  0  0  0  0  0  0
   16.9529   -0.5246   15.7977 F   0  0  0  0  0  0  0  0  0  0  0  0
   14.5634   -0.7868   15.7273 C   0  0  0  0  0  0  0  0  0  0  0  0
   14.5505    0.2023   16.9378 C   0  0  0  0  0  0  0  0  0  0  0  0
   14.8497   -0.2139   18.2531 C   0  0  0  0  0  0  0  0  0  0  0  0
   14.8191    0.6694   19.3380 C   0  0  0  0  0  0  0  0  0  0  0  0
   14.4997    2.0046   19.1377 C   0  0  0  0  0  0  0  0  0  0  0  0
   14.2220    2.4423   17.8549 C   0  0  0  0  0  0  0  0  0  0  0  0
   13.9344    3.7324   17.6426 F   0  0  0  0  0  0  0  0  0  0  0  0
   14.2484    1.5687   16.7713 C   0  0  0  0  0  0  0  0  0  0  0  0
   14.1201   -0.0771   14.4053 C   0  0  0  0  0  0  0  0  0  0  0  0
   15.1453    0.4872   13.5900 C   0  0  0  0  0  0  0  0  0  0  0  0
   14.8891    1.2032   12.4176 C   0  0  0  0  0  0  0  0  0  0  0  0
   13.5865    1.4231   12.0201 C   0  0  0  0  0  0  0  0  0  0  0  0
   12.5513    0.9318   12.8060 C   0  0  0  0  0  0  0  0  0  0  0  0
   12.7952    0.1839   13.9835 C   0  0  0  0  0  0  0  0  0  0  0  0
   11.3222   -0.2644   14.8738 S   0  0  0  0  0  0  0  0  0  0  0  0
   11.1673   -1.8811   14.4934 N   0  0  0  0  0  0  0  0  0  0  0  0
   10.1855    0.4151   14.2909 O   0  0  0  0  0  0  0  0  0  0  0  0
   11.5473   -0.2211   16.2935 O   0  0  0  0  0  0  0  0  0  0  0  0
   13.8314   -2.1073   16.0429 C   0  0  0  0  0  0  0  0  0  0  0  0
   15.4386   -5.4348   18.9004 H   0  0  0  0  0  0  0  0  0  0  0  0
   16.5750   -4.8149   17.7097 H   0  0  0  0  0  0  0  0  0  0  0  0
   16.0793   -3.7918   19.0842 H   0  0  0  0  0  0  0  0  0  0  0  0
   12.5308   -4.1116   17.4715 H   0  0  0  0  0  0  0  0  0  0  0  0
   13.1928   -3.2408   18.8899 H   0  0  0  0  0  0  0  0  0  0  0  0
   13.2497   -5.0014   18.8125 H   0  0  0  0  0  0  0  0  0  0  0  0
   16.1349   -1.8011   14.5126 H   0  0  0  0  0  0  0  0  0  0  0  0
   15.1346   -1.2361   18.4802 H   0  0  0  0  0  0  0  0  0  0  0  0
   15.0516    0.3098   20.3376 H   0  0  0  0  0  0  0  0  0  0  0  0
   14.4690    2.7047   19.9653 H   0  0  0  0  0  0  0  0  0  0  0  0
   14.0293    2.0098   15.8054 H   0  0  0  0  0  0  0  0  0  0  0  0
   16.1964    0.4166   13.8713 H   0  0  0  0  0  0  0  0  0  0  0  0
   15.7160    1.6048   11.8362 H   0  0  0  0  0  0  0  0  0  0  0  0
   13.3753    1.9896   11.1172 H   0  0  0  0  0  0  0  0  0  0  0  0
   11.5337    1.1438   12.4852 H   0  0  0  0  0  0  0  0  0  0  0  0
   10.3753   -1.9922   13.8412 H   0  0  0  0  0  0  0  0  0  0  0  0
   11.1085   -2.4759   15.3141 H   0  0  0  0  0  0  0  0  0  0  0  0
   13.5257   -2.6413   15.1406 H   0  0  0  0  0  0  0  0  0  0  0  0
   12.9877   -1.9931   16.7204 H   0  0  0  0  0  0  0  0  0  0  0  0
  1  2  1  0
  2  3  1  0
  2  4  1  0
  4  5  2  0
  5  6  1  0
  6  7  1  0
  6  8  1  0
  8  9  1  0
  9 10  2  0
 10 11  1  0
 11 12  2  0
 12 13  1  0
 13 14  1  0
 13 15  2  0
  8 16  1  0
 16 17  2  0
 17 18  1  0
 18 19  2  0
 19 20  1  0
 20 21  2  0
 21 22  1  0
 22 23  1  0
 22 24  2  0
 22 25  2  0
  8 26  1  0
 26  4  1  0
 15  9  1  0
 21 16  1  0
  1 27  1  0
  1 28  1  0
  1 29  1  0
  3 30  1  0
  3 31  1  0
  3 32  1  0
  6 33  1  0
 10 34  1  0
 11 35  1  0
 12 36  1  0
 15 37  1  0
 17 38  1  0
 18 39  1  0
 19 40  1  0
 20 41  1  0
 23 42  1  0
 23 43  1  0
 26 44  1  0
 26 45  1  0
M  END
>  <Energy>  (351) 
-7.1963792504504198

>  <compound_id>  (351) 
642

>  <target_id>  (351) 
1

>  <reference_id>  (351) 
106

>  <inspiration_ids>  (351) 
[60, 106]

>  <energy_score>  (351) 
-99.77666420729432

>  <distance_score>  (351) 
2.911500850683348

>  <path>  (351) 
/opt/xchem-fragalysis-2/maxwin/BulkDock/SCRATCH/505733/C642-P106/C642-P106.minimised.mol

>  <scratch_subdir>  (351) 
/opt/xchem-fragalysis-2/maxwin/BulkDock/SCRATCH/505733/C642-P106

>  <fragmenstein_runtime>  (351) 
7.572101831436157

>  <fragmenstein_outcome>  (351) 
too moved

>  <fragmenstein_mode>  (351) 
expansion

>  <fragmenstein_error>  (351) 


$$$$
C643-P60
     RDKit          3D

 28 30  0  0  0  0  0  0  0  0999 V2000
   15.9704   -4.4991   16.2947 F   0  0  0  0  0  0  0  0  0  0  0  0
   16.0677   -4.4614   17.6468 C   0  0  0  0  0  0  0  0  0  0  0  0
   15.1341   -5.3634   18.0730 F   0  0  0  0  0  0  0  0  0  0  0  0
   15.8482   -3.0887   18.1634 N   0  0  0  0  0  0  0  0  0  0  0  0
   15.0383   -2.4543   17.1603 C   0  0  0  0  0  0  0  0  0  0  0  0
   15.6017   -1.6507   16.1745 C   0  0  0  0  0  0  0  0  0  0  0  0
   14.8062   -1.1353   15.1476 C   0  0  0  0  0  0  0  0  0  0  0  0
   13.4458   -1.4326   15.0857 C   0  0  0  0  0  0  0  0  0  0  0  0
   12.8724   -2.2312   16.0688 C   0  0  0  0  0  0  0  0  0  0  0  0
   13.6678   -2.7177   17.1190 C   0  0  0  0  0  0  0  0  0  0  0  0
   13.1065   -3.5366   18.2458 C   0  0  0  0  0  0  0  0  0  0  0  0
   13.9044   -3.5573   19.5354 C   0  0  0  0  0  0  0  0  0  0  0  0
   13.3537   -3.9125   20.7699 C   0  0  0  0  0  0  0  0  0  0  0  0
   14.1406   -3.9348   21.9225 C   0  0  0  0  0  0  0  0  0  0  0  0
   15.4958   -3.6305   21.8472 C   0  0  0  0  0  0  0  0  0  0  0  0
   16.0698   -3.3202   20.6139 C   0  0  0  0  0  0  0  0  0  0  0  0
   15.2769   -3.2944   19.4605 C   0  0  0  0  0  0  0  0  0  0  0  0
   17.0583   -4.8291   17.9346 H   0  0  0  0  0  0  0  0  0  0  0  0
   16.6663   -1.4360   16.1898 H   0  0  0  0  0  0  0  0  0  0  0  0
   15.2589   -0.5163   14.3769 H   0  0  0  0  0  0  0  0  0  0  0  0
   12.8380   -1.0499   14.2695 H   0  0  0  0  0  0  0  0  0  0  0  0
   11.8141   -2.4701   16.0184 H   0  0  0  0  0  0  0  0  0  0  0  0
   12.2210   -2.9900   18.4558 H   0  0  0  0  0  0  0  0  0  0  0  0
   12.8775   -4.5488   17.9065 H   0  0  0  0  0  0  0  0  0  0  0  0
   12.3022   -4.1559   20.8596 H   0  0  0  0  0  0  0  0  0  0  0  0
   13.6862   -4.1704   22.8816 H   0  0  0  0  0  0  0  0  0  0  0  0
   16.1054   -3.6350   22.7464 H   0  0  0  0  0  0  0  0  0  0  0  0
   17.1306   -3.0958   20.5521 H   0  0  0  0  0  0  0  0  0  0  0  0
  1  2  1  0
  2  3  1  0
  2  4  1  0
  4  5  1  0
  5  6  2  0
  6  7  1  0
  7  8  2  0
  8  9  1  0
  9 10  2  0
 10 11  1  0
 11 12  1  0
 12 13  2  0
 13 14  1  0
 14 15  2  0
 15 16  1  0
 16 17  2  0
 17  4  1  0
 10  5  1  0
 17 12  1  0
  2 18  1  0
  6 19  1  0
  7 20  1  0
  8 21  1  0
  9 22  1  0
 11 23  1  0
 11 24  1  0
 13 25  1  0
 14 26  1  0
 15 27  1  0
 16 28  1  0
M  END
>  <Energy>  (352) 
58.066196258189287

>  <compound_id>  (352) 
643

>  <target_id>  (352) 
1

>  <reference_id>  (352) 
60

>  <inspiration_ids>  (352) 
[60, 111]

>  <energy_score>  (352) 
2.47247945629816

>  <distance_score>  (352) 
2.1612033555604655

>  <path>  (352) 
/opt/xchem-fragalysis-2/maxwin/BulkDock/SCRATCH/505733/C643-P60/C643-P60.minimised.mol

>  <scratch_subdir>  (352) 
/opt/xchem-fragalysis-2/maxwin/BulkDock/SCRATCH/505733/C643-P60

>  <fragmenstein_runtime>  (352) 
21.214438438415527

>  <fragmenstein_outcome>  (352) 
too moved

>  <fragmenstein_mode>  (352) 
expansion

>  <fragmenstein_error>  (352) 


$$$$
C643-P111
     RDKit          3D

 28 30  0  0  0  0  0  0  0  0999 V2000
   14.4967   -5.0632   19.0790 F   0  0  0  0  0  0  0  0  0  0  0  0
   13.6048   -4.0844   18.8008 C   0  0  0  0  0  0  0  0  0  0  0  0
   12.8378   -4.6262   17.8282 F   0  0  0  0  0  0  0  0  0  0  0  0
   14.3420   -2.8939   18.3992 N   0  0  0  0  0  0  0  0  0  0  0  0
   13.9167   -2.2299   17.2258 C   0  0  0  0  0  0  0  0  0  0  0  0
   13.4134   -2.8844   16.0956 C   0  0  0  0  0  0  0  0  0  0  0  0
   12.9040   -2.1892   14.9930 C   0  0  0  0  0  0  0  0  0  0  0  0
   12.9358   -0.8092   14.9576 C   0  0  0  0  0  0  0  0  0  0  0  0
   13.5071   -0.1346   16.0210 C   0  0  0  0  0  0  0  0  0  0  0  0
   14.0086   -0.8349   17.1390 C   0  0  0  0  0  0  0  0  0  0  0  0
   14.6934   -0.0447   18.2322 C   0  0  0  0  0  0  0  0  0  0  0  0
   15.0651   -0.8216   19.4705 C   0  0  0  0  0  0  0  0  0  0  0  0
   15.5621   -0.1241   20.5859 C   0  0  0  0  0  0  0  0  0  0  0  0
   15.8965   -0.8004   21.7580 C   0  0  0  0  0  0  0  0  0  0  0  0
   15.7641   -2.1825   21.8225 C   0  0  0  0  0  0  0  0  0  0  0  0
   15.2987   -2.8824   20.7102 C   0  0  0  0  0  0  0  0  0  0  0  0
   14.9061   -2.2181   19.5253 C   0  0  0  0  0  0  0  0  0  0  0  0
   12.9763   -3.9229   19.6810 H   0  0  0  0  0  0  0  0  0  0  0  0
   13.4118   -3.9672   16.0233 H   0  0  0  0  0  0  0  0  0  0  0  0
   12.4807   -2.7367   14.1533 H   0  0  0  0  0  0  0  0  0  0  0  0
   12.5443   -0.2723   14.0984 H   0  0  0  0  0  0  0  0  0  0  0  0
   13.5835    0.9501   15.9814 H   0  0  0  0  0  0  0  0  0  0  0  0
   15.6106    0.3894   17.8142 H   0  0  0  0  0  0  0  0  0  0  0  0
   14.0263    0.7744   18.5295 H   0  0  0  0  0  0  0  0  0  0  0  0
   15.6766    0.9570   20.5487 H   0  0  0  0  0  0  0  0  0  0  0  0
   16.2636   -0.2483   22.6191 H   0  0  0  0  0  0  0  0  0  0  0  0
   16.0358   -2.7149   22.7297 H   0  0  0  0  0  0  0  0  0  0  0  0
   15.2524   -3.9627   20.8060 H   0  0  0  0  0  0  0  0  0  0  0  0
  1  2  1  0
  2  3  1  0
  2  4  1  0
  4  5  1  0
  5  6  2  0
  6  7  1  0
  7  8  2  0
  8  9  1  0
  9 10  2  0
 10 11  1  0
 11 12  1  0
 12 13  2  0
 13 14  1  0
 14 15  2  0
 15 16  1  0
 16 17  2  0
 17  4  1  0
 10  5  1  0
 17 12  1  0
  2 18  1  0
  6 19  1  0
  7 20  1  0
  8 21  1  0
  9 22  1  0
 11 23  1  0
 11 24  1  0
 13 25  1  0
 14 26  1  0
 15 27  1  0
 16 28  1  0
M  END
>  <Energy>  (353) 
43.063055644162866

>  <compound_id>  (353) 
643

>  <target_id>  (353) 
1

>  <reference_id>  (353) 
111

>  <inspiration_ids>  (353) 
[60, 111]

>  <energy_score>  (353) 
-12.530661157729185

>  <distance_score>  (353) 
2.077511324462635

>  <path>  (353) 
/opt/xchem-fragalysis-2/maxwin/BulkDock/SCRATCH/505733/C643-P111/C643-P111.minimised.mol

>  <scratch_subdir>  (353) 
/opt/xchem-fragalysis-2/maxwin/BulkDock/SCRATCH/505733/C643-P111

>  <fragmenstein_runtime>  (353) 
21.50026774406433

>  <fragmenstein_outcome>  (353) 
too moved

>  <fragmenstein_mode>  (353) 
expansion

>  <fragmenstein_error>  (353) 


$$$$
C644-P60
     RDKit          3D

 40 40  0  0  0  0  0  0  0  0999 V2000
   15.3707    4.9134   20.5711 C   0  0  0  0  0  0  0  0  0  0  0  0
   14.7169    3.5479   20.4283 C   0  0  0  0  0  0  0  0  0  0  0  0
   14.9233    2.9101   19.0510 C   0  0  0  0  0  0  0  0  0  0  0  0
   14.2626    3.6992   17.9177 C   0  0  0  0  0  0  0  0  0  0  0  0
   14.2443    3.0320   16.5432 C   0  0  0  0  0  0  0  0  0  0  0  0
   15.5092    2.2902   16.1136 C   0  0  0  0  0  0  0  0  0  0  0  0
   15.1576    1.5370   14.8132 C   0  0  0  0  0  0  0  0  0  0  0  0
   16.0182    0.2643   14.5275 C   0  0  0  0  0  0  0  0  0  0  0  0
   16.3217   -0.6310   15.7488 N   0  0  0  0  0  0  0  0  0  0  0  0
   15.2332   -1.4496   15.1524 C   0  0  0  0  0  0  0  0  0  0  0  0
   14.9438   -2.3940   16.1070 F   0  0  0  0  0  0  0  0  0  0  0  0
   17.7223   -0.8737   15.8414 C   0  0  0  0  0  0  0  0  0  0  0  0
   18.3547    0.1844   16.7206 C   0  0  0  0  0  0  0  0  0  0  0  0
   18.3943   -1.7575   15.3828 O   0  0  0  0  0  0  0  0  0  0  0  0
   13.6946    1.2067   14.8432 N   0  0  0  0  0  0  0  0  0  0  0  0
   12.9302    1.8028   13.7651 O   0  0  0  0  0  0  0  0  0  0  0  0
   12.9909    1.7677   16.3425 S   0  0  0  0  0  0  0  0  0  0  0  0
   11.6909    2.3179   16.0202 O   0  0  0  0  0  0  0  0  0  0  0  0
   13.1680    0.6973   17.2941 O   0  0  0  0  0  0  0  0  0  0  0  0
   14.8992    5.6539   19.9184 H   0  0  0  0  0  0  0  0  0  0  0  0
   16.4370    4.8661   20.3288 H   0  0  0  0  0  0  0  0  0  0  0  0
   15.2729    5.2705   21.6013 H   0  0  0  0  0  0  0  0  0  0  0  0
   13.6451    3.6321   20.6427 H   0  0  0  0  0  0  0  0  0  0  0  0
   15.1391    2.8783   21.1871 H   0  0  0  0  0  0  0  0  0  0  0  0
   15.9986    2.8123   18.8606 H   0  0  0  0  0  0  0  0  0  0  0  0
   14.5123    1.8966   19.0911 H   0  0  0  0  0  0  0  0  0  0  0  0
   14.7984    4.6505   17.8109 H   0  0  0  0  0  0  0  0  0  0  0  0
   13.2333    3.9508   18.2024 H   0  0  0  0  0  0  0  0  0  0  0  0
   13.9953    3.7995   15.7980 H   0  0  0  0  0  0  0  0  0  0  0  0
   15.8019    1.5807   16.8917 H   0  0  0  0  0  0  0  0  0  0  0  0
   16.3501    2.9741   15.9592 H   0  0  0  0  0  0  0  0  0  0  0  0
   15.3108    2.2320   13.9757 H   0  0  0  0  0  0  0  0  0  0  0  0
   15.7634   -0.2063   13.5586 H   0  0  0  0  0  0  0  0  0  0  0  0
   17.0017    0.6953   14.2739 H   0  0  0  0  0  0  0  0  0  0  0  0
   14.2630   -0.9871   14.9793 H   0  0  0  0  0  0  0  0  0  0  0  0
   15.5910   -2.0424   14.2991 H   0  0  0  0  0  0  0  0  0  0  0  0
   17.7410    0.3656   17.6074 H   0  0  0  0  0  0  0  0  0  0  0  0
   18.4826    1.1117   16.1567 H   0  0  0  0  0  0  0  0  0  0  0  0
   19.3364   -0.1633   17.0565 H   0  0  0  0  0  0  0  0  0  0  0  0
   11.9904    1.7603   14.0557 H   0  0  0  0  0  0  0  0  0  0  0  0
  1  2  1  0
  2  3  1  0
  3  4  1  0
  4  5  1  0
  5  6  1  0
  6  7  1  0
  7  8  1  0
  8  9  1  0
  9 10  1  0
 10 11  1  0
  9 12  1  0
 12 13  1  0
 12 14  2  0
  7 15  1  0
 15 16  1  0
 15 17  1  0
 17 18  2  0
 17 19  2  0
 17  5  1  0
  1 20  1  0
  1 21  1  0
  1 22  1  0
  2 23  1  0
  2 24  1  0
  3 25  1  0
  3 26  1  0
  4 27  1  0
  4 28  1  0
  5 29  1  0
  6 30  1  0
  6 31  1  0
  7 32  1  0
  8 33  1  0
  8 34  1  0
 10 35  1  0
 10 36  1  0
 13 37  1  0
 13 38  1  0
 13 39  1  0
 16 40  1  0
M  END
>  <Energy>  (354) 
74.068351340140467

>  <compound_id>  (354) 
644

>  <target_id>  (354) 
1

>  <reference_id>  (354) 
60

>  <inspiration_ids>  (354) 
[60, 113]

>  <energy_score>  (354) 
27.24157648460833

>  <distance_score>  (354) 
4.009001569479784

>  <path>  (354) 
/opt/xchem-fragalysis-2/maxwin/BulkDock/SCRATCH/505733/C644-P60/C644-P60.minimised.mol

>  <scratch_subdir>  (354) 
/opt/xchem-fragalysis-2/maxwin/BulkDock/SCRATCH/505733/C644-P60

>  <fragmenstein_runtime>  (354) 
3.6045992374420166

>  <fragmenstein_outcome>  (354) 
too moved

>  <fragmenstein_mode>  (354) 
expansion

>  <fragmenstein_error>  (354) 


$$$$
C644-P113
     RDKit          3D

 40 40  0  0  0  0  0  0  0  0999 V2000
   14.5655    6.6243   18.5848 C   0  0  0  0  0  0  0  0  0  0  0  0
   15.6618    5.5701   18.5798 C   0  0  0  0  0  0  0  0  0  0  0  0
   15.1333    4.1360   18.6624 C   0  0  0  0  0  0  0  0  0  0  0  0
   14.3206    3.7175   17.4270 C   0  0  0  0  0  0  0  0  0  0  0  0
   13.8390    2.2583   17.5058 C   0  0  0  0  0  0  0  0  0  0  0  0
   14.9533    1.2654   17.1959 C   0  0  0  0  0  0  0  0  0  0  0  0
   15.0919    1.1265   15.6584 C   0  0  0  0  0  0  0  0  0  0  0  0
   15.2970   -0.3454   15.1811 C   0  0  0  0  0  0  0  0  0  0  0  0
   16.3827   -1.0419   16.0320 N   0  0  0  0  0  0  0  0  0  0  0  0
   15.3892   -2.1369   15.9466 C   0  0  0  0  0  0  0  0  0  0  0  0
   14.2807   -1.8956   16.7056 F   0  0  0  0  0  0  0  0  0  0  0  0
   17.7498   -0.9004   15.3983 C   0  0  0  0  0  0  0  0  0  0  0  0
   18.3926    0.3416   15.9746 C   0  0  0  0  0  0  0  0  0  0  0  0
   18.3059   -1.5915   14.6277 O   0  0  0  0  0  0  0  0  0  0  0  0
   13.8291    1.6235   15.0266 N   0  0  0  0  0  0  0  0  0  0  0  0
   13.9546    2.9049   14.3957 O   0  0  0  0  0  0  0  0  0  0  0  0
   12.6195    1.7640   16.2548 S   0  0  0  0  0  0  0  0  0  0  0  0
   11.7017    2.8124   15.8741 O   0  0  0  0  0  0  0  0  0  0  0  0
   12.1587    0.4113   16.4959 O   0  0  0  0  0  0  0  0  0  0  0  0
   13.9556    6.5740   17.6782 H   0  0  0  0  0  0  0  0  0  0  0  0
   15.0076    7.6248   18.6299 H   0  0  0  0  0  0  0  0  0  0  0  0
   13.9088    6.5048   19.4522 H   0  0  0  0  0  0  0  0  0  0  0  0
   16.3176    5.7474   19.4406 H   0  0  0  0  0  0  0  0  0  0  0  0
   16.2791    5.6893   17.6818 H   0  0  0  0  0  0  0  0  0  0  0  0
   15.9926    3.4674   18.7839 H   0  0  0  0  0  0  0  0  0  0  0  0
   14.5164    4.0238   19.5624 H   0  0  0  0  0  0  0  0  0  0  0  0
   14.9226    3.8872   16.5282 H   0  0  0  0  0  0  0  0  0  0  0  0
   13.4401    4.3638   17.3405 H   0  0  0  0  0  0  0  0  0  0  0  0
   13.3903    2.0575   18.4832 H   0  0  0  0  0  0  0  0  0  0  0  0
   15.9084    1.5400   17.6521 H   0  0  0  0  0  0  0  0  0  0  0  0
   14.6782    0.3007   17.6394 H   0  0  0  0  0  0  0  0  0  0  0  0
   15.9273    1.7502   15.3207 H   0  0  0  0  0  0  0  0  0  0  0  0
   14.2701   -0.7418   15.0521 H   0  0  0  0  0  0  0  0  0  0  0  0
   15.6907   -0.2931   14.1520 H   0  0  0  0  0  0  0  0  0  0  0  0
   15.1706   -2.5288   14.9372 H   0  0  0  0  0  0  0  0  0  0  0  0
   15.8923   -2.9814   16.4343 H   0  0  0  0  0  0  0  0  0  0  0  0
   19.4615    0.1543   16.1148 H   0  0  0  0  0  0  0  0  0  0  0  0
   17.9715    0.5997   16.9490 H   0  0  0  0  0  0  0  0  0  0  0  0
   18.2611    1.1743   15.2797 H   0  0  0  0  0  0  0  0  0  0  0  0
   13.0341    3.1868   14.1938 H   0  0  0  0  0  0  0  0  0  0  0  0
  1  2  1  0
  2  3  1  0
  3  4  1  0
  4  5  1  0
  5  6  1  0
  6  7  1  0
  7  8  1  0
  8  9  1  0
  9 10  1  0
 10 11  1  0
  9 12  1  0
 12 13  1  0
 12 14  2  0
  7 15  1  0
 15 16  1  0
 15 17  1  0
 17 18  2  0
 17 19  2  0
 17  5  1  0
  1 20  1  0
  1 21  1  0
  1 22  1  0
  2 23  1  0
  2 24  1  0
  3 25  1  0
  3 26  1  0
  4 27  1  0
  4 28  1  0
  5 29  1  0
  6 30  1  0
  6 31  1  0
  7 32  1  0
  8 33  1  0
  8 34  1  0
 10 35  1  0
 10 36  1  0
 13 37  1  0
 13 38  1  0
 13 39  1  0
 16 40  1  0
M  END
>  <Energy>  (355) 
87.018067859122354

>  <compound_id>  (355) 
644

>  <target_id>  (355) 
1

>  <reference_id>  (355) 
113

>  <inspiration_ids>  (355) 
[60, 113]

>  <energy_score>  (355) 
45.24678626320826

>  <distance_score>  (355) 
4.021926517155756

>  <path>  (355) 
/opt/xchem-fragalysis-2/maxwin/BulkDock/SCRATCH/505733/C644-P113/C644-P113.minimised.mol

>  <scratch_subdir>  (355) 
/opt/xchem-fragalysis-2/maxwin/BulkDock/SCRATCH/505733/C644-P113

>  <fragmenstein_runtime>  (355) 
2.2334930896759033

>  <fragmenstein_outcome>  (355) 
too moved

>  <fragmenstein_mode>  (355) 
expansion

>  <fragmenstein_error>  (355) 


$$$$
C645-P60
     RDKit          3D

 37 38  0  0  0  0  0  0  0  0999 V2000
   15.3458   -0.3050   18.7164 N   0  0  0  0  0  0  0  0  0  0  0  0
   14.1870    0.1222   17.9332 C   0  0  0  0  0  0  0  0  0  0  0  0
   14.2035   -0.2235   16.4520 N   0  0  0  0  0  0  0  0  0  0  0  0
   15.5135   -0.1532   16.0286 O   0  0  0  0  0  0  0  0  0  0  0  0
   13.4387    0.9080   15.7407 C   0  0  0  0  0  0  0  0  0  0  0  0
   14.1273    2.0636   15.3981 O   0  0  0  0  0  0  0  0  0  0  0  0
   12.1196    0.8136   15.5151 C   0  0  0  0  0  0  0  0  0  0  0  0
   11.3517   -0.3583   15.8659 C   0  0  0  0  0  0  0  0  0  0  0  0
    9.3204   -0.2795   15.6866 I   0  0  0  0  0  0  0  0  0  0  0  0
   11.9798   -1.4983   16.2002 C   0  0  0  0  0  0  0  0  0  0  0  0
   13.5007   -1.6061   16.1009 C   0  0  0  0  0  0  0  0  0  0  0  0
   13.6856   -1.9317   14.5876 C   0  0  0  0  0  0  0  0  0  0  0  0
   15.1142   -2.2008   14.1706 C   0  0  0  0  0  0  0  0  0  0  0  0
   15.9195   -3.0645   15.1309 C   0  0  0  0  0  0  0  0  0  0  0  0
   15.5683   -3.0284   16.6132 C   0  0  0  0  0  0  0  0  0  0  0  0
   14.0695   -2.8520   16.8879 C   0  0  0  0  0  0  0  0  0  0  0  0
   13.7360   -2.8199   18.2820 O   0  0  0  0  0  0  0  0  0  0  0  0
   14.2311   -3.9075   19.0522 C   0  0  0  0  0  0  0  0  0  0  0  0
   15.3671   -3.4878   19.6511 F   0  0  0  0  0  0  0  0  0  0  0  0
   13.3438   -4.1908   20.0324 F   0  0  0  0  0  0  0  0  0  0  0  0
   16.1302   -0.1753   18.0626 H   0  0  0  0  0  0  0  0  0  0  0  0
   15.2904   -1.3078   18.8762 H   0  0  0  0  0  0  0  0  0  0  0  0
   14.1699    1.2170   17.9935 H   0  0  0  0  0  0  0  0  0  0  0  0
   13.2576   -0.2388   18.3420 H   0  0  0  0  0  0  0  0  0  0  0  0
   13.5671    2.6413   14.8590 H   0  0  0  0  0  0  0  0  0  0  0  0
   11.5925    1.6362   15.0412 H   0  0  0  0  0  0  0  0  0  0  0  0
   11.4352   -2.4163   16.3904 H   0  0  0  0  0  0  0  0  0  0  0  0
   13.3163   -1.1247   13.9416 H   0  0  0  0  0  0  0  0  0  0  0  0
   13.0602   -2.7940   14.3262 H   0  0  0  0  0  0  0  0  0  0  0  0
   15.6392   -1.2516   14.0168 H   0  0  0  0  0  0  0  0  0  0  0  0
   15.1289   -2.6512   13.1701 H   0  0  0  0  0  0  0  0  0  0  0  0
   15.8717   -4.1095   14.8193 H   0  0  0  0  0  0  0  0  0  0  0  0
   16.9823   -2.8122   15.0178 H   0  0  0  0  0  0  0  0  0  0  0  0
   16.1566   -2.2565   17.1124 H   0  0  0  0  0  0  0  0  0  0  0  0
   15.9322   -3.9587   17.0659 H   0  0  0  0  0  0  0  0  0  0  0  0
   13.5614   -3.7444   16.4924 H   0  0  0  0  0  0  0  0  0  0  0  0
   14.4096   -4.8141   18.4704 H   0  0  0  0  0  0  0  0  0  0  0  0
  1  2  1  0
  2  3  1  0
  3  4  1  0
  3  5  1  0
  5  6  1  0
  5  7  2  0
  7  8  1  0
  8  9  1  0
  8 10  2  0
 10 11  1  0
 11 12  1  0
 12 13  1  0
 13 14  1  0
 14 15  1  0
 15 16  1  0
 16 17  1  0
 17 18  1  0
 18 19  1  0
 18 20  1  0
 11  3  1  0
 16 11  1  0
  1 21  1  0
  1 22  1  0
  2 23  1  0
  2 24  1  0
  6 25  1  0
  7 26  1  0
 10 27  1  0
 12 28  1  0
 12 29  1  0
 13 30  1  0
 13 31  1  0
 14 32  1  0
 14 33  1  0
 15 34  1  0
 15 35  1  0
 16 36  1  0
 18 37  1  0
M  CHG  2   3   1   4  -1
M  END
>  <Energy>  (356) 
80.136723642443243

>  <compound_id>  (356) 
645

>  <target_id>  (356) 
1

>  <reference_id>  (356) 
60

>  <inspiration_ids>  (356) 
[60, 114]

>  <energy_score>  (356) 
-90.60442569852816

>  <distance_score>  (356) 
2.535643397848256

>  <path>  (356) 
/opt/xchem-fragalysis-2/maxwin/BulkDock/SCRATCH/505733/C645-P60/C645-P60.minimised.mol

>  <scratch_subdir>  (356) 
/opt/xchem-fragalysis-2/maxwin/BulkDock/SCRATCH/505733/C645-P60

>  <fragmenstein_runtime>  (356) 
2.243539333343506

>  <fragmenstein_outcome>  (356) 
too moved

>  <fragmenstein_mode>  (356) 
expansion

>  <fragmenstein_error>  (356) 


$$$$
C645-P114
     RDKit          3D

 37 38  0  0  0  0  0  0  0  0999 V2000
   17.4144   -0.9648   16.6297 N   0  0  0  0  0  0  0  0  0  0  0  0
   16.8748   -2.3018   16.8695 C   0  0  0  0  0  0  0  0  0  0  0  0
   15.8028   -2.8974   15.9275 N   0  0  0  0  0  0  0  0  0  0  0  0
   15.5167   -4.1840   16.3500 O   0  0  0  0  0  0  0  0  0  0  0  0
   16.4627   -3.0925   14.6018 C   0  0  0  0  0  0  0  0  0  0  0  0
   17.1703   -4.2667   14.4464 O   0  0  0  0  0  0  0  0  0  0  0  0
   16.4408   -2.1824   13.6244 C   0  0  0  0  0  0  0  0  0  0  0  0
   15.7381   -0.9415   13.7915 C   0  0  0  0  0  0  0  0  0  0  0  0
   16.0316    0.6015   12.4556 I   0  0  0  0  0  0  0  0  0  0  0  0
   14.8682   -0.8194   14.8089 C   0  0  0  0  0  0  0  0  0  0  0  0
   14.5451   -1.9956   15.7962 C   0  0  0  0  0  0  0  0  0  0  0  0
   13.2992   -2.7128   15.1776 C   0  0  0  0  0  0  0  0  0  0  0  0
   11.9346   -2.1142   15.5405 C   0  0  0  0  0  0  0  0  0  0  0  0
   12.0103   -0.6743   16.0212 C   0  0  0  0  0  0  0  0  0  0  0  0
   13.1455   -0.4169   17.0324 C   0  0  0  0  0  0  0  0  0  0  0  0
   14.1132   -1.5882   17.2350 C   0  0  0  0  0  0  0  0  0  0  0  0
   13.4480   -2.6574   17.9581 O   0  0  0  0  0  0  0  0  0  0  0  0
   14.2159   -3.4074   18.9041 C   0  0  0  0  0  0  0  0  0  0  0  0
   14.9012   -2.5440   19.6923 F   0  0  0  0  0  0  0  0  0  0  0  0
   13.3630   -4.0796   19.7185 F   0  0  0  0  0  0  0  0  0  0  0  0
   17.8900   -0.9478   15.7280 H   0  0  0  0  0  0  0  0  0  0  0  0
   16.6911   -0.2547   16.6099 H   0  0  0  0  0  0  0  0  0  0  0  0
   16.5052   -2.3902   17.8912 H   0  0  0  0  0  0  0  0  0  0  0  0
   17.7105   -3.0138   16.8225 H   0  0  0  0  0  0  0  0  0  0  0  0
   16.7182   -4.8364   15.1155 H   0  0  0  0  0  0  0  0  0  0  0  0
   16.9531   -2.3896   12.6895 H   0  0  0  0  0  0  0  0  0  0  0  0
   14.3266    0.1152   14.8762 H   0  0  0  0  0  0  0  0  0  0  0  0
   13.2712   -3.7621   15.4845 H   0  0  0  0  0  0  0  0  0  0  0  0
   13.3626   -2.6852   14.0841 H   0  0  0  0  0  0  0  0  0  0  0  0
   11.2553   -2.1909   14.6842 H   0  0  0  0  0  0  0  0  0  0  0  0
   11.4835   -2.7325   16.3220 H   0  0  0  0  0  0  0  0  0  0  0  0
   11.0447   -0.3700   16.4318 H   0  0  0  0  0  0  0  0  0  0  0  0
   12.1494   -0.0210   15.1510 H   0  0  0  0  0  0  0  0  0  0  0  0
   12.8000   -0.1400   18.0057 H   0  0  0  0  0  0  0  0  0  0  0  0
   13.6837    0.4931   16.7391 H   0  0  0  0  0  0  0  0  0  0  0  0
   14.9132   -1.1775   17.8525 H   0  0  0  0  0  0  0  0  0  0  0  0
   14.8968   -4.1286   18.4651 H   0  0  0  0  0  0  0  0  0  0  0  0
  1  2  1  0
  2  3  1  0
  3  4  1  0
  3  5  1  0
  5  6  1  0
  5  7  2  0
  7  8  1  0
  8  9  1  0
  8 10  2  0
 10 11  1  0
 11 12  1  0
 12 13  1  0
 13 14  1  0
 14 15  1  0
 15 16  1  0
 16 17  1  0
 17 18  1  0
 18 19  1  0
 18 20  1  0
 11  3  1  0
 16 11  1  0
  1 21  1  0
  1 22  1  0
  2 23  1  0
  2 24  1  0
  6 25  1  0
  7 26  1  0
 10 27  1  0
 12 28  1  0
 12 29  1  0
 13 30  1  0
 13 31  1  0
 14 32  1  0
 14 33  1  0
 15 34  1  0
 15 35  1  0
 16 36  1  0
 18 37  1  0
M  CHG  2   3   1   4  -1
M  END
>  <Energy>  (357) 
82.465499360833888

>  <compound_id>  (357) 
645

>  <target_id>  (357) 
1

>  <reference_id>  (357) 
114

>  <inspiration_ids>  (357) 
[60, 114]

>  <energy_score>  (357) 
-88.2756499801364

>  <distance_score>  (357) 
2.2306176547548073

>  <path>  (357) 
/opt/xchem-fragalysis-2/maxwin/BulkDock/SCRATCH/505733/C645-P114/C645-P114.minimised.mol

>  <scratch_subdir>  (357) 
/opt/xchem-fragalysis-2/maxwin/BulkDock/SCRATCH/505733/C645-P114

>  <fragmenstein_runtime>  (357) 
1.78969407081604

>  <fragmenstein_outcome>  (357) 
too moved

>  <fragmenstein_mode>  (357) 
expansion

>  <fragmenstein_error>  (357) 


$$$$
C649-P60
     RDKit          3D

 45 46  0  0  0  0  0  0  0  0999 V2000
   15.5130   -5.2632   23.0398 C   0  0  0  0  0  0  0  0  0  0  0  0
   14.2103   -5.2790   22.2654 C   0  0  0  0  0  0  0  0  0  0  0  0
   14.3628   -4.7712   20.8337 C   0  0  0  0  0  0  0  0  0  0  0  0
   14.7520   -3.2890   20.7476 C   0  0  0  0  0  0  0  0  0  0  0  0
   14.6422   -2.7097   19.3371 C   0  0  0  0  0  0  0  0  0  0  0  0
   15.7292   -3.1240   18.3653 C   0  0  0  0  0  0  0  0  0  0  0  0
   15.0754   -3.0280   17.0958 O   0  0  0  0  0  0  0  0  0  0  0  0
   13.7735   -3.5205   17.4048 C   0  0  0  0  0  0  0  0  0  0  0  0
   13.8861   -4.8800   17.4447 F   0  0  0  0  0  0  0  0  0  0  0  0
   12.6894   -3.1534   16.3594 C   0  0  0  0  0  0  0  0  0  0  0  0
   12.2579   -1.7404   16.2526 N   0  0  0  0  0  0  0  0  0  0  0  0
   13.2384   -0.8536   15.6096 C   0  0  0  0  0  0  0  0  0  0  0  0
   12.3657    0.0005   14.2907 C   0  0  0  0  0  0  0  0  0  0  0  0
   10.8233    1.1044   14.4203 N   0  0  0  0  0  0  0  0  0  0  0  0
   11.1325    2.3065   13.8299 C   0  0  0  0  0  0  0  0  0  0  0  0
   11.6729    3.3157   14.8106 C   0  0  0  0  0  0  0  0  0  0  0  0
   10.9543    2.5892   12.6530 O   0  0  0  0  0  0  0  0  0  0  0  0
   11.4630   -0.0792   14.6293 C   0  0  0  0  0  0  0  0  0  0  0  0
   11.0846   -1.5900   15.3880 C   0  0  0  0  0  0  0  0  0  0  0  0
   13.4218   -3.1215   18.7207 O   0  0  0  0  0  0  0  0  0  0  0  0
   15.8723   -4.2428   23.2019 H   0  0  0  0  0  0  0  0  0  0  0  0
   16.2919   -5.8252   22.5146 H   0  0  0  0  0  0  0  0  0  0  0  0
   15.3710   -5.7226   24.0234 H   0  0  0  0  0  0  0  0  0  0  0  0
   13.8329   -6.3082   22.2326 H   0  0  0  0  0  0  0  0  0  0  0  0
   13.4586   -4.6836   22.7970 H   0  0  0  0  0  0  0  0  0  0  0  0
   13.4007   -4.9348   20.3345 H   0  0  0  0  0  0  0  0  0  0  0  0
   15.1012   -5.3821   20.3016 H   0  0  0  0  0  0  0  0  0  0  0  0
   14.0678   -2.7277   21.3946 H   0  0  0  0  0  0  0  0  0  0  0  0
   15.7638   -3.1260   21.1344 H   0  0  0  0  0  0  0  0  0  0  0  0
   14.6155   -1.6146   19.3959 H   0  0  0  0  0  0  0  0  0  0  0  0
   16.6003   -2.4638   18.3958 H   0  0  0  0  0  0  0  0  0  0  0  0
   16.0653   -4.1568   18.5079 H   0  0  0  0  0  0  0  0  0  0  0  0
   11.8061   -3.7512   16.6151 H   0  0  0  0  0  0  0  0  0  0  0  0
   13.0194   -3.4996   15.3786 H   0  0  0  0  0  0  0  0  0  0  0  0
   14.0752   -1.3697   15.1253 H   0  0  0  0  0  0  0  0  0  0  0  0
   13.6059   -0.0955   16.3106 H   0  0  0  0  0  0  0  0  0  0  0  0
   12.5590   -0.4875   13.2223 H   0  0  0  0  0  0  0  0  0  0  0  0
   13.1479    0.8376   14.1298 H   0  0  0  0  0  0  0  0  0  0  0  0
   11.7891    2.8859   15.8098 H   0  0  0  0  0  0  0  0  0  0  0  0
   12.6505    3.6619   14.4646 H   0  0  0  0  0  0  0  0  0  0  0  0
   10.9804    4.1593   14.8724 H   0  0  0  0  0  0  0  0  0  0  0  0
   10.5901   -0.4658   13.9412 H   0  0  0  0  0  0  0  0  0  0  0  0
   11.1879    0.2670   15.7337 H   0  0  0  0  0  0  0  0  0  0  0  0
   11.0354   -2.3670   14.6122 H   0  0  0  0  0  0  0  0  0  0  0  0
   10.1377   -1.5170   15.9300 H   0  0  0  0  0  0  0  0  0  0  0  0
  1  2  1  0
  2  3  1  0
  3  4  1  0
  4  5  1  0
  5  6  1  0
  6  7  1  0
  7  8  1  0
  8  9  1  0
  8 10  1  0
 10 11  1  0
 11 12  1  0
 12 13  1  0
 13 14  1  0
 14 15  1  0
 15 16  1  0
 15 17  2  0
 14 18  1  0
 18 19  1  0
  8 20  1  0
 20  5  1  0
 19 11  1  0
  1 21  1  0
  1 22  1  0
  1 23  1  0
  2 24  1  0
  2 25  1  0
  3 26  1  0
  3 27  1  0
  4 28  1  0
  4 29  1  0
  5 30  1  0
  6 31  1  0
  6 32  1  0
 10 33  1  0
 10 34  1  0
 12 35  1  0
 12 36  1  0
 13 37  1  0
 13 38  1  0
 16 39  1  0
 16 40  1  0
 16 41  1  0
 18 42  1  0
 18 43  1  0
 19 44  1  0
 19 45  1  0
M  END
>  <Energy>  (358) 
693.99581277787502

>  <compound_id>  (358) 
649

>  <target_id>  (358) 
1

>  <reference_id>  (358) 
60

>  <inspiration_ids>  (358) 
[60, 122]

>  <energy_score>  (358) 
544.7563913938297

>  <distance_score>  (358) 
1.8123127491924391

>  <path>  (358) 
/opt/xchem-fragalysis-2/maxwin/BulkDock/SCRATCH/505733/C649-P60/C649-P60.minimised.mol

>  <scratch_subdir>  (358) 
/opt/xchem-fragalysis-2/maxwin/BulkDock/SCRATCH/505733/C649-P60

>  <fragmenstein_runtime>  (358) 
9.64391565322876

>  <fragmenstein_outcome>  (358) 
too moved

>  <fragmenstein_mode>  (358) 
expansion

>  <fragmenstein_error>  (358) 


$$$$
C649-P122
     RDKit          3D

 45 46  0  0  0  0  0  0  0  0999 V2000
   14.0862   -6.5250   22.1554 C   0  0  0  0  0  0  0  0  0  0  0  0
   14.1370   -5.1259   22.7469 C   0  0  0  0  0  0  0  0  0  0  0  0
   13.9370   -4.0274   21.7051 C   0  0  0  0  0  0  0  0  0  0  0  0
   15.0986   -3.9101   20.7156 C   0  0  0  0  0  0  0  0  0  0  0  0
   14.7917   -2.9210   19.5932 C   0  0  0  0  0  0  0  0  0  0  0  0
   15.9615   -2.7446   18.6427 C   0  0  0  0  0  0  0  0  0  0  0  0
   15.3396   -2.5115   17.3839 O   0  0  0  0  0  0  0  0  0  0  0  0
   14.1953   -3.3589   17.4468 C   0  0  0  0  0  0  0  0  0  0  0  0
   14.6407   -4.6195   17.1820 F   0  0  0  0  0  0  0  0  0  0  0  0
   13.1145   -3.0048   16.3884 C   0  0  0  0  0  0  0  0  0  0  0  0
   12.5012   -1.6534   16.3915 N   0  0  0  0  0  0  0  0  0  0  0  0
   13.4644   -0.5985   16.1305 C   0  0  0  0  0  0  0  0  0  0  0  0
   12.4781    0.6079   15.4112 C   0  0  0  0  0  0  0  0  0  0  0  0
   12.3125    0.6080   13.5884 N   0  0  0  0  0  0  0  0  0  0  0  0
   13.4833    1.1226   13.0853 C   0  0  0  0  0  0  0  0  0  0  0  0
   13.4148    2.6072   12.8415 C   0  0  0  0  0  0  0  0  0  0  0  0
   14.4649    0.4635   12.7746 O   0  0  0  0  0  0  0  0  0  0  0  0
   11.7594    0.2951   14.9251 C   0  0  0  0  0  0  0  0  0  0  0  0
   11.6141   -1.4599   15.2504 C   0  0  0  0  0  0  0  0  0  0  0  0
   13.7132   -3.4068   18.7820 O   0  0  0  0  0  0  0  0  0  0  0  0
   14.9365   -6.7178   21.4954 H   0  0  0  0  0  0  0  0  0  0  0  0
   13.1651   -6.6797   21.5877 H   0  0  0  0  0  0  0  0  0  0  0  0
   14.1169   -7.2712   22.9561 H   0  0  0  0  0  0  0  0  0  0  0  0
   13.3435   -5.0388   23.4989 H   0  0  0  0  0  0  0  0  0  0  0  0
   15.0889   -4.9814   23.2706 H   0  0  0  0  0  0  0  0  0  0  0  0
   13.8340   -3.0717   22.2312 H   0  0  0  0  0  0  0  0  0  0  0  0
   12.9947   -4.2040   21.1733 H   0  0  0  0  0  0  0  0  0  0  0  0
   16.0039   -3.6013   21.2512 H   0  0  0  0  0  0  0  0  0  0  0  0
   15.2956   -4.8909   20.2687 H   0  0  0  0  0  0  0  0  0  0  0  0
   14.4851   -1.9503   19.9990 H   0  0  0  0  0  0  0  0  0  0  0  0
   16.6041   -1.9026   18.9147 H   0  0  0  0  0  0  0  0  0  0  0  0
   16.5821   -3.6447   18.5624 H   0  0  0  0  0  0  0  0  0  0  0  0
   12.3045   -3.7375   16.4924 H   0  0  0  0  0  0  0  0  0  0  0  0
   13.5745   -3.1697   15.4105 H   0  0  0  0  0  0  0  0  0  0  0  0
   13.8847   -0.1987   17.0592 H   0  0  0  0  0  0  0  0  0  0  0  0
   14.2569   -0.8639   15.4186 H   0  0  0  0  0  0  0  0  0  0  0  0
   13.4527    1.2502   15.3290 H   0  0  0  0  0  0  0  0  0  0  0  0
   12.1908    1.5427   16.1494 H   0  0  0  0  0  0  0  0  0  0  0  0
   12.4873    3.0362   13.2326 H   0  0  0  0  0  0  0  0  0  0  0  0
   14.2588    3.0911   13.3404 H   0  0  0  0  0  0  0  0  0  0  0  0
   13.4611    2.7956   11.7652 H   0  0  0  0  0  0  0  0  0  0  0  0
   10.8564    0.0167   14.2416 H   0  0  0  0  0  0  0  0  0  0  0  0
   10.7330    0.9094   15.3050 H   0  0  0  0  0  0  0  0  0  0  0  0
   11.9161   -1.9892   14.3365 H   0  0  0  0  0  0  0  0  0  0  0  0
   10.5744   -1.6832   15.5136 H   0  0  0  0  0  0  0  0  0  0  0  0
  1  2  1  0
  2  3  1  0
  3  4  1  0
  4  5  1  0
  5  6  1  0
  6  7  1  0
  7  8  1  0
  8  9  1  0
  8 10  1  0
 10 11  1  0
 11 12  1  0
 12 13  1  0
 13 14  1  0
 14 15  1  0
 15 16  1  0
 15 17  2  0
 14 18  1  0
 18 19  1  0
  8 20  1  0
 20  5  1  0
 19 11  1  0
  1 21  1  0
  1 22  1  0
  1 23  1  0
  2 24  1  0
  2 25  1  0
  3 26  1  0
  3 27  1  0
  4 28  1  0
  4 29  1  0
  5 30  1  0
  6 31  1  0
  6 32  1  0
 10 33  1  0
 10 34  1  0
 12 35  1  0
 12 36  1  0
 13 37  1  0
 13 38  1  0
 16 39  1  0
 16 40  1  0
 16 41  1  0
 18 42  1  0
 18 43  1  0
 19 44  1  0
 19 45  1  0
M  END
>  <Energy>  (359) 
653.42547629039927

>  <compound_id>  (359) 
649

>  <target_id>  (359) 
1

>  <reference_id>  (359) 
122

>  <inspiration_ids>  (359) 
[60, 122]

>  <energy_score>  (359) 
504.18605490635514

>  <distance_score>  (359) 
1.7104954550549074

>  <path>  (359) 
/opt/xchem-fragalysis-2/maxwin/BulkDock/SCRATCH/505733/C649-P122/C649-P122.minimised.mol

>  <scratch_subdir>  (359) 
/opt/xchem-fragalysis-2/maxwin/BulkDock/SCRATCH/505733/C649-P122

>  <fragmenstein_runtime>  (359) 
10.005922317504883

>  <fragmenstein_outcome>  (359) 
too moved

>  <fragmenstein_mode>  (359) 
expansion

>  <fragmenstein_error>  (359) 


$$$$
C361-P60
     RDKit          3D

 44 47  0  0  0  0  0  0  0  0999 V2000
   11.5645    1.8655   13.5595 N   0  0  0  0  0  0  0  0  0  0  0  0
   10.8322    1.8034   15.0811 S   0  0  0  0  0  0  0  0  0  0  0  0
   10.1374    3.0778   15.1001 O   0  0  0  0  0  0  0  0  0  0  0  0
   10.0626    0.5953   15.2446 O   0  0  0  0  0  0  0  0  0  0  0  0
   12.1906    1.8644   16.2326 C   0  0  0  0  0  0  0  0  0  0  0  0
   12.1835    3.0736   16.9776 C   0  0  0  0  0  0  0  0  0  0  0  0
   13.1332    3.3582   17.9439 C   0  0  0  0  0  0  0  0  0  0  0  0
   14.1261    2.4434   18.1812 C   0  0  0  0  0  0  0  0  0  0  0  0
   14.1571    1.2503   17.4556 C   0  0  0  0  0  0  0  0  0  0  0  0
   13.1954    0.8815   16.4683 C   0  0  0  0  0  0  0  0  0  0  0  0
   13.2252   -0.3700   15.7499 O   0  0  0  0  0  0  0  0  0  0  0  0
   13.8505   -2.2081   15.1965 C   0  0  0  0  0  0  0  0  0  0  0  0
   12.9098   -2.9949   14.5121 F   0  0  0  0  0  0  0  0  0  0  0  0
   14.3169   -3.2370   16.4753 C   0  0  0  0  0  0  0  0  0  0  0  0
   13.0612   -3.2959   17.3240 C   0  0  0  0  0  0  0  0  0  0  0  0
   12.8852   -1.8167   17.0222 C   0  0  0  0  0  0  0  0  0  0  0  0
   11.7368   -1.6089   15.6636 C   0  0  0  0  0  0  0  0  0  0  0  0
   12.3267   -0.9198   14.1162 C   0  0  0  0  0  0  0  0  0  0  0  0
   14.0000   -0.3389   13.9376 C   0  0  0  0  0  0  0  0  0  0  0  0
   15.1543   -0.4576   15.2954 C   0  0  0  0  0  0  0  0  0  0  0  0
   14.6255   -1.2503   16.8367 C   0  0  0  0  0  0  0  0  0  0  0  0
   15.4043   -2.4759   17.1934 C   0  0  0  0  0  0  0  0  0  0  0  0
   15.5875   -2.6527   18.6022 N   0  0  0  0  0  0  0  0  0  0  0  0
   16.9259   -2.6421   18.9236 C   0  0  0  0  0  0  0  0  0  0  0  0
   17.3727   -2.5977   20.0541 O   0  0  0  0  0  0  0  0  0  0  0  0
   17.6482   -2.6624   17.7793 N   0  0  0  0  0  0  0  0  0  0  0  0
   16.8343   -2.5903   16.6911 C   0  0  0  0  0  0  0  0  0  0  0  0
   17.2220   -2.5806   15.5352 O   0  0  0  0  0  0  0  0  0  0  0  0
   12.5636    1.6731   13.6442 H   0  0  0  0  0  0  0  0  0  0  0  0
   11.4174    2.8077   13.1931 H   0  0  0  0  0  0  0  0  0  0  0  0
   11.4050    3.8242   16.8392 H   0  0  0  0  0  0  0  0  0  0  0  0
   13.0769    4.2810   18.5160 H   0  0  0  0  0  0  0  0  0  0  0  0
   14.8850    2.6461   18.9335 H   0  0  0  0  0  0  0  0  0  0  0  0
   15.0163    0.6528   17.7328 H   0  0  0  0  0  0  0  0  0  0  0  0
   14.7044   -2.2258   14.4842 H   0  0  0  0  0  0  0  0  0  0  0  0
   14.6233   -4.2248   16.1206 H   0  0  0  0  0  0  0  0  0  0  0  0
   13.2062   -3.5129   18.3817 H   0  0  0  0  0  0  0  0  0  0  0  0
   12.2675   -3.9077   16.8902 H   0  0  0  0  0  0  0  0  0  0  0  0
   10.7855   -2.1327   15.6437 H   0  0  0  0  0  0  0  0  0  0  0  0
   11.6431   -0.9117   13.2742 H   0  0  0  0  0  0  0  0  0  0  0  0
   14.3459    0.0157   12.9691 H   0  0  0  0  0  0  0  0  0  0  0  0
   16.2096   -0.2679   15.1010 H   0  0  0  0  0  0  0  0  0  0  0  0
   14.9193   -2.4034   19.3231 H   0  0  0  0  0  0  0  0  0  0  0  0
   18.6536   -2.6849   17.7498 H   0  0  0  0  0  0  0  0  0  0  0  0
  1  2  1  0
  2  3  2  0
  2  4  2  0
  2  5  1  0
  5  6  2  0
  6  7  1  0
  7  8  2  0
  8  9  1  0
  9 10  2  0
 10 11  1  0
 11 12  1  0
 12 13  1  0
 12 14  1  0
 14 15  1  0
 15 16  1  0
 16 17  2  0
 17 18  1  0
 18 19  2  0
 19 20  1  0
 20 21  2  0
 21 22  1  0
 22 23  1  0
 23 24  1  0
 24 25  2  0
 24 26  1  0
 26 27  1  0
 27 28  2  0
 10  5  1  0
 22 14  1  0
 21 16  1  0
 27 22  1  0
  1 29  1  0
  1 30  1  0
  6 31  1  0
  7 32  1  0
  8 33  1  0
  9 34  1  0
 12 35  1  0
 14 36  1  0
 15 37  1  0
 15 38  1  0
 17 39  1  0
 18 40  1  0
 19 41  1  0
 20 42  1  0
 23 43  1  0
 26 44  1  0
M  END
>  <Energy>  (360) 
797.50728350220299

>  <compound_id>  (360) 
361

>  <target_id>  (360) 
1

>  <reference_id>  (360) 
60

>  <inspiration_ids>  (360) 
[60, 191]

>  <energy_score>  (360) 
841.6829253082666

>  <distance_score>  (360) 
3.3201266966197998

>  <path>  (360) 
/opt/xchem-fragalysis-2/maxwin/BulkDock/SCRATCH/505733/C361-P60/C361-P60.minimised.mol

>  <scratch_subdir>  (360) 
/opt/xchem-fragalysis-2/maxwin/BulkDock/SCRATCH/505733/C361-P60

>  <fragmenstein_runtime>  (360) 
12.407893180847168

>  <fragmenstein_outcome>  (360) 
too moved

>  <fragmenstein_mode>  (360) 
expansion

>  <fragmenstein_error>  (360) 


$$$$
C361-P191
     RDKit          3D

 44 47  0  0  0  0  0  0  0  0999 V2000
   11.9037   -3.7949   12.7065 N   0  0  0  0  0  0  0  0  0  0  0  0
   11.7852   -3.0412   14.1908 S   0  0  0  0  0  0  0  0  0  0  0  0
   10.4155   -2.6621   14.4400 O   0  0  0  0  0  0  0  0  0  0  0  0
   12.4583   -3.8630   15.1524 O   0  0  0  0  0  0  0  0  0  0  0  0
   12.7176   -1.5954   13.8523 C   0  0  0  0  0  0  0  0  0  0  0  0
   11.9861   -0.4241   13.5984 C   0  0  0  0  0  0  0  0  0  0  0  0
   12.6519    0.7589   13.3557 C   0  0  0  0  0  0  0  0  0  0  0  0
   14.0334    0.7467   13.2870 C   0  0  0  0  0  0  0  0  0  0  0  0
   14.7513   -0.4263   13.5027 C   0  0  0  0  0  0  0  0  0  0  0  0
   14.1168   -1.5932   13.8855 C   0  0  0  0  0  0  0  0  0  0  0  0
   14.8220   -2.6902   14.2709 O   0  0  0  0  0  0  0  0  0  0  0  0
   16.1363   -2.5749   14.8377 C   0  0  0  0  0  0  0  0  0  0  0  0
   16.7168   -3.7874   14.5610 F   0  0  0  0  0  0  0  0  0  0  0  0
   16.2505   -2.4173   16.3703 C   0  0  0  0  0  0  0  0  0  0  0  0
   15.0720   -3.0658   17.1471 C   0  0  0  0  0  0  0  0  0  0  0  0
   14.1071   -1.9203   17.1319 C   0  0  0  0  0  0  0  0  0  0  0  0
   12.7408   -1.9781   17.0887 C   0  0  0  0  0  0  0  0  0  0  0  0
   12.0557   -0.8252   16.7066 C   0  0  0  0  0  0  0  0  0  0  0  0
   12.7108    0.4059   16.5881 C   0  0  0  0  0  0  0  0  0  0  0  0
   14.0795    0.4849   16.7696 C   0  0  0  0  0  0  0  0  0  0  0  0
   14.7682   -0.6995   16.9652 C   0  0  0  0  0  0  0  0  0  0  0  0
   16.2334   -0.9456   16.8251 C   0  0  0  0  0  0  0  0  0  0  0  0
   16.9079    0.0069   15.9717 N   0  0  0  0  0  0  0  0  0  0  0  0
   17.7766    0.7893   16.6927 C   0  0  0  0  0  0  0  0  0  0  0  0
   18.2772    1.8184   16.2795 O   0  0  0  0  0  0  0  0  0  0  0  0
   17.9165    0.2616   17.9221 N   0  0  0  0  0  0  0  0  0  0  0  0
   17.0236   -0.7426   18.1190 C   0  0  0  0  0  0  0  0  0  0  0  0
   16.8980   -1.3502   19.1687 O   0  0  0  0  0  0  0  0  0  0  0  0
   12.4450   -4.6599   12.7658 H   0  0  0  0  0  0  0  0  0  0  0  0
   11.0257   -3.8997   12.2205 H   0  0  0  0  0  0  0  0  0  0  0  0
   10.8995   -0.4240   13.6196 H   0  0  0  0  0  0  0  0  0  0  0  0
   12.1025    1.6777   13.1738 H   0  0  0  0  0  0  0  0  0  0  0  0
   14.5629    1.6599   13.0195 H   0  0  0  0  0  0  0  0  0  0  0  0
   15.8217   -0.3757   13.3369 H   0  0  0  0  0  0  0  0  0  0  0  0
   16.7684   -1.8694   14.2978 H   0  0  0  0  0  0  0  0  0  0  0  0
   17.1888   -2.9010   16.6734 H   0  0  0  0  0  0  0  0  0  0  0  0
   15.3502   -3.3035   18.1790 H   0  0  0  0  0  0  0  0  0  0  0  0
   14.6921   -3.9667   16.6661 H   0  0  0  0  0  0  0  0  0  0  0  0
   12.2296   -2.9234   17.2376 H   0  0  0  0  0  0  0  0  0  0  0  0
   10.9920   -0.8654   16.4964 H   0  0  0  0  0  0  0  0  0  0  0  0
   12.1431    1.3020   16.3461 H   0  0  0  0  0  0  0  0  0  0  0  0
   14.5893    1.4352   16.6466 H   0  0  0  0  0  0  0  0  0  0  0  0
   16.4593    0.4822   15.2013 H   0  0  0  0  0  0  0  0  0  0  0  0
   18.4850    0.6612   18.6496 H   0  0  0  0  0  0  0  0  0  0  0  0
  1  2  1  0
  2  3  2  0
  2  4  2  0
  2  5  1  0
  5  6  2  0
  6  7  1  0
  7  8  2  0
  8  9  1  0
  9 10  2  0
 10 11  1  0
 11 12  1  0
 12 13  1  0
 12 14  1  0
 14 15  1  0
 15 16  1  0
 16 17  2  0
 17 18  1  0
 18 19  2  0
 19 20  1  0
 20 21  2  0
 21 22  1  0
 22 23  1  0
 23 24  1  0
 24 25  2  0
 24 26  1  0
 26 27  1  0
 27 28  2  0
 10  5  1  0
 22 14  1  0
 21 16  1  0
 27 22  1  0
  1 29  1  0
  1 30  1  0
  6 31  1  0
  7 32  1  0
  8 33  1  0
  9 34  1  0
 12 35  1  0
 14 36  1  0
 15 37  1  0
 15 38  1  0
 17 39  1  0
 18 40  1  0
 19 41  1  0
 20 42  1  0
 23 43  1  0
 26 44  1  0
M  END
>  <Energy>  (361) 
-80.185947259426229

>  <compound_id>  (361) 
361

>  <target_id>  (361) 
1

>  <reference_id>  (361) 
191

>  <inspiration_ids>  (361) 
[60, 191]

>  <energy_score>  (361) 
-34.23094435258565

>  <distance_score>  (361) 
2.910503724358691

>  <path>  (361) 
/opt/xchem-fragalysis-2/maxwin/BulkDock/SCRATCH/505733/C361-P191/C361-P191.minimised.mol

>  <scratch_subdir>  (361) 
/opt/xchem-fragalysis-2/maxwin/BulkDock/SCRATCH/505733/C361-P191

>  <fragmenstein_runtime>  (361) 
10.698716878890991

>  <fragmenstein_outcome>  (361) 
too moved

>  <fragmenstein_mode>  (361) 
expansion

>  <fragmenstein_error>  (361) 


$$$$
C478-P61
     RDKit          3D

 51 53  0  0  0  0  0  0  0  0999 V2000
    7.0071    0.2625   17.0191 C   0  0  0  0  0  0  0  0  0  0  0  0
    6.7239    0.2709   15.5243 C   0  0  0  0  0  0  0  0  0  0  0  0
    7.9731    0.0144   14.6804 C   0  0  0  0  0  0  0  0  0  0  0  0
    8.9120    1.2195   14.6014 C   0  0  0  0  0  0  0  0  0  0  0  0
    8.6801    2.2481   15.0987 O   0  0  0  0  0  0  0  0  0  0  0  0
   10.1046    0.7785   13.7182 N   0  0  0  0  0  0  0  0  0  0  0  0
   11.3035    1.4853   13.3445 C   0  0  0  0  0  0  0  0  0  0  0  0
   12.4441    0.5550   13.1528 C   0  0  0  0  0  0  0  0  0  0  0  0
   13.2812    0.5165   12.1294 N   0  0  0  0  0  0  0  0  0  0  0  0
   14.1536   -0.5183   12.3927 C   0  0  0  0  0  0  0  0  0  0  0  0
   15.2014   -1.0349   11.6149 C   0  0  0  0  0  0  0  0  0  0  0  0
   15.9622   -2.0717   12.1581 C   0  0  0  0  0  0  0  0  0  0  0  0
   15.6789   -2.5729   13.4413 C   0  0  0  0  0  0  0  0  0  0  0  0
   14.5980   -2.1194   14.2185 C   0  0  0  0  0  0  0  0  0  0  0  0
   14.0929   -2.7672   15.4638 N   0  0  0  0  0  0  0  0  0  0  0  0
   14.8180   -3.1402   16.7478 S   0  0  0  0  0  0  0  0  0  0  0  0
   16.2238   -3.9444   16.3067 N   0  0  0  0  0  0  0  0  0  0  0  0
   14.3101   -4.1240   17.6790 O   0  0  0  0  0  0  0  0  0  0  0  0
   15.2268   -1.6836   17.6657 C   0  0  0  0  0  0  0  0  0  0  0  0
   14.8256   -1.6113   19.0056 C   0  0  0  0  0  0  0  0  0  0  0  0
   15.0503   -0.4508   19.7427 C   0  0  0  0  0  0  0  0  0  0  0  0
   15.6740    0.6376   19.1465 C   0  0  0  0  0  0  0  0  0  0  0  0
   16.0963    0.5598   17.8208 C   0  0  0  0  0  0  0  0  0  0  0  0
   15.8828   -0.6024   17.0680 C   0  0  0  0  0  0  0  0  0  0  0  0
   16.3335   -0.7426   15.7884 O   0  0  0  0  0  0  0  0  0  0  0  0
   16.4579    0.4568   15.0435 C   0  0  0  0  0  0  0  0  0  0  0  0
   16.6628    0.1435   13.7510 F   0  0  0  0  0  0  0  0  0  0  0  0
   15.2910    1.1279   15.0871 F   0  0  0  0  0  0  0  0  0  0  0  0
   13.8658   -1.0873   13.6298 C   0  0  0  0  0  0  0  0  0  0  0  0
   12.7612   -0.4101   14.0733 N   0  0  0  0  0  0  0  0  0  0  0  0
    7.3842   -0.7137   17.3355 H   0  0  0  0  0  0  0  0  0  0  0  0
    7.7421    1.0230   17.2979 H   0  0  0  0  0  0  0  0  0  0  0  0
    6.0869    0.4621   17.5774 H   0  0  0  0  0  0  0  0  0  0  0  0
    5.9878   -0.5129   15.3097 H   0  0  0  0  0  0  0  0  0  0  0  0
    6.2632    1.2260   15.2464 H   0  0  0  0  0  0  0  0  0  0  0  0
    8.5246   -0.8477   15.0718 H   0  0  0  0  0  0  0  0  0  0  0  0
    7.6476   -0.2096   13.6580 H   0  0  0  0  0  0  0  0  0  0  0  0
    9.9468   -0.1768   13.3816 H   0  0  0  0  0  0  0  0  0  0  0  0
   11.0851    2.0182   12.4138 H   0  0  0  0  0  0  0  0  0  0  0  0
   11.5239    2.2284   14.1167 H   0  0  0  0  0  0  0  0  0  0  0  0
   15.4208   -0.6170   10.6402 H   0  0  0  0  0  0  0  0  0  0  0  0
   16.7908   -2.4894   11.5923 H   0  0  0  0  0  0  0  0  0  0  0  0
   16.3070   -3.3769   13.8089 H   0  0  0  0  0  0  0  0  0  0  0  0
   16.4578   -4.4852   17.1322 H   0  0  0  0  0  0  0  0  0  0  0  0
   15.8885   -4.6338   15.6417 H   0  0  0  0  0  0  0  0  0  0  0  0
   14.3141   -2.4469   19.4823 H   0  0  0  0  0  0  0  0  0  0  0  0
   14.7219   -0.3976   20.7793 H   0  0  0  0  0  0  0  0  0  0  0  0
   15.8439    1.5450   19.7217 H   0  0  0  0  0  0  0  0  0  0  0  0
   16.6060    1.4298   17.4190 H   0  0  0  0  0  0  0  0  0  0  0  0
   17.2889    1.0844   15.3805 H   0  0  0  0  0  0  0  0  0  0  0  0
   12.2802   -0.6008   14.9410 H   0  0  0  0  0  0  0  0  0  0  0  0
  1  2  1  0
  2  3  1  0
  3  4  1  0
  4  5  2  0
  4  6  1  0
  6  7  1  0
  7  8  1  0
  8  9  2  0
  9 10  1  0
 10 11  2  0
 11 12  1  0
 12 13  2  0
 13 14  1  0
 14 15  1  0
 15 16  2  0
 16 17  1  0
 16 18  2  0
 16 19  1  0
 19 20  2  0
 20 21  1  0
 21 22  2  0
 22 23  1  0
 23 24  2  0
 24 25  1  0
 25 26  1  0
 26 27  1  0
 26 28  1  0
 14 29  2  0
 29 30  1  0
 30  8  1  0
 29 10  1  0
 24 19  1  0
  1 31  1  0
  1 32  1  0
  1 33  1  0
  2 34  1  0
  2 35  1  0
  3 36  1  0
  3 37  1  0
  6 38  1  0
  7 39  1  0
  7 40  1  0
 11 41  1  0
 12 42  1  0
 13 43  1  0
 17 44  1  0
 17 45  1  0
 20 46  1  0
 21 47  1  0
 22 48  1  0
 23 49  1  0
 26 50  1  0
 30 51  1  0
M  END
>  <Energy>  (362) 
-75.452116872484879

>  <compound_id>  (362) 
478

>  <target_id>  (362) 
1

>  <reference_id>  (362) 
61

>  <inspiration_ids>  (362) 
[61, 4]

>  <energy_score>  (362) 
-53.977618228696116

>  <distance_score>  (362) 
2.0390254327147677

>  <path>  (362) 
/opt/xchem-fragalysis-2/maxwin/BulkDock/SCRATCH/505733/C478-P61/C478-P61.minimised.mol

>  <scratch_subdir>  (362) 
/opt/xchem-fragalysis-2/maxwin/BulkDock/SCRATCH/505733/C478-P61

>  <fragmenstein_runtime>  (362) 
6.689069509506226

>  <fragmenstein_outcome>  (362) 
too moved

>  <fragmenstein_mode>  (362) 
expansion

>  <fragmenstein_error>  (362) 


$$$$
C478-P4
     RDKit          3D

 51 53  0  0  0  0  0  0  0  0999 V2000
   25.3743    0.1206   11.5309 C   0  0  0  0  0  0  0  0  0  0  0  0
   24.2624   -0.8428   11.1389 C   0  0  0  0  0  0  0  0  0  0  0  0
   23.9279   -1.8369   12.2511 C   0  0  0  0  0  0  0  0  0  0  0  0
   23.2864   -1.1752   13.4713 C   0  0  0  0  0  0  0  0  0  0  0  0
   23.9307   -1.0453   14.4712 O   0  0  0  0  0  0  0  0  0  0  0  0
   21.9337   -0.8198   13.1790 N   0  0  0  0  0  0  0  0  0  0  0  0
   20.9551   -0.1134   13.9568 C   0  0  0  0  0  0  0  0  0  0  0  0
   19.6106   -0.5405   13.4937 C   0  0  0  0  0  0  0  0  0  0  0  0
   19.0893   -0.3540   12.2932 N   0  0  0  0  0  0  0  0  0  0  0  0
   17.8484   -0.9451   12.3333 C   0  0  0  0  0  0  0  0  0  0  0  0
   16.8699   -1.0507   11.3356 C   0  0  0  0  0  0  0  0  0  0  0  0
   15.6831   -1.7283   11.6364 C   0  0  0  0  0  0  0  0  0  0  0  0
   15.4744   -2.2800   12.9058 C   0  0  0  0  0  0  0  0  0  0  0  0
   16.4400   -2.1757   13.9138 C   0  0  0  0  0  0  0  0  0  0  0  0
   16.3027   -2.7614   15.2547 N   0  0  0  0  0  0  0  0  0  0  0  0
   15.1030   -2.4394   16.1333 S   0  0  0  0  0  0  0  0  0  0  0  0
   15.1189   -3.8651   17.0200 N   0  0  0  0  0  0  0  0  0  0  0  0
   13.7149   -2.3543   15.7459 O   0  0  0  0  0  0  0  0  0  0  0  0
   15.4420   -1.0705   17.1769 C   0  0  0  0  0  0  0  0  0  0  0  0
   15.4764   -1.2394   18.5650 C   0  0  0  0  0  0  0  0  0  0  0  0
   15.6750   -0.1320   19.3899 C   0  0  0  0  0  0  0  0  0  0  0  0
   15.8452    1.1346   18.8309 C   0  0  0  0  0  0  0  0  0  0  0  0
   15.8147    1.2996   17.4457 C   0  0  0  0  0  0  0  0  0  0  0  0
   15.5918    0.2000   16.6164 C   0  0  0  0  0  0  0  0  0  0  0  0
   15.6478    0.3881   15.2665 O   0  0  0  0  0  0  0  0  0  0  0  0
   14.3982    0.7923   14.7226 C   0  0  0  0  0  0  0  0  0  0  0  0
   14.1622    2.0774   15.0772 F   0  0  0  0  0  0  0  0  0  0  0  0
   14.5311    0.7803   13.3740 F   0  0  0  0  0  0  0  0  0  0  0  0
   17.6128   -1.5068   13.5794 C   0  0  0  0  0  0  0  0  0  0  0  0
   18.7500   -1.2448   14.2967 N   0  0  0  0  0  0  0  0  0  0  0  0
   25.0746    0.7501   12.3745 H   0  0  0  0  0  0  0  0  0  0  0  0
   26.2851   -0.4214   11.8100 H   0  0  0  0  0  0  0  0  0  0  0  0
   25.6172    0.7794   10.6894 H   0  0  0  0  0  0  0  0  0  0  0  0
   23.3753   -0.2666   10.8486 H   0  0  0  0  0  0  0  0  0  0  0  0
   24.5837   -1.4027   10.2523 H   0  0  0  0  0  0  0  0  0  0  0  0
   23.2409   -2.6053   11.8732 H   0  0  0  0  0  0  0  0  0  0  0  0
   24.8325   -2.3670   12.5782 H   0  0  0  0  0  0  0  0  0  0  0  0
   21.7479   -1.0036   12.1988 H   0  0  0  0  0  0  0  0  0  0  0  0
   21.0996    0.9584   13.7849 H   0  0  0  0  0  0  0  0  0  0  0  0
   21.1263   -0.3192   15.0187 H   0  0  0  0  0  0  0  0  0  0  0  0
   17.0408   -0.6183   10.3566 H   0  0  0  0  0  0  0  0  0  0  0  0
   14.9166   -1.8268   10.8738 H   0  0  0  0  0  0  0  0  0  0  0  0
   14.5442   -2.8064   13.0948 H   0  0  0  0  0  0  0  0  0  0  0  0
   15.8223   -4.3803   16.4925 H   0  0  0  0  0  0  0  0  0  0  0  0
   14.2259   -4.2839   16.7694 H   0  0  0  0  0  0  0  0  0  0  0  0
   15.3411   -2.2190   19.0182 H   0  0  0  0  0  0  0  0  0  0  0  0
   15.6999   -0.2584   20.4709 H   0  0  0  0  0  0  0  0  0  0  0  0
   16.0137    1.9939   19.4763 H   0  0  0  0  0  0  0  0  0  0  0  0
   15.9723    2.2870   17.0165 H   0  0  0  0  0  0  0  0  0  0  0  0
   13.5612    0.1509   15.0086 H   0  0  0  0  0  0  0  0  0  0  0  0
   18.9099   -1.5493   15.2473 H   0  0  0  0  0  0  0  0  0  0  0  0
  1  2  1  0
  2  3  1  0
  3  4  1  0
  4  5  2  0
  4  6  1  0
  6  7  1  0
  7  8  1  0
  8  9  2  0
  9 10  1  0
 10 11  2  0
 11 12  1  0
 12 13  2  0
 13 14  1  0
 14 15  1  0
 15 16  2  0
 16 17  1  0
 16 18  2  0
 16 19  1  0
 19 20  2  0
 20 21  1  0
 21 22  2  0
 22 23  1  0
 23 24  2  0
 24 25  1  0
 25 26  1  0
 26 27  1  0
 26 28  1  0
 14 29  2  0
 29 30  1  0
 30  8  1  0
 29 10  1  0
 24 19  1  0
  1 31  1  0
  1 32  1  0
  1 33  1  0
  2 34  1  0
  2 35  1  0
  3 36  1  0
  3 37  1  0
  6 38  1  0
  7 39  1  0
  7 40  1  0
 11 41  1  0
 12 42  1  0
 13 43  1  0
 17 44  1  0
 17 45  1  0
 20 46  1  0
 21 47  1  0
 22 48  1  0
 23 49  1  0
 26 50  1  0
 30 51  1  0
M  END
>  <Energy>  (363) 
-109.46273552483467

>  <compound_id>  (363) 
478

>  <target_id>  (363) 
1

>  <reference_id>  (363) 
4

>  <inspiration_ids>  (363) 
[61, 4]

>  <energy_score>  (363) 
-58.40227983934125

>  <distance_score>  (363) 
2.197164305313425

>  <path>  (363) 
/opt/xchem-fragalysis-2/maxwin/BulkDock/SCRATCH/505733/C478-P4/C478-P4.minimised.mol

>  <scratch_subdir>  (363) 
/opt/xchem-fragalysis-2/maxwin/BulkDock/SCRATCH/505733/C478-P4

>  <fragmenstein_runtime>  (363) 
8.72328495979309

>  <fragmenstein_outcome>  (363) 
too moved

>  <fragmenstein_mode>  (363) 
expansion

>  <fragmenstein_error>  (363) 


$$$$
C653-P61
     RDKit          3D

 29 30  0  0  0  0  0  0  0  0999 V2000
   15.8170   -4.4044   17.0239 N   0  0  0  0  0  0  0  0  0  0  0  0
   14.4837   -3.5018   17.5484 S   0  0  0  0  0  0  0  0  0  0  0  0
   14.3151   -4.0754   18.8661 O   0  0  0  0  0  0  0  0  0  0  0  0
   13.5573   -3.7215   16.3553 N   0  0  0  0  0  0  0  0  0  0  0  0
   12.5111   -2.7853   16.0352 C   0  0  0  0  0  0  0  0  0  0  0  0
   11.6944   -2.8970   14.9442 C   0  0  0  0  0  0  0  0  0  0  0  0
   11.0430   -1.7004   14.8526 N   0  0  0  0  0  0  0  0  0  0  0  0
   11.4943   -0.9232   15.8761 C   0  0  0  0  0  0  0  0  0  0  0  0
   12.3452   -1.5751   16.6367 N   0  0  0  0  0  0  0  0  0  0  0  0
   15.0556   -1.8269   17.7004 C   0  0  0  0  0  0  0  0  0  0  0  0
   15.0703   -1.2513   18.9789 C   0  0  0  0  0  0  0  0  0  0  0  0
   15.4643    0.0744   19.1375 C   0  0  0  0  0  0  0  0  0  0  0  0
   15.8374    0.8219   18.0238 C   0  0  0  0  0  0  0  0  0  0  0  0
   15.8261    0.2463   16.7485 C   0  0  0  0  0  0  0  0  0  0  0  0
   15.4387   -1.0856   16.5700 C   0  0  0  0  0  0  0  0  0  0  0  0
   15.4226   -1.7248   15.3652 O   0  0  0  0  0  0  0  0  0  0  0  0
   15.4166   -0.9677   14.1696 C   0  0  0  0  0  0  0  0  0  0  0  0
   14.4398   -0.0278   14.2038 F   0  0  0  0  0  0  0  0  0  0  0  0
   16.6060   -0.3374   14.0234 F   0  0  0  0  0  0  0  0  0  0  0  0
   15.4533   -4.8308   16.1782 H   0  0  0  0  0  0  0  0  0  0  0  0
   15.8921   -5.1384   17.7161 H   0  0  0  0  0  0  0  0  0  0  0  0
   11.5538   -3.6492   14.1915 H   0  0  0  0  0  0  0  0  0  0  0  0
   10.3914   -1.4405   14.1141 H   0  0  0  0  0  0  0  0  0  0  0  0
   11.1786    0.1030   16.0063 H   0  0  0  0  0  0  0  0  0  0  0  0
   14.7633   -1.8249   19.8517 H   0  0  0  0  0  0  0  0  0  0  0  0
   15.4724    0.5244   20.1272 H   0  0  0  0  0  0  0  0  0  0  0  0
   16.1429    1.8585   18.1453 H   0  0  0  0  0  0  0  0  0  0  0  0
   16.1365    0.8672   15.9133 H   0  0  0  0  0  0  0  0  0  0  0  0
   15.2507   -1.6258   13.3126 H   0  0  0  0  0  0  0  0  0  0  0  0
  1  2  1  0
  2  3  2  0
  2  4  2  0
  4  5  1  0
  5  6  2  0
  6  7  1  0
  7  8  1  0
  8  9  2  0
  2 10  1  0
 10 11  2  0
 11 12  1  0
 12 13  2  0
 13 14  1  0
 14 15  2  0
 15 16  1  0
 16 17  1  0
 17 18  1  0
 17 19  1  0
  9  5  1  0
 15 10  1  0
  1 20  1  0
  1 21  1  0
  6 22  1  0
  7 23  1  0
  8 24  1  0
 11 25  1  0
 12 26  1  0
 13 27  1  0
 14 28  1  0
 17 29  1  0
M  END
>  <Energy>  (364) 
-114.18290326586798

>  <compound_id>  (364) 
653

>  <target_id>  (364) 
1

>  <reference_id>  (364) 
61

>  <inspiration_ids>  (364) 
[61, 6]

>  <energy_score>  (364) 
-47.10242195340423

>  <distance_score>  (364) 
1.075455541410255

>  <path>  (364) 
/opt/xchem-fragalysis-2/maxwin/BulkDock/SCRATCH/505733/C653-P61/C653-P61.minimised.mol

>  <scratch_subdir>  (364) 
/opt/xchem-fragalysis-2/maxwin/BulkDock/SCRATCH/505733/C653-P61

>  <fragmenstein_runtime>  (364) 
2.6636502742767334

>  <fragmenstein_outcome>  (364) 
too moved

>  <fragmenstein_mode>  (364) 
expansion

>  <fragmenstein_error>  (364) 


$$$$
C653-P6
     RDKit          3D

 29 30  0  0  0  0  0  0  0  0999 V2000
   15.8671   -4.1851   17.1099 N   0  0  0  0  0  0  0  0  0  0  0  0
   14.4927   -3.2970   17.5974 S   0  0  0  0  0  0  0  0  0  0  0  0
   14.2858   -3.7970   18.9384 O   0  0  0  0  0  0  0  0  0  0  0  0
   13.6078   -3.5256   16.3796 N   0  0  0  0  0  0  0  0  0  0  0  0
   12.4854   -2.6815   16.0878 C   0  0  0  0  0  0  0  0  0  0  0  0
   11.5808   -2.9416   15.0963 C   0  0  0  0  0  0  0  0  0  0  0  0
   10.9129   -1.7668   14.9013 N   0  0  0  0  0  0  0  0  0  0  0  0
   11.4188   -0.8674   15.7925 C   0  0  0  0  0  0  0  0  0  0  0  0
   12.3503   -1.4067   16.5458 N   0  0  0  0  0  0  0  0  0  0  0  0
   15.0531   -1.6131   17.7003 C   0  0  0  0  0  0  0  0  0  0  0  0
   15.0452   -0.9881   18.9535 C   0  0  0  0  0  0  0  0  0  0  0  0
   15.4553    0.3365   19.0633 C   0  0  0  0  0  0  0  0  0  0  0  0
   15.8680    1.0291   17.9272 C   0  0  0  0  0  0  0  0  0  0  0  0
   15.8821    0.3998   16.6776 C   0  0  0  0  0  0  0  0  0  0  0  0
   15.4763   -0.9304   16.5496 C   0  0  0  0  0  0  0  0  0  0  0  0
   15.5060   -1.6303   15.3786 O   0  0  0  0  0  0  0  0  0  0  0  0
   15.3962   -0.9213   14.1553 C   0  0  0  0  0  0  0  0  0  0  0  0
   14.4159    0.0118   14.2199 F   0  0  0  0  0  0  0  0  0  0  0  0
   16.5674   -0.2871   13.9104 F   0  0  0  0  0  0  0  0  0  0  0  0
   16.6701   -3.6775   17.4570 H   0  0  0  0  0  0  0  0  0  0  0  0
   15.8548   -4.0640   16.1010 H   0  0  0  0  0  0  0  0  0  0  0  0
   11.4041   -3.7898   14.4614 H   0  0  0  0  0  0  0  0  0  0  0  0
   10.2278   -1.5911   14.1678 H   0  0  0  0  0  0  0  0  0  0  0  0
   11.0879    0.1619   15.8278 H   0  0  0  0  0  0  0  0  0  0  0  0
   14.7098   -1.5199   19.8426 H   0  0  0  0  0  0  0  0  0  0  0  0
   15.4443    0.8310   20.0319 H   0  0  0  0  0  0  0  0  0  0  0  0
   16.1857    2.0661   18.0127 H   0  0  0  0  0  0  0  0  0  0  0  0
   16.2289    0.9744   15.8233 H   0  0  0  0  0  0  0  0  0  0  0  0
   15.1825   -1.6154   13.3381 H   0  0  0  0  0  0  0  0  0  0  0  0
  1  2  1  0
  2  3  2  0
  2  4  2  0
  4  5  1  0
  5  6  2  0
  6  7  1  0
  7  8  1  0
  8  9  2  0
  2 10  1  0
 10 11  2  0
 11 12  1  0
 12 13  2  0
 13 14  1  0
 14 15  2  0
 15 16  1  0
 16 17  1  0
 17 18  1  0
 17 19  1  0
  9  5  1  0
 15 10  1  0
  1 20  1  0
  1 21  1  0
  6 22  1  0
  7 23  1  0
  8 24  1  0
 11 25  1  0
 12 26  1  0
 13 27  1  0
 14 28  1  0
 17 29  1  0
M  END
>  <Energy>  (365) 
-110.13849162448201

>  <compound_id>  (365) 
653

>  <target_id>  (365) 
1

>  <reference_id>  (365) 
6

>  <inspiration_ids>  (365) 
[61, 6]

>  <energy_score>  (365) 
-43.058010312018965

>  <distance_score>  (365) 
1.1240152789678775

>  <path>  (365) 
/opt/xchem-fragalysis-2/maxwin/BulkDock/SCRATCH/505733/C653-P6/C653-P6.minimised.mol

>  <scratch_subdir>  (365) 
/opt/xchem-fragalysis-2/maxwin/BulkDock/SCRATCH/505733/C653-P6

>  <fragmenstein_runtime>  (365) 
2.3833439350128174

>  <fragmenstein_outcome>  (365) 
too moved

>  <fragmenstein_mode>  (365) 
expansion

>  <fragmenstein_error>  (365) 


$$$$
C654-P61
     RDKit          3D

 29 30  0  0  0  0  0  0  0  0999 V2000
   16.8427   -4.2509   17.8744 N   0  0  0  0  0  0  0  0  0  0  0  0
   15.3092   -3.6682   17.4669 S   0  0  0  0  0  0  0  0  0  0  0  0
   15.2067   -3.9349   16.0502 O   0  0  0  0  0  0  0  0  0  0  0  0
   14.4331   -4.2699   18.4492 O   0  0  0  0  0  0  0  0  0  0  0  0
   15.4721   -1.9214   17.7809 C   0  0  0  0  0  0  0  0  0  0  0  0
   15.9767   -1.5692   19.0435 C   0  0  0  0  0  0  0  0  0  0  0  0
   16.2539   -0.2413   19.3349 C   0  0  0  0  0  0  0  0  0  0  0  0
   16.7617    0.0408   20.5670 O   0  0  0  0  0  0  0  0  0  0  0  0
   16.0378    0.7543   18.3953 C   0  0  0  0  0  0  0  0  0  0  0  0
   15.5054    0.4109   17.1529 C   0  0  0  0  0  0  0  0  0  0  0  0
   15.1901   -0.9261   16.8205 C   0  0  0  0  0  0  0  0  0  0  0  0
   14.4872   -1.1225   15.6144 N   0  0  0  0  0  0  0  0  0  0  0  0
   13.2889   -1.7565   15.5328 C   0  0  0  0  0  0  0  0  0  0  0  0
   12.4443   -1.7999   14.4455 C   0  0  0  0  0  0  0  0  0  0  0  0
   11.2216   -2.9503   14.7415 S   0  0  0  0  0  0  0  0  0  0  0  0
   11.9261   -3.3077   16.2420 C   0  0  0  0  0  0  0  0  0  0  0  0
   12.8534   -2.4681   16.6254 N   0  0  0  0  0  0  0  0  0  0  0  0
   15.2443   -0.9215   14.3876 C   0  0  0  0  0  0  0  0  0  0  0  0
   14.6481    0.0618   13.6594 F   0  0  0  0  0  0  0  0  0  0  0  0
   16.5127   -0.4887   14.6231 F   0  0  0  0  0  0  0  0  0  0  0  0
   16.7663   -4.8290   18.7123 H   0  0  0  0  0  0  0  0  0  0  0  0
   17.5460   -3.5192   17.9598 H   0  0  0  0  0  0  0  0  0  0  0  0
   16.1523   -2.3249   19.8055 H   0  0  0  0  0  0  0  0  0  0  0  0
   16.8163    1.0054   20.6719 H   0  0  0  0  0  0  0  0  0  0  0  0
   16.2540    1.7956   18.6120 H   0  0  0  0  0  0  0  0  0  0  0  0
   15.2879    1.2072   16.4418 H   0  0  0  0  0  0  0  0  0  0  0  0
   12.5003   -1.2789   13.5021 H   0  0  0  0  0  0  0  0  0  0  0  0
   11.6087   -4.1394   16.8549 H   0  0  0  0  0  0  0  0  0  0  0  0
   15.3076   -1.8291   13.7770 H   0  0  0  0  0  0  0  0  0  0  0  0
  1  2  1  0
  2  3  2  0
  2  4  2  0
  2  5  1  0
  5  6  2  0
  6  7  1  0
  7  8  1  0
  7  9  2  0
  9 10  1  0
 10 11  2  0
 11 12  1  0
 12 13  1  0
 13 14  2  0
 14 15  1  0
 15 16  1  0
 16 17  2  0
 12 18  1  0
 18 19  1  0
 18 20  1  0
 11  5  1  0
 17 13  1  0
  1 21  1  0
  1 22  1  0
  6 23  1  0
  8 24  1  0
  9 25  1  0
 10 26  1  0
 14 27  1  0
 16 28  1  0
 18 29  1  0
M  END
>  <Energy>  (366) 
-80.469552565218891

>  <compound_id>  (366) 
654

>  <target_id>  (366) 
1

>  <reference_id>  (366) 
61

>  <inspiration_ids>  (366) 
[61, 10]

>  <energy_score>  (366) 
-116.38852139241952

>  <distance_score>  (366) 
0.7432316458176793

>  <path>  (366) 
/opt/xchem-fragalysis-2/maxwin/BulkDock/SCRATCH/505733/C654-P61/C654-P61.minimised.mol

>  <scratch_subdir>  (366) 
/opt/xchem-fragalysis-2/maxwin/BulkDock/SCRATCH/505733/C654-P61

>  <fragmenstein_runtime>  (366) 
2.4146976470947266

>  <fragmenstein_outcome>  (366) 
acceptable

>  <fragmenstein_mode>  (366) 
expansion

>  <fragmenstein_error>  (366) 


$$$$
C654-P10
     RDKit          3D

 29 30  0  0  0  0  0  0  0  0999 V2000
   16.8309   -4.2129   17.9639 N   0  0  0  0  0  0  0  0  0  0  0  0
   15.3065   -3.6362   17.5190 S   0  0  0  0  0  0  0  0  0  0  0  0
   15.2263   -3.9294   16.1070 O   0  0  0  0  0  0  0  0  0  0  0  0
   14.4104   -4.2096   18.4992 O   0  0  0  0  0  0  0  0  0  0  0  0
   15.4633   -1.8829   17.7994 C   0  0  0  0  0  0  0  0  0  0  0  0
   15.9496   -1.5089   19.0634 C   0  0  0  0  0  0  0  0  0  0  0  0
   16.2240   -0.1769   19.3370 C   0  0  0  0  0  0  0  0  0  0  0  0
   16.7150    0.1251   20.5709 O   0  0  0  0  0  0  0  0  0  0  0  0
   16.0216    0.8024   18.3781 C   0  0  0  0  0  0  0  0  0  0  0  0
   15.5055    0.4382   17.1344 C   0  0  0  0  0  0  0  0  0  0  0  0
   15.1936   -0.9041   16.8184 C   0  0  0  0  0  0  0  0  0  0  0  0
   14.5080   -1.1166   15.6049 N   0  0  0  0  0  0  0  0  0  0  0  0
   13.3133   -1.7539   15.5074 C   0  0  0  0  0  0  0  0  0  0  0  0
   12.4758   -1.7868   14.4140 C   0  0  0  0  0  0  0  0  0  0  0  0
   11.2628   -2.9548   14.6834 S   0  0  0  0  0  0  0  0  0  0  0  0
   11.9661   -3.3312   16.1784 C   0  0  0  0  0  0  0  0  0  0  0  0
   12.8724   -2.4795   16.5858 N   0  0  0  0  0  0  0  0  0  0  0  0
   15.2772   -0.9171   14.3843 C   0  0  0  0  0  0  0  0  0  0  0  0
   14.6848    0.0659   13.6518 F   0  0  0  0  0  0  0  0  0  0  0  0
   16.5417   -0.4801   14.6317 F   0  0  0  0  0  0  0  0  0  0  0  0
   16.7379   -4.7772   18.8093 H   0  0  0  0  0  0  0  0  0  0  0  0
   17.5354   -3.4825   18.0471 H   0  0  0  0  0  0  0  0  0  0  0  0
   16.1138   -2.2518   19.8408 H   0  0  0  0  0  0  0  0  0  0  0  0
   16.7823    1.0907   20.6576 H   0  0  0  0  0  0  0  0  0  0  0  0
   16.2375    1.8468   18.5797 H   0  0  0  0  0  0  0  0  0  0  0  0
   15.3014    1.2230   16.4068 H   0  0  0  0  0  0  0  0  0  0  0  0
   12.5364   -1.2533   13.4781 H   0  0  0  0  0  0  0  0  0  0  0  0
   11.6622   -4.1830   16.7702 H   0  0  0  0  0  0  0  0  0  0  0  0
   15.3475   -1.8250   13.7748 H   0  0  0  0  0  0  0  0  0  0  0  0
  1  2  1  0
  2  3  2  0
  2  4  2  0
  2  5  1  0
  5  6  2  0
  6  7  1  0
  7  8  1  0
  7  9  2  0
  9 10  1  0
 10 11  2  0
 11 12  1  0
 12 13  1  0
 13 14  2  0
 14 15  1  0
 15 16  1  0
 16 17  2  0
 12 18  1  0
 18 19  1  0
 18 20  1  0
 11  5  1  0
 17 13  1  0
  1 21  1  0
  1 22  1  0
  6 23  1  0
  8 24  1  0
  9 25  1  0
 10 26  1  0
 14 27  1  0
 16 28  1  0
 18 29  1  0
M  END
>  <Energy>  (367) 
-79.711128224842213

>  <compound_id>  (367) 
654

>  <target_id>  (367) 
1

>  <reference_id>  (367) 
10

>  <inspiration_ids>  (367) 
[61, 10]

>  <energy_score>  (367) 
-115.63009705204304

>  <distance_score>  (367) 
0.7430735131769134

>  <path>  (367) 
/opt/xchem-fragalysis-2/maxwin/BulkDock/SCRATCH/505733/C654-P10/C654-P10.minimised.mol

>  <scratch_subdir>  (367) 
/opt/xchem-fragalysis-2/maxwin/BulkDock/SCRATCH/505733/C654-P10

>  <fragmenstein_runtime>  (367) 
2.5525405406951904

>  <fragmenstein_outcome>  (367) 
acceptable

>  <fragmenstein_mode>  (367) 
expansion

>  <fragmenstein_error>  (367) 


$$$$
C655-P61
     RDKit          3D

 55 57  0  0  0  0  0  0  0  0999 V2000
   15.6537   -2.3807   11.7027 C   0  0  0  0  0  0  0  0  0  0  0  0
   15.6270   -0.9009   11.8086 C   0  0  0  0  0  0  0  0  0  0  0  0
   15.5313   -0.1959   12.9460 C   0  0  0  0  0  0  0  0  0  0  0  0
   15.3724   -0.5655   14.2625 N   0  0  0  0  0  0  0  0  0  0  0  0
   16.5282   -0.9926   15.0086 C   0  0  0  0  0  0  0  0  0  0  0  0
   17.6440   -0.8264   14.2571 F   0  0  0  0  0  0  0  0  0  0  0  0
   16.3319   -2.3458   15.2819 O   0  0  0  0  0  0  0  0  0  0  0  0
   17.3505   -3.0735   15.9440 C   0  0  0  0  0  0  0  0  0  0  0  0
   16.7717   -4.4857   15.9782 C   0  0  0  0  0  0  0  0  0  0  0  0
   18.6575   -3.1211   15.1377 C   0  0  0  0  0  0  0  0  0  0  0  0
   17.6411   -2.5821   17.3790 C   0  0  0  0  0  0  0  0  0  0  0  0
   16.4956   -2.6243   18.2168 O   0  0  0  0  0  0  0  0  0  0  0  0
   14.3134    0.0884   15.0778 C   0  0  0  0  0  0  0  0  0  0  0  0
   13.8962   -0.7119   16.3285 C   0  0  0  0  0  0  0  0  0  0  0  0
   14.5083   -0.1936   17.6321 C   0  0  0  0  0  0  0  0  0  0  0  0
   14.3139    1.3018   17.8686 C   0  0  0  0  0  0  0  0  0  0  0  0
   13.9638    2.0887   16.6032 C   0  0  0  0  0  0  0  0  0  0  0  0
   14.7164    1.5405   15.4066 C   0  0  0  0  0  0  0  0  0  0  0  0
   14.5940    2.4883   13.9092 S   0  0  0  0  0  0  0  0  0  0  0  0
   15.0636    4.0860   14.0508 N   0  0  0  0  0  0  0  0  0  0  0  0
   13.0206    2.4897   13.5893 O   0  0  0  0  0  0  0  0  0  0  0  0
   15.6627    1.4814   12.5556 S   0  0  0  0  0  4  0  0  0  0  0  0
   15.0723    1.2999   10.9211 C   0  0  0  0  0  0  0  0  0  0  0  0
   15.6491   -0.0719   10.5394 C   0  0  0  0  0  0  0  0  0  0  0  0
   14.7713   -2.7432   11.1686 H   0  0  0  0  0  0  0  0  0  0  0  0
   16.5475   -2.7055   11.1609 H   0  0  0  0  0  0  0  0  0  0  0  0
   15.6722   -2.8482   12.6887 H   0  0  0  0  0  0  0  0  0  0  0  0
   16.6908   -0.4153   15.9172 H   0  0  0  0  0  0  0  0  0  0  0  0
   17.4261   -5.1808   16.5154 H   0  0  0  0  0  0  0  0  0  0  0  0
   16.6256   -4.8754   14.9653 H   0  0  0  0  0  0  0  0  0  0  0  0
   15.7863   -4.5028   16.4586 H   0  0  0  0  0  0  0  0  0  0  0  0
   19.1984   -2.1706   15.1937 H   0  0  0  0  0  0  0  0  0  0  0  0
   19.3334   -3.8953   15.5177 H   0  0  0  0  0  0  0  0  0  0  0  0
   18.4600   -3.3209   14.0785 H   0  0  0  0  0  0  0  0  0  0  0  0
   18.4154   -3.2055   17.8409 H   0  0  0  0  0  0  0  0  0  0  0  0
   18.0040   -1.5494   17.3709 H   0  0  0  0  0  0  0  0  0  0  0  0
   16.7798   -2.4184   19.1235 H   0  0  0  0  0  0  0  0  0  0  0  0
   13.4128    0.0943   14.4467 H   0  0  0  0  0  0  0  0  0  0  0  0
   14.0853   -1.7839   16.2132 H   0  0  0  0  0  0  0  0  0  0  0  0
   12.8057   -0.6216   16.4342 H   0  0  0  0  0  0  0  0  0  0  0  0
   15.5811   -0.3898   17.6445 H   0  0  0  0  0  0  0  0  0  0  0  0
   14.1041   -0.7540   18.4814 H   0  0  0  0  0  0  0  0  0  0  0  0
   13.5302    1.4689   18.6130 H   0  0  0  0  0  0  0  0  0  0  0  0
   15.2326    1.7101   18.3085 H   0  0  0  0  0  0  0  0  0  0  0  0
   14.1911    3.1492   16.7601 H   0  0  0  0  0  0  0  0  0  0  0  0
   12.8831    2.0326   16.4210 H   0  0  0  0  0  0  0  0  0  0  0  0
   15.7868    1.5943   15.6475 H   0  0  0  0  0  0  0  0  0  0  0  0
   15.6072    4.3731   13.2372 H   0  0  0  0  0  0  0  0  0  0  0  0
   15.6883    4.2176   14.8457 H   0  0  0  0  0  0  0  0  0  0  0  0
   12.6115    3.3854   13.6452 H   0  0  0  0  0  0  0  0  0  0  0  0
   16.9689    1.8326   12.5702 H   0  0  0  0  0  0  0  0  0  0  0  0
   13.9792    1.3067   10.9377 H   0  0  0  0  0  0  0  0  0  0  0  0
   15.4545    2.1049   10.2918 H   0  0  0  0  0  0  0  0  0  0  0  0
   15.0791   -0.5311    9.7317 H   0  0  0  0  0  0  0  0  0  0  0  0
   16.6869    0.0260   10.1981 H   0  0  0  0  0  0  0  0  0  0  0  0
  1  2  1  0
  2  3  2  0
  3  4  1  0
  4  5  1  0
  5  6  1  0
  5  7  1  0
  7  8  1  0
  8  9  1  0
  8 10  1  0
  8 11  1  0
 11 12  1  0
  4 13  1  0
 13 14  1  0
 14 15  1  0
 15 16  1  0
 16 17  1  0
 17 18  1  0
 18 19  1  0
 19 20  1  0
 19 21  1  0
 19 22  1  0
 22 23  1  0
 23 24  1  0
 24  2  1  0
 22  3  1  0
 18 13  1  0
  1 25  1  0
  1 26  1  0
  1 27  1  0
  5 28  1  0
  9 29  1  0
  9 30  1  0
  9 31  1  0
 10 32  1  0
 10 33  1  0
 10 34  1  0
 11 35  1  0
 11 36  1  0
 12 37  1  0
 13 38  1  0
 14 39  1  0
 14 40  1  0
 15 41  1  0
 15 42  1  0
 16 43  1  0
 16 44  1  0
 17 45  1  0
 17 46  1  0
 18 47  1  0
 20 48  1  0
 20 49  1  0
 21 50  1  0
 22 51  1  0
 23 52  1  0
 23 53  1  0
 24 54  1  0
 24 55  1  0
M  END
>  <Energy>  (368) 
-4.4229548266727878

>  <compound_id>  (368) 
655

>  <target_id>  (368) 
1

>  <reference_id>  (368) 
61

>  <inspiration_ids>  (368) 
[61, 12]

>  <energy_score>  (368) 
-109.37205900171946

>  <distance_score>  (368) 
2.0481256836152877

>  <path>  (368) 
/opt/xchem-fragalysis-2/maxwin/BulkDock/SCRATCH/505733/C655-P61/C655-P61.minimised.mol

>  <scratch_subdir>  (368) 
/opt/xchem-fragalysis-2/maxwin/BulkDock/SCRATCH/505733/C655-P61

>  <fragmenstein_runtime>  (368) 
19.23617935180664

>  <fragmenstein_outcome>  (368) 
too moved

>  <fragmenstein_mode>  (368) 
expansion

>  <fragmenstein_error>  (368) 


$$$$
C655-P12
     RDKit          3D

 55 57  0  0  0  0  0  0  0  0999 V2000
   15.2988   -1.9194   11.0914 C   0  0  0  0  0  0  0  0  0  0  0  0
   16.1205   -0.7584   11.5211 C   0  0  0  0  0  0  0  0  0  0  0  0
   16.1713   -0.2585   12.7630 C   0  0  0  0  0  0  0  0  0  0  0  0
   15.4791   -0.5785   13.9051 N   0  0  0  0  0  0  0  0  0  0  0  0
   15.8257   -1.8133   14.5508 C   0  0  0  0  0  0  0  0  0  0  0  0
   14.6777   -2.4084   14.9081 F   0  0  0  0  0  0  0  0  0  0  0  0
   16.5369   -1.5852   15.7388 O   0  0  0  0  0  0  0  0  0  0  0  0
   17.3985   -2.6432   16.1538 C   0  0  0  0  0  0  0  0  0  0  0  0
   16.8144   -4.0393   15.9164 C   0  0  0  0  0  0  0  0  0  0  0  0
   18.7352   -2.4887   15.4140 C   0  0  0  0  0  0  0  0  0  0  0  0
   17.6446   -2.4313   17.6647 C   0  0  0  0  0  0  0  0  0  0  0  0
   16.4819   -2.7094   18.4379 O   0  0  0  0  0  0  0  0  0  0  0  0
   14.9279    0.5043   14.7734 C   0  0  0  0  0  0  0  0  0  0  0  0
   13.8169    0.0747   15.7471 C   0  0  0  0  0  0  0  0  0  0  0  0
   14.2619   -0.0547   17.2008 C   0  0  0  0  0  0  0  0  0  0  0  0
   15.0370    1.1514   17.7391 C   0  0  0  0  0  0  0  0  0  0  0  0
   15.5250    2.1135   16.6506 C   0  0  0  0  0  0  0  0  0  0  0  0
   16.0394    1.3346   15.4531 C   0  0  0  0  0  0  0  0  0  0  0  0
   16.8475    2.2881   14.1919 S   0  0  0  0  0  0  0  0  0  0  0  0
   18.1229    3.2285   14.7158 N   0  0  0  0  0  0  0  0  0  0  0  0
   15.6967    3.2841   13.6743 O   0  0  0  0  0  0  0  0  0  0  0  0
   17.3850    0.9566   12.8061 S   0  0  0  0  0  4  0  0  0  0  0  0
   17.2662    1.3680   11.1130 C   0  0  0  0  0  0  0  0  0  0  0  0
   16.9064    0.0168   10.4757 C   0  0  0  0  0  0  0  0  0  0  0  0
   14.5978   -2.2495   11.8634 H   0  0  0  0  0  0  0  0  0  0  0  0
   14.7193   -1.6532   10.2078 H   0  0  0  0  0  0  0  0  0  0  0  0
   15.9501   -2.7614   10.8418 H   0  0  0  0  0  0  0  0  0  0  0  0
   16.3553   -2.4779   13.8606 H   0  0  0  0  0  0  0  0  0  0  0  0
   17.4060   -4.8053   16.4307 H   0  0  0  0  0  0  0  0  0  0  0  0
   16.8045   -4.3119   14.8578 H   0  0  0  0  0  0  0  0  0  0  0  0
   15.7829   -4.1046   16.2767 H   0  0  0  0  0  0  0  0  0  0  0  0
   19.1494   -1.4853   15.5666 H   0  0  0  0  0  0  0  0  0  0  0  0
   19.4710   -3.2248   15.7544 H   0  0  0  0  0  0  0  0  0  0  0  0
   18.6110   -2.6092   14.3324 H   0  0  0  0  0  0  0  0  0  0  0  0
   18.4458   -3.0839   18.0280 H   0  0  0  0  0  0  0  0  0  0  0  0
   17.9264   -1.3896   17.8581 H   0  0  0  0  0  0  0  0  0  0  0  0
   16.6343   -2.3533   19.3299 H   0  0  0  0  0  0  0  0  0  0  0  0
   14.3939    1.1608   14.0706 H   0  0  0  0  0  0  0  0  0  0  0  0
   13.2877   -0.8231   15.4156 H   0  0  0  0  0  0  0  0  0  0  0  0
   13.0488    0.8624   15.7323 H   0  0  0  0  0  0  0  0  0  0  0  0
   14.8613   -0.9574   17.3282 H   0  0  0  0  0  0  0  0  0  0  0  0
   13.3818   -0.2131   17.8272 H   0  0  0  0  0  0  0  0  0  0  0  0
   14.4098    1.7087   18.4455 H   0  0  0  0  0  0  0  0  0  0  0  0
   15.8953    0.7875   18.3176 H   0  0  0  0  0  0  0  0  0  0  0  0
   16.3047    2.7630   17.0639 H   0  0  0  0  0  0  0  0  0  0  0  0
   14.7057    2.7754   16.3437 H   0  0  0  0  0  0  0  0  0  0  0  0
   16.8468    0.6911   15.8183 H   0  0  0  0  0  0  0  0  0  0  0  0
   18.2765    3.1226   15.7163 H   0  0  0  0  0  0  0  0  0  0  0  0
   17.8908    4.2119   14.5824 H   0  0  0  0  0  0  0  0  0  0  0  0
   15.2495    3.0060   12.8400 H   0  0  0  0  0  0  0  0  0  0  0  0
   18.5794    0.3885   13.0903 H   0  0  0  0  0  0  0  0  0  0  0  0
   16.4747    2.1106   10.9839 H   0  0  0  0  0  0  0  0  0  0  0  0
   18.2196    1.7587   10.7537 H   0  0  0  0  0  0  0  0  0  0  0  0
   16.3242    0.1777    9.5628 H   0  0  0  0  0  0  0  0  0  0  0  0
   17.8108   -0.5449   10.2152 H   0  0  0  0  0  0  0  0  0  0  0  0
  1  2  1  0
  2  3  2  0
  3  4  1  0
  4  5  1  0
  5  6  1  0
  5  7  1  0
  7  8  1  0
  8  9  1  0
  8 10  1  0
  8 11  1  0
 11 12  1  0
  4 13  1  0
 13 14  1  0
 14 15  1  0
 15 16  1  0
 16 17  1  0
 17 18  1  0
 18 19  1  0
 19 20  1  0
 19 21  1  0
 19 22  1  0
 22 23  1  0
 23 24  1  0
 24  2  1  0
 22  3  1  0
 18 13  1  0
  1 25  1  0
  1 26  1  0
  1 27  1  0
  5 28  1  0
  9 29  1  0
  9 30  1  0
  9 31  1  0
 10 32  1  0
 10 33  1  0
 10 34  1  0
 11 35  1  0
 11 36  1  0
 12 37  1  0
 13 38  1  0
 14 39  1  0
 14 40  1  0
 15 41  1  0
 15 42  1  0
 16 43  1  0
 16 44  1  0
 17 45  1  0
 17 46  1  0
 18 47  1  0
 20 48  1  0
 20 49  1  0
 21 50  1  0
 22 51  1  0
 23 52  1  0
 23 53  1  0
 24 54  1  0
 24 55  1  0
M  END
>  <Energy>  (369) 
-7.4513619297583595

>  <compound_id>  (369) 
655

>  <target_id>  (369) 
1

>  <reference_id>  (369) 
12

>  <inspiration_ids>  (369) 
[61, 12]

>  <energy_score>  (369) 
-112.40046610480528

>  <distance_score>  (369) 
2.1568160321326513

>  <path>  (369) 
/opt/xchem-fragalysis-2/maxwin/BulkDock/SCRATCH/505733/C655-P12/C655-P12.minimised.mol

>  <scratch_subdir>  (369) 
/opt/xchem-fragalysis-2/maxwin/BulkDock/SCRATCH/505733/C655-P12

>  <fragmenstein_runtime>  (369) 
19.1003520488739

>  <fragmenstein_outcome>  (369) 
too moved

>  <fragmenstein_mode>  (369) 
expansion

>  <fragmenstein_error>  (369) 


$$$$
C653-P61
     RDKit          3D

 29 30  0  0  0  0  0  0  0  0999 V2000
   15.6753   -4.3579   16.9404 N   0  0  0  0  0  0  0  0  0  0  0  0
   14.3813   -3.3959   17.4792 S   0  0  0  0  0  0  0  0  0  0  0  0
   14.1171   -3.9734   18.7772 O   0  0  0  0  0  0  0  0  0  0  0  0
   13.5072   -3.5058   16.2357 N   0  0  0  0  0  0  0  0  0  0  0  0
   12.4602   -2.5625   15.9419 C   0  0  0  0  0  0  0  0  0  0  0  0
   11.5759   -2.7440   14.9145 C   0  0  0  0  0  0  0  0  0  0  0  0
   10.9093   -1.5579   14.7929 N   0  0  0  0  0  0  0  0  0  0  0  0
   11.4327   -0.7118   15.7261 C   0  0  0  0  0  0  0  0  0  0  0  0
   12.3505   -1.3071   16.4593 N   0  0  0  0  0  0  0  0  0  0  0  0
   15.0381   -1.7582   17.6823 C   0  0  0  0  0  0  0  0  0  0  0  0
   15.0357   -1.1942   18.9637 C   0  0  0  0  0  0  0  0  0  0  0  0
   15.4843    0.1115   19.1421 C   0  0  0  0  0  0  0  0  0  0  0  0
   15.9299    0.8472   18.0457 C   0  0  0  0  0  0  0  0  0  0  0  0
   15.9413    0.2787   16.7675 C   0  0  0  0  0  0  0  0  0  0  0  0
   15.4974   -1.0312   16.5715 C   0  0  0  0  0  0  0  0  0  0  0  0
   15.5236   -1.6730   15.3665 O   0  0  0  0  0  0  0  0  0  0  0  0
   15.4257   -0.9012   14.1799 C   0  0  0  0  0  0  0  0  0  0  0  0
   14.4565    0.0393   14.2844 F   0  0  0  0  0  0  0  0  0  0  0  0
   16.6048   -0.2716   13.9647 F   0  0  0  0  0  0  0  0  0  0  0  0
   15.1822   -5.0298   16.3612 H   0  0  0  0  0  0  0  0  0  0  0  0
   16.1534   -3.7755   16.2619 H   0  0  0  0  0  0  0  0  0  0  0  0
   11.3914   -3.5592   14.2371 H   0  0  0  0  0  0  0  0  0  0  0  0
   10.2148   -1.3465   14.0766 H   0  0  0  0  0  0  0  0  0  0  0  0
   11.1188    0.3196   15.8147 H   0  0  0  0  0  0  0  0  0  0  0  0
   14.6736   -1.7594   19.8210 H   0  0  0  0  0  0  0  0  0  0  0  0
   15.4787    0.5566   20.1343 H   0  0  0  0  0  0  0  0  0  0  0  0
   16.2784    1.8679   18.1859 H   0  0  0  0  0  0  0  0  0  0  0  0
   16.3172    0.8819   15.9462 H   0  0  0  0  0  0  0  0  0  0  0  0
   15.2052   -1.5528   13.3301 H   0  0  0  0  0  0  0  0  0  0  0  0
  1  2  1  0
  2  3  2  0
  2  4  2  0
  4  5  1  0
  5  6  2  0
  6  7  1  0
  7  8  1  0
  8  9  2  0
  2 10  1  0
 10 11  2  0
 11 12  1  0
 12 13  2  0
 13 14  1  0
 14 15  2  0
 15 16  1  0
 16 17  1  0
 17 18  1  0
 17 19  1  0
  9  5  1  0
 15 10  1  0
  1 20  1  0
  1 21  1  0
  6 22  1  0
  7 23  1  0
  8 24  1  0
 11 25  1  0
 12 26  1  0
 13 27  1  0
 14 28  1  0
 17 29  1  0
M  END
>  <Energy>  (370) 
-112.82100093235798

>  <compound_id>  (370) 
653

>  <target_id>  (370) 
1

>  <reference_id>  (370) 
61

>  <inspiration_ids>  (370) 
[61, 15]

>  <energy_score>  (370) 
-43.11124728671588

>  <distance_score>  (370) 
0.6100838456835372

>  <path>  (370) 
/opt/xchem-fragalysis-2/maxwin/BulkDock/SCRATCH/505733/C653-P61/C653-P61.minimised.mol

>  <scratch_subdir>  (370) 
/opt/xchem-fragalysis-2/maxwin/BulkDock/SCRATCH/505733/C653-P61

>  <fragmenstein_runtime>  (370) 
1.1281228065490723

>  <fragmenstein_outcome>  (370) 
acceptable

>  <fragmenstein_mode>  (370) 
expansion

>  <fragmenstein_error>  (370) 


$$$$
C653-P15
     RDKit          3D

 29 30  0  0  0  0  0  0  0  0999 V2000
   15.6839   -4.3763   16.9550 N   0  0  0  0  0  0  0  0  0  0  0  0
   14.3872   -3.4156   17.4892 S   0  0  0  0  0  0  0  0  0  0  0  0
   14.1270   -3.9861   18.7912 O   0  0  0  0  0  0  0  0  0  0  0  0
   13.5057   -3.5365   16.2516 N   0  0  0  0  0  0  0  0  0  0  0  0
   12.4636   -2.5900   15.9491 C   0  0  0  0  0  0  0  0  0  0  0  0
   11.5934   -2.7646   14.9082 C   0  0  0  0  0  0  0  0  0  0  0  0
   10.9221   -1.5806   14.7917 N   0  0  0  0  0  0  0  0  0  0  0  0
   11.4287   -0.7429   15.7416 C   0  0  0  0  0  0  0  0  0  0  0  0
   12.3387   -1.3424   16.4811 N   0  0  0  0  0  0  0  0  0  0  0  0
   15.0388   -1.7743   17.6820 C   0  0  0  0  0  0  0  0  0  0  0  0
   15.0399   -1.2061   18.9619 C   0  0  0  0  0  0  0  0  0  0  0  0
   15.4836    0.1019   19.1351 C   0  0  0  0  0  0  0  0  0  0  0  0
   15.9216    0.8361   18.0351 C   0  0  0  0  0  0  0  0  0  0  0  0
   15.9295    0.2640   16.7584 C   0  0  0  0  0  0  0  0  0  0  0  0
   15.4899   -1.0485   16.5672 C   0  0  0  0  0  0  0  0  0  0  0  0
   15.5097   -1.6920   15.3629 O   0  0  0  0  0  0  0  0  0  0  0  0
   15.4217   -0.9215   14.1746 C   0  0  0  0  0  0  0  0  0  0  0  0
   14.4534    0.0208   14.2727 F   0  0  0  0  0  0  0  0  0  0  0  0
   16.6031   -0.2943   13.9652 F   0  0  0  0  0  0  0  0  0  0  0  0
   15.1952   -5.1190   16.4680 H   0  0  0  0  0  0  0  0  0  0  0  0
   16.0936   -3.8351   16.2015 H   0  0  0  0  0  0  0  0  0  0  0  0
   11.4218   -3.5736   14.2199 H   0  0  0  0  0  0  0  0  0  0  0  0
   10.2343   -1.3633   14.0705 H   0  0  0  0  0  0  0  0  0  0  0  0
   11.1078    0.2856   15.8372 H   0  0  0  0  0  0  0  0  0  0  0  0
   14.6840   -1.7701   19.8226 H   0  0  0  0  0  0  0  0  0  0  0  0
   15.4796    0.5498   20.1261 H   0  0  0  0  0  0  0  0  0  0  0  0
   16.2662    1.8587   18.1710 H   0  0  0  0  0  0  0  0  0  0  0  0
   16.2988    0.8674   15.9344 H   0  0  0  0  0  0  0  0  0  0  0  0
   15.2047   -1.5736   13.3244 H   0  0  0  0  0  0  0  0  0  0  0  0
  1  2  1  0
  2  3  2  0
  2  4  2  0
  4  5  1  0
  5  6  2  0
  6  7  1  0
  7  8  1  0
  8  9  2  0
  2 10  1  0
 10 11  2  0
 11 12  1  0
 12 13  2  0
 13 14  1  0
 14 15  2  0
 15 16  1  0
 16 17  1  0
 17 18  1  0
 17 19  1  0
  9  5  1  0
 15 10  1  0
  1 20  1  0
  1 21  1  0
  6 22  1  0
  7 23  1  0
  8 24  1  0
 11 25  1  0
 12 26  1  0
 13 27  1  0
 14 28  1  0
 17 29  1  0
M  END
>  <Energy>  (371) 
-113.11386585809865

>  <compound_id>  (371) 
653

>  <target_id>  (371) 
1

>  <reference_id>  (371) 
15

>  <inspiration_ids>  (371) 
[61, 15]

>  <energy_score>  (371) 
-43.40411221245655

>  <distance_score>  (371) 
0.6030732994726554

>  <path>  (371) 
/opt/xchem-fragalysis-2/maxwin/BulkDock/SCRATCH/505733/C653-P15/C653-P15.minimised.mol

>  <scratch_subdir>  (371) 
/opt/xchem-fragalysis-2/maxwin/BulkDock/SCRATCH/505733/C653-P15

>  <fragmenstein_runtime>  (371) 
1.0227246284484863

>  <fragmenstein_outcome>  (371) 
acceptable

>  <fragmenstein_mode>  (371) 
expansion

>  <fragmenstein_error>  (371) 


$$$$
C656-P61
     RDKit          3D

 29 30  0  0  0  0  0  0  0  0999 V2000
   15.8519   -4.4283   16.6903 N   0  0  0  0  0  0  0  0  0  0  0  0
   14.5946   -3.5408   17.3701 S   0  0  0  0  0  0  0  0  0  0  0  0
   14.3415   -4.2345   18.6107 O   0  0  0  0  0  0  0  0  0  0  0  0
   13.6549   -3.4839   16.1701 N   0  0  0  0  0  0  0  0  0  0  0  0
   12.5704   -2.5202   15.9953 C   0  0  0  0  0  0  0  0  0  0  0  0
   11.5523   -2.6312   15.0848 C   0  0  0  0  0  0  0  0  0  0  0  0
   10.8689   -1.4028   15.1660 C   0  0  0  0  0  0  0  0  0  0  0  0
   11.3979   -0.5721   16.0664 N   0  0  0  0  0  0  0  0  0  0  0  0
   12.4429   -1.2729   16.5341 N   0  0  0  0  0  0  0  0  0  0  0  0
   15.2488   -1.9263   17.7354 C   0  0  0  0  0  0  0  0  0  0  0  0
   15.2797   -1.5169   19.0745 C   0  0  0  0  0  0  0  0  0  0  0  0
   15.7206   -0.2357   19.3977 C   0  0  0  0  0  0  0  0  0  0  0  0
   16.1434    0.6287   18.3914 C   0  0  0  0  0  0  0  0  0  0  0  0
   16.1179    0.2214   17.0560 C   0  0  0  0  0  0  0  0  0  0  0  0
   15.6440   -1.0495   16.7098 C   0  0  0  0  0  0  0  0  0  0  0  0
   15.5336   -1.4734   15.4140 O   0  0  0  0  0  0  0  0  0  0  0  0
   15.3136   -0.4553   14.4473 C   0  0  0  0  0  0  0  0  0  0  0  0
   14.6469   -0.9963   13.4048 F   0  0  0  0  0  0  0  0  0  0  0  0
   16.5222   -0.0529   13.9913 F   0  0  0  0  0  0  0  0  0  0  0  0
   15.3483   -5.1817   16.2342 H   0  0  0  0  0  0  0  0  0  0  0  0
   16.1573   -3.8682   15.8989 H   0  0  0  0  0  0  0  0  0  0  0  0
   11.3430   -3.4577   14.4255 H   0  0  0  0  0  0  0  0  0  0  0  0
    9.9970   -1.0724   14.6193 H   0  0  0  0  0  0  0  0  0  0  0  0
   13.0227   -0.8308   17.2326 H   0  0  0  0  0  0  0  0  0  0  0  0
   14.9603   -2.1866   19.8730 H   0  0  0  0  0  0  0  0  0  0  0  0
   15.7490    0.0810   20.4388 H   0  0  0  0  0  0  0  0  0  0  0  0
   16.5130    1.6191   18.6505 H   0  0  0  0  0  0  0  0  0  0  0  0
   16.4972    0.9161   16.3096 H   0  0  0  0  0  0  0  0  0  0  0  0
   14.7328    0.3991   14.8124 H   0  0  0  0  0  0  0  0  0  0  0  0
  1  2  1  0
  2  3  2  0
  2  4  2  0
  4  5  1  0
  5  6  2  0
  6  7  1  0
  7  8  2  0
  8  9  1  0
  2 10  1  0
 10 11  2  0
 11 12  1  0
 12 13  2  0
 13 14  1  0
 14 15  2  0
 15 16  1  0
 16 17  1  0
 17 18  1  0
 17 19  1  0
  9  5  1  0
 15 10  1  0
  1 20  1  0
  1 21  1  0
  6 22  1  0
  7 23  1  0
  9 24  1  0
 11 25  1  0
 12 26  1  0
 13 27  1  0
 14 28  1  0
 17 29  1  0
M  END
>  <Energy>  (372) 
-41.98357004577845

>  <compound_id>  (372) 
656

>  <target_id>  (372) 
1

>  <reference_id>  (372) 
61

>  <inspiration_ids>  (372) 
[61, 20]

>  <energy_score>  (372) 
-34.275776315212454

>  <distance_score>  (372) 
0.8091692127794451

>  <path>  (372) 
/opt/xchem-fragalysis-2/maxwin/BulkDock/SCRATCH/505733/C656-P61/C656-P61.minimised.mol

>  <scratch_subdir>  (372) 
/opt/xchem-fragalysis-2/maxwin/BulkDock/SCRATCH/505733/C656-P61

>  <fragmenstein_runtime>  (372) 
1.5665512084960938

>  <fragmenstein_outcome>  (372) 
acceptable

>  <fragmenstein_mode>  (372) 
expansion

>  <fragmenstein_error>  (372) 


$$$$
C656-P20
     RDKit          3D

 29 30  0  0  0  0  0  0  0  0999 V2000
   15.9617   -4.2865   16.8116 N   0  0  0  0  0  0  0  0  0  0  0  0
   14.6538   -3.4207   17.4278 S   0  0  0  0  0  0  0  0  0  0  0  0
   14.3598   -4.0941   18.6701 O   0  0  0  0  0  0  0  0  0  0  0  0
   13.7714   -3.4083   16.1862 N   0  0  0  0  0  0  0  0  0  0  0  0
   12.6185   -2.5415   15.9806 C   0  0  0  0  0  0  0  0  0  0  0  0
   11.4859   -2.8767   15.2899 C   0  0  0  0  0  0  0  0  0  0  0  0
   10.7329   -1.6901   15.2534 C   0  0  0  0  0  0  0  0  0  0  0  0
   11.3333   -0.6697   15.8659 N   0  0  0  0  0  0  0  0  0  0  0  0
   12.5003   -1.2104   16.2537 N   0  0  0  0  0  0  0  0  0  0  0  0
   15.2536   -1.7835   17.7806 C   0  0  0  0  0  0  0  0  0  0  0  0
   15.2494   -1.3524   19.1118 C   0  0  0  0  0  0  0  0  0  0  0  0
   15.6812   -0.0656   19.4223 C   0  0  0  0  0  0  0  0  0  0  0  0
   16.1323    0.7800   18.4118 C   0  0  0  0  0  0  0  0  0  0  0  0
   16.1434    0.3498   17.0833 C   0  0  0  0  0  0  0  0  0  0  0  0
   15.6776   -0.9256   16.7492 C   0  0  0  0  0  0  0  0  0  0  0  0
   15.6000   -1.3770   15.4615 O   0  0  0  0  0  0  0  0  0  0  0  0
   15.4371   -0.3923   14.4505 C   0  0  0  0  0  0  0  0  0  0  0  0
   14.7070   -0.9309   13.4503 F   0  0  0  0  0  0  0  0  0  0  0  0
   16.6620   -0.1039   13.9580 F   0  0  0  0  0  0  0  0  0  0  0  0
   15.5186   -4.7808   16.0414 H   0  0  0  0  0  0  0  0  0  0  0  0
   16.5442   -3.6134   16.3260 H   0  0  0  0  0  0  0  0  0  0  0  0
   11.2296   -3.8333   14.8681 H   0  0  0  0  0  0  0  0  0  0  0  0
    9.7499   -1.5300   14.8363 H   0  0  0  0  0  0  0  0  0  0  0  0
   13.1564   -0.6092   16.7291 H   0  0  0  0  0  0  0  0  0  0  0  0
   14.9127   -2.0092   19.9141 H   0  0  0  0  0  0  0  0  0  0  0  0
   15.6815    0.2699   20.4579 H   0  0  0  0  0  0  0  0  0  0  0  0
   16.4957    1.7746   18.6644 H   0  0  0  0  0  0  0  0  0  0  0  0
   16.5466    1.0304   16.3365 H   0  0  0  0  0  0  0  0  0  0  0  0
   14.9286    0.5206   14.7787 H   0  0  0  0  0  0  0  0  0  0  0  0
  1  2  1  0
  2  3  2  0
  2  4  2  0
  4  5  1  0
  5  6  2  0
  6  7  1  0
  7  8  2  0
  8  9  1  0
  2 10  1  0
 10 11  2  0
 11 12  1  0
 12 13  2  0
 13 14  1  0
 14 15  2  0
 15 16  1  0
 16 17  1  0
 17 18  1  0
 17 19  1  0
  9  5  1  0
 15 10  1  0
  1 20  1  0
  1 21  1  0
  6 22  1  0
  7 23  1  0
  9 24  1  0
 11 25  1  0
 12 26  1  0
 13 27  1  0
 14 28  1  0
 17 29  1  0
M  END
>  <Energy>  (373) 
-39.55767195865262

>  <compound_id>  (373) 
656

>  <target_id>  (373) 
1

>  <reference_id>  (373) 
20

>  <inspiration_ids>  (373) 
[61, 20]

>  <energy_score>  (373) 
-31.849878228087583

>  <distance_score>  (373) 
0.8142929981487804

>  <path>  (373) 
/opt/xchem-fragalysis-2/maxwin/BulkDock/SCRATCH/505733/C656-P20/C656-P20.minimised.mol

>  <scratch_subdir>  (373) 
/opt/xchem-fragalysis-2/maxwin/BulkDock/SCRATCH/505733/C656-P20

>  <fragmenstein_runtime>  (373) 
1.560072660446167

>  <fragmenstein_outcome>  (373) 
acceptable

>  <fragmenstein_mode>  (373) 
expansion

>  <fragmenstein_error>  (373) 


$$$$
C657-P61
     RDKit          3D

 50 51  0  0  0  0  0  0  0  0999 V2000
   19.8743   -5.4211   16.8052 C   0  0  0  0  0  0  0  0  0  0  0  0
   18.5056   -4.7795   16.5879 C   0  0  0  0  0  0  0  0  0  0  0  0
   18.0465   -5.0424   15.1454 C   0  0  0  0  0  0  0  0  0  0  0  0
   18.7927   -4.1938   14.1174 C   0  0  0  0  0  0  0  0  0  0  0  0
   19.4100   -2.9310   14.7059 C   0  0  0  0  0  0  0  0  0  0  0  0
   18.6169   -2.3583   15.7778 N   0  0  0  0  0  0  0  0  0  0  0  0
   17.6024   -1.0218   15.5491 S   0  0  0  0  0  0  0  0  0  0  0  0
   18.5156    0.2219   14.6741 C   0  0  0  0  0  0  0  0  0  0  0  0
   17.3856   -0.5359   16.8899 O   0  0  0  0  0  0  0  0  0  0  0  0
   16.4771   -1.5421   14.6572 N   0  0  0  0  0  0  0  0  0  0  0  0
   15.2417   -0.7579   14.6802 C   0  0  0  0  0  0  0  0  0  0  0  0
   14.6921   -0.8446   13.4389 F   0  0  0  0  0  0  0  0  0  0  0  0
   14.2220   -1.2240   15.5710 O   0  0  0  0  0  0  0  0  0  0  0  0
   14.4379   -0.8668   16.8732 C   0  0  0  0  0  0  0  0  0  0  0  0
   14.5810    0.4821   17.2293 C   0  0  0  0  0  0  0  0  0  0  0  0
   14.9302    0.8324   18.5345 C   0  0  0  0  0  0  0  0  0  0  0  0
   15.0984   -0.1560   19.5008 C   0  0  0  0  0  0  0  0  0  0  0  0
   14.8765   -1.4939   19.1748 C   0  0  0  0  0  0  0  0  0  0  0  0
   14.5238   -1.8485   17.8653 C   0  0  0  0  0  0  0  0  0  0  0  0
   14.0975   -3.5336   17.5411 S   0  0  0  0  0  0  0  0  0  0  0  0
   15.2562   -4.0580   16.4611 N   0  0  0  0  0  0  0  0  0  0  0  0
   12.8646   -3.5566   16.7924 O   0  0  0  0  0  0  0  0  0  0  0  0
   14.2843   -4.3192   18.7397 O   0  0  0  0  0  0  0  0  0  0  0  0
   18.4240   -3.2606   16.9311 C   0  0  0  0  0  0  0  0  0  0  0  0
   19.3198   -2.8179   18.1098 C   0  0  0  0  0  0  0  0  0  0  0  0
   19.0463   -3.5676   19.2903 O   0  0  0  0  0  0  0  0  0  0  0  0
   20.6759   -4.9252   16.2537 H   0  0  0  0  0  0  0  0  0  0  0  0
   20.1505   -5.4230   17.8639 H   0  0  0  0  0  0  0  0  0  0  0  0
   19.8614   -6.4708   16.4896 H   0  0  0  0  0  0  0  0  0  0  0  0
   17.8093   -5.3087   17.2531 H   0  0  0  0  0  0  0  0  0  0  0  0
   16.9835   -4.8326   15.0377 H   0  0  0  0  0  0  0  0  0  0  0  0
   18.1498   -6.1045   14.8903 H   0  0  0  0  0  0  0  0  0  0  0  0
   19.5873   -4.7920   13.6551 H   0  0  0  0  0  0  0  0  0  0  0  0
   18.1010   -3.9258   13.3103 H   0  0  0  0  0  0  0  0  0  0  0  0
   20.4183   -3.1402   15.0801 H   0  0  0  0  0  0  0  0  0  0  0  0
   19.5730   -2.2114   13.8963 H   0  0  0  0  0  0  0  0  0  0  0  0
   19.4629    0.3878   15.1911 H   0  0  0  0  0  0  0  0  0  0  0  0
   18.6910   -0.1027   13.6474 H   0  0  0  0  0  0  0  0  0  0  0  0
   17.9300    1.1439   14.6783 H   0  0  0  0  0  0  0  0  0  0  0  0
   15.4416    0.3115   14.8058 H   0  0  0  0  0  0  0  0  0  0  0  0
   14.4344    1.2792   16.5063 H   0  0  0  0  0  0  0  0  0  0  0  0
   15.0678    1.8772   18.8017 H   0  0  0  0  0  0  0  0  0  0  0  0
   15.3647    0.1151   20.5201 H   0  0  0  0  0  0  0  0  0  0  0  0
   14.9475   -2.2478   19.9576 H   0  0  0  0  0  0  0  0  0  0  0  0
   15.7306   -3.2769   15.9883 H   0  0  0  0  0  0  0  0  0  0  0  0
   14.7622   -4.5726   15.7252 H   0  0  0  0  0  0  0  0  0  0  0  0
   17.4031   -3.1160   17.2951 H   0  0  0  0  0  0  0  0  0  0  0  0
   20.3814   -2.9363   17.8690 H   0  0  0  0  0  0  0  0  0  0  0  0
   19.1638   -1.7622   18.3541 H   0  0  0  0  0  0  0  0  0  0  0  0
   18.1029   -3.4485   19.5011 H   0  0  0  0  0  0  0  0  0  0  0  0
  1  2  1  0
  2  3  1  0
  3  4  1  0
  4  5  1  0
  5  6  1  0
  6  7  1  0
  7  8  1  0
  7  9  2  0
  7 10  2  0
 10 11  1  0
 11 12  1  0
 11 13  1  0
 13 14  1  0
 14 15  2  0
 15 16  1  0
 16 17  2  0
 17 18  1  0
 18 19  2  0
 19 20  1  0
 20 21  1  0
 20 22  2  0
 20 23  2  0
  6 24  1  0
 24 25  1  0
 25 26  1  0
 24  2  1  0
 19 14  1  0
  1 27  1  0
  1 28  1  0
  1 29  1  0
  2 30  1  0
  3 31  1  0
  3 32  1  0
  4 33  1  0
  4 34  1  0
  5 35  1  0
  5 36  1  0
  8 37  1  0
  8 38  1  0
  8 39  1  0
 11 40  1  0
 15 41  1  0
 16 42  1  0
 17 43  1  0
 18 44  1  0
 21 45  1  0
 21 46  1  0
 24 47  1  0
 25 48  1  0
 25 49  1  0
 26 50  1  0
M  END
>  <Energy>  (374) 
-154.65754262934223

>  <compound_id>  (374) 
657

>  <target_id>  (374) 
1

>  <reference_id>  (374) 
61

>  <inspiration_ids>  (374) 
[61, 23]

>  <energy_score>  (374) 
-111.32588838847704

>  <distance_score>  (374) 
1.286858827579507

>  <path>  (374) 
/opt/xchem-fragalysis-2/maxwin/BulkDock/SCRATCH/505733/C657-P61/C657-P61.minimised.mol

>  <scratch_subdir>  (374) 
/opt/xchem-fragalysis-2/maxwin/BulkDock/SCRATCH/505733/C657-P61

>  <fragmenstein_runtime>  (374) 
4.93178653717041

>  <fragmenstein_outcome>  (374) 
too moved

>  <fragmenstein_mode>  (374) 
expansion

>  <fragmenstein_error>  (374) 


$$$$
C657-P23
     RDKit          3D

 50 51  0  0  0  0  0  0  0  0999 V2000
   19.9778   -5.0646   16.6389 C   0  0  0  0  0  0  0  0  0  0  0  0
   18.6218   -4.3959   16.4387 C   0  0  0  0  0  0  0  0  0  0  0  0
   18.0603   -4.6973   15.0465 C   0  0  0  0  0  0  0  0  0  0  0  0
   18.8572   -4.0043   13.9413 C   0  0  0  0  0  0  0  0  0  0  0  0
   19.5616   -2.7356   14.4127 C   0  0  0  0  0  0  0  0  0  0  0  0
   18.8570   -2.0313   15.4704 N   0  0  0  0  0  0  0  0  0  0  0  0
   17.8648   -0.6886   15.1370 S   0  0  0  0  0  0  0  0  0  0  0  0
   18.7939    0.4448   14.1380 C   0  0  0  0  0  0  0  0  0  0  0  0
   17.7046   -0.0742   16.4333 O   0  0  0  0  0  0  0  0  0  0  0  0
   16.7146   -1.2350   14.3020 N   0  0  0  0  0  0  0  0  0  0  0  0
   15.3854   -0.7377   14.6440 C   0  0  0  0  0  0  0  0  0  0  0  0
   14.6179   -0.8833   13.5259 F   0  0  0  0  0  0  0  0  0  0  0  0
   14.6769   -1.4325   15.6730 O   0  0  0  0  0  0  0  0  0  0  0  0
   14.9049   -1.0708   16.9704 C   0  0  0  0  0  0  0  0  0  0  0  0
   15.1496    0.2548   17.3626 C   0  0  0  0  0  0  0  0  0  0  0  0
   15.4427    0.5737   18.6910 C   0  0  0  0  0  0  0  0  0  0  0  0
   15.4510   -0.4203   19.6594 C   0  0  0  0  0  0  0  0  0  0  0  0
   15.1254   -1.7270   19.3067 C   0  0  0  0  0  0  0  0  0  0  0  0
   14.8337   -2.0502   17.9711 C   0  0  0  0  0  0  0  0  0  0  0  0
   14.2039   -3.6738   17.6440 S   0  0  0  0  0  0  0  0  0  0  0  0
   15.5230   -4.4970   17.0569 N   0  0  0  0  0  0  0  0  0  0  0  0
   13.2419   -3.6282   16.5716 O   0  0  0  0  0  0  0  0  0  0  0  0
   13.9177   -4.3342   18.8976 O   0  0  0  0  0  0  0  0  0  0  0  0
   18.5661   -2.8583   16.6647 C   0  0  0  0  0  0  0  0  0  0  0  0
   19.4025   -2.3769   17.8669 C   0  0  0  0  0  0  0  0  0  0  0  0
   18.9680   -3.0014   19.0735 O   0  0  0  0  0  0  0  0  0  0  0  0
   20.7756   -4.6304   16.0344 H   0  0  0  0  0  0  0  0  0  0  0  0
   20.2914   -5.0069   17.6863 H   0  0  0  0  0  0  0  0  0  0  0  0
   19.9194   -6.1299   16.3878 H   0  0  0  0  0  0  0  0  0  0  0  0
   17.9683   -4.8677   17.1796 H   0  0  0  0  0  0  0  0  0  0  0  0
   17.0329   -4.3290   14.9829 H   0  0  0  0  0  0  0  0  0  0  0  0
   18.0150   -5.7765   14.8605 H   0  0  0  0  0  0  0  0  0  0  0  0
   19.6071   -4.6965   13.5399 H   0  0  0  0  0  0  0  0  0  0  0  0
   18.1834   -3.7635   13.1114 H   0  0  0  0  0  0  0  0  0  0  0  0
   20.5721   -2.9722   14.7625 H   0  0  0  0  0  0  0  0  0  0  0  0
   19.7347   -2.0891   13.5455 H   0  0  0  0  0  0  0  0  0  0  0  0
   19.7523    0.6358   14.6251 H   0  0  0  0  0  0  0  0  0  0  0  0
   18.9470    0.0230   13.1435 H   0  0  0  0  0  0  0  0  0  0  0  0
   18.2280    1.3763   14.0636 H   0  0  0  0  0  0  0  0  0  0  0  0
   15.3994    0.3440   14.7981 H   0  0  0  0  0  0  0  0  0  0  0  0
   15.1350    1.0825   16.6609 H   0  0  0  0  0  0  0  0  0  0  0  0
   15.6655    1.6021   18.9661 H   0  0  0  0  0  0  0  0  0  0  0  0
   15.6671   -0.1739   20.6968 H   0  0  0  0  0  0  0  0  0  0  0  0
   15.0601   -2.4815   20.0902 H   0  0  0  0  0  0  0  0  0  0  0  0
   15.7780   -5.2609   17.6809 H   0  0  0  0  0  0  0  0  0  0  0  0
   15.3291   -4.7840   16.0944 H   0  0  0  0  0  0  0  0  0  0  0  0
   17.5201   -2.6703   16.9319 H   0  0  0  0  0  0  0  0  0  0  0  0
   20.4654   -2.5993   17.7281 H   0  0  0  0  0  0  0  0  0  0  0  0
   19.3208   -1.2952   18.0134 H   0  0  0  0  0  0  0  0  0  0  0  0
   18.0928   -2.6259   19.2775 H   0  0  0  0  0  0  0  0  0  0  0  0
  1  2  1  0
  2  3  1  0
  3  4  1  0
  4  5  1  0
  5  6  1  0
  6  7  1  0
  7  8  1  0
  7  9  2  0
  7 10  2  0
 10 11  1  0
 11 12  1  0
 11 13  1  0
 13 14  1  0
 14 15  2  0
 15 16  1  0
 16 17  2  0
 17 18  1  0
 18 19  2  0
 19 20  1  0
 20 21  1  0
 20 22  2  0
 20 23  2  0
  6 24  1  0
 24 25  1  0
 25 26  1  0
 24  2  1  0
 19 14  1  0
  1 27  1  0
  1 28  1  0
  1 29  1  0
  2 30  1  0
  3 31  1  0
  3 32  1  0
  4 33  1  0
  4 34  1  0
  5 35  1  0
  5 36  1  0
  8 37  1  0
  8 38  1  0
  8 39  1  0
 11 40  1  0
 15 41  1  0
 16 42  1  0
 17 43  1  0
 18 44  1  0
 21 45  1  0
 21 46  1  0
 24 47  1  0
 25 48  1  0
 25 49  1  0
 26 50  1  0
M  END
>  <Energy>  (375) 
-154.69079102878246

>  <compound_id>  (375) 
657

>  <target_id>  (375) 
1

>  <reference_id>  (375) 
23

>  <inspiration_ids>  (375) 
[61, 23]

>  <energy_score>  (375) 
-111.35913678791707

>  <distance_score>  (375) 
1.2936909829859828

>  <path>  (375) 
/opt/xchem-fragalysis-2/maxwin/BulkDock/SCRATCH/505733/C657-P23/C657-P23.minimised.mol

>  <scratch_subdir>  (375) 
/opt/xchem-fragalysis-2/maxwin/BulkDock/SCRATCH/505733/C657-P23

>  <fragmenstein_runtime>  (375) 
5.358636856079102

>  <fragmenstein_outcome>  (375) 
too moved

>  <fragmenstein_mode>  (375) 
expansion

>  <fragmenstein_error>  (375) 


$$$$
C659-P61
     RDKit          3D

 47 49  0  0  0  0  0  0  0  0999 V2000
   16.8680   -1.5076   12.6478 C   0  0  0  0  0  0  0  0  0  0  0  0
   16.5616   -0.3939   13.6144 C   0  0  0  0  0  0  0  0  0  0  0  0
   17.3745    0.5087   13.8321 O   0  0  0  0  0  0  0  0  0  0  0  0
   15.2349   -0.4771   14.3450 C   0  0  0  0  0  0  0  0  0  0  0  0
   14.2373   -0.8971   13.5189 F   0  0  0  0  0  0  0  0  0  0  0  0
   15.3594   -1.4581   15.3674 O   0  0  0  0  0  0  0  0  0  0  0  0
   15.3961   -1.0043   16.6566 C   0  0  0  0  0  0  0  0  0  0  0  0
   15.8787    0.2592   17.0226 C   0  0  0  0  0  0  0  0  0  0  0  0
   15.8384    0.6794   18.3547 C   0  0  0  0  0  0  0  0  0  0  0  0
   15.3264   -0.1602   19.3377 C   0  0  0  0  0  0  0  0  0  0  0  0
   14.8815   -1.4340   18.9933 C   0  0  0  0  0  0  0  0  0  0  0  0
   14.9501   -1.8693   17.6629 C   0  0  0  0  0  0  0  0  0  0  0  0
   14.4327   -3.5169   17.2583 S   0  0  0  0  0  0  0  0  0  0  0  0
   15.6353   -4.2931   16.3749 N   0  0  0  0  0  0  0  0  0  0  0  0
   13.3911   -3.4037   16.2673 O   0  0  0  0  0  0  0  0  0  0  0  0
   14.3556   -4.3682   18.5102 N   0  0  0  0  0  0  0  0  0  0  0  0
   15.4222   -5.0802   19.2270 C   0  0  0  0  0  0  0  0  0  0  0  0
   16.8109   -4.3993   19.2094 C   0  0  0  0  0  0  0  0  0  0  0  0
   17.6740   -4.8575   20.3849 C   0  0  0  0  0  0  0  0  0  0  0  0
   17.0238   -4.5351   21.7362 C   0  0  0  0  0  0  0  0  0  0  0  0
   17.3827   -3.2098   22.2870 N   0  0  0  0  0  0  0  0  0  0  0  0
   16.1753   -2.7379   23.0072 C   0  0  0  0  0  0  0  0  0  0  0  0
   15.0511   -3.4740   22.3739 C   0  0  0  0  0  0  0  0  0  0  0  0
   15.5397   -4.4645   21.6260 C   0  0  0  0  0  0  0  0  0  0  0  0
   14.8678   -5.3582   20.6545 C   0  0  0  0  0  0  0  0  0  0  0  0
   16.0991   -1.5442   11.8722 H   0  0  0  0  0  0  0  0  0  0  0  0
   16.9092   -2.4590   13.1836 H   0  0  0  0  0  0  0  0  0  0  0  0
   17.8360   -1.3260   12.1725 H   0  0  0  0  0  0  0  0  0  0  0  0
   14.9296    0.5153   14.6897 H   0  0  0  0  0  0  0  0  0  0  0  0
   16.3172    0.9437   16.3006 H   0  0  0  0  0  0  0  0  0  0  0  0
   16.2105    1.6655   18.6240 H   0  0  0  0  0  0  0  0  0  0  0  0
   15.2803    0.1686   20.3735 H   0  0  0  0  0  0  0  0  0  0  0  0
   14.4838   -2.0863   19.7687 H   0  0  0  0  0  0  0  0  0  0  0  0
   15.8148   -3.6615   15.5993 H   0  0  0  0  0  0  0  0  0  0  0  0
   15.1137   -5.0441   15.9306 H   0  0  0  0  0  0  0  0  0  0  0  0
   15.5620   -6.0586   18.7607 H   0  0  0  0  0  0  0  0  0  0  0  0
   17.3388   -4.6428   18.2810 H   0  0  0  0  0  0  0  0  0  0  0  0
   16.7379   -3.3105   19.2469 H   0  0  0  0  0  0  0  0  0  0  0  0
   18.6736   -4.4111   20.3193 H   0  0  0  0  0  0  0  0  0  0  0  0
   17.8217   -5.9432   20.3099 H   0  0  0  0  0  0  0  0  0  0  0  0
   17.3150   -5.3025   22.4642 H   0  0  0  0  0  0  0  0  0  0  0  0
   17.5367   -2.5726   21.5067 H   0  0  0  0  0  0  0  0  0  0  0  0
   16.2460   -2.9716   24.0743 H   0  0  0  0  0  0  0  0  0  0  0  0
   16.0672   -1.6558   22.8857 H   0  0  0  0  0  0  0  0  0  0  0  0
   14.0110   -3.1870   22.4506 H   0  0  0  0  0  0  0  0  0  0  0  0
   15.0917   -6.3967   20.9315 H   0  0  0  0  0  0  0  0  0  0  0  0
   13.7764   -5.2568   20.7088 H   0  0  0  0  0  0  0  0  0  0  0  0
  1  2  1  0
  2  3  2  0
  2  4  1  0
  4  5  1  0
  4  6  1  0
  6  7  1  0
  7  8  2  0
  8  9  1  0
  9 10  2  0
 10 11  1  0
 11 12  2  0
 12 13  1  0
 13 14  1  0
 13 15  2  0
 13 16  2  0
 16 17  1  0
 17 18  1  0
 18 19  1  0
 19 20  1  0
 20 21  1  0
 21 22  1  0
 22 23  1  0
 23 24  2  0
 24 25  1  0
 12  7  1  0
 25 17  1  0
 24 20  1  0
  1 26  1  0
  1 27  1  0
  1 28  1  0
  4 29  1  0
  8 30  1  0
  9 31  1  0
 10 32  1  0
 11 33  1  0
 14 34  1  0
 14 35  1  0
 17 36  1  0
 18 37  1  0
 18 38  1  0
 19 39  1  0
 19 40  1  0
 20 41  1  0
 21 42  1  0
 22 43  1  0
 22 44  1  0
 23 45  1  0
 25 46  1  0
 25 47  1  0
M  END
>  <Energy>  (376) 
-32.32668871793328

>  <compound_id>  (376) 
659

>  <target_id>  (376) 
1

>  <reference_id>  (376) 
61

>  <inspiration_ids>  (376) 
[61, 27]

>  <energy_score>  (376) 
-58.47889662562797

>  <distance_score>  (376) 
1.0197839174352035

>  <path>  (376) 
/opt/xchem-fragalysis-2/maxwin/BulkDock/SCRATCH/505733/C659-P61/C659-P61.minimised.mol

>  <scratch_subdir>  (376) 
/opt/xchem-fragalysis-2/maxwin/BulkDock/SCRATCH/505733/C659-P61

>  <fragmenstein_runtime>  (376) 
8.051259994506836

>  <fragmenstein_outcome>  (376) 
too moved

>  <fragmenstein_mode>  (376) 
expansion

>  <fragmenstein_error>  (376) 


$$$$
C659-P27
     RDKit          3D

 47 49  0  0  0  0  0  0  0  0999 V2000
   16.8978   -1.5154   12.7241 C   0  0  0  0  0  0  0  0  0  0  0  0
   16.5604   -0.3785   13.6522 C   0  0  0  0  0  0  0  0  0  0  0  0
   17.3546    0.5452   13.8497 O   0  0  0  0  0  0  0  0  0  0  0  0
   15.2285   -0.4646   14.3735 C   0  0  0  0  0  0  0  0  0  0  0  0
   14.2411   -0.8992   13.5427 F   0  0  0  0  0  0  0  0  0  0  0  0
   15.3497   -1.4335   15.4076 O   0  0  0  0  0  0  0  0  0  0  0  0
   15.3891   -0.9668   16.6925 C   0  0  0  0  0  0  0  0  0  0  0  0
   15.8618    0.3039   17.0448 C   0  0  0  0  0  0  0  0  0  0  0  0
   15.8249    0.7348   18.3737 C   0  0  0  0  0  0  0  0  0  0  0  0
   15.3256   -0.1005   19.3672 C   0  0  0  0  0  0  0  0  0  0  0  0
   14.8901   -1.3811   19.0371 C   0  0  0  0  0  0  0  0  0  0  0  0
   14.9557   -1.8261   17.7101 C   0  0  0  0  0  0  0  0  0  0  0  0
   14.4531   -3.4814   17.3226 S   0  0  0  0  0  0  0  0  0  0  0  0
   15.6718   -4.2486   16.4524 N   0  0  0  0  0  0  0  0  0  0  0  0
   13.4120   -3.3885   16.3294 O   0  0  0  0  0  0  0  0  0  0  0  0
   14.3820   -4.3210   18.5821 N   0  0  0  0  0  0  0  0  0  0  0  0
   15.4474   -5.0597   19.2708 C   0  0  0  0  0  0  0  0  0  0  0  0
   16.8250   -4.3561   19.2977 C   0  0  0  0  0  0  0  0  0  0  0  0
   17.6723   -4.8244   20.4804 C   0  0  0  0  0  0  0  0  0  0  0  0
   16.9872   -4.5439   21.8241 C   0  0  0  0  0  0  0  0  0  0  0  0
   17.2968   -3.2191   22.4050 N   0  0  0  0  0  0  0  0  0  0  0  0
   16.0603   -2.7921   23.1044 C   0  0  0  0  0  0  0  0  0  0  0  0
   14.9714   -3.5488   22.4345 C   0  0  0  0  0  0  0  0  0  0  0  0
   15.5044   -4.5135   21.6833 C   0  0  0  0  0  0  0  0  0  0  0  0
   14.8821   -5.4055   20.6780 C   0  0  0  0  0  0  0  0  0  0  0  0
   16.9802   -2.4432   13.2951 H   0  0  0  0  0  0  0  0  0  0  0  0
   17.8529   -1.3159   12.2304 H   0  0  0  0  0  0  0  0  0  0  0  0
   16.1232   -1.6101   11.9592 H   0  0  0  0  0  0  0  0  0  0  0  0
   14.9127    0.5286   14.7061 H   0  0  0  0  0  0  0  0  0  0  0  0
   16.2897    0.9869   16.3151 H   0  0  0  0  0  0  0  0  0  0  0  0
   16.1890    1.7267   18.6325 H   0  0  0  0  0  0  0  0  0  0  0  0
   15.2816    0.2375   20.4000 H   0  0  0  0  0  0  0  0  0  0  0  0
   14.5029   -2.0304   19.8207 H   0  0  0  0  0  0  0  0  0  0  0  0
   15.1662   -5.0206   16.0288 H   0  0  0  0  0  0  0  0  0  0  0  0
   15.8351   -3.6300   15.6627 H   0  0  0  0  0  0  0  0  0  0  0  0
   15.6050   -6.0134   18.7627 H   0  0  0  0  0  0  0  0  0  0  0  0
   17.3754   -4.5686   18.3747 H   0  0  0  0  0  0  0  0  0  0  0  0
   16.7312   -3.2696   19.3572 H   0  0  0  0  0  0  0  0  0  0  0  0
   18.6640   -4.3574   20.4463 H   0  0  0  0  0  0  0  0  0  0  0  0
   17.8426   -5.9052   20.3848 H   0  0  0  0  0  0  0  0  0  0  0  0
   17.2853   -5.3158   22.5446 H   0  0  0  0  0  0  0  0  0  0  0  0
   17.4500   -2.5647   21.6390 H   0  0  0  0  0  0  0  0  0  0  0  0
   16.1135   -3.0405   24.1691 H   0  0  0  0  0  0  0  0  0  0  0  0
   15.9248   -1.7117   22.9967 H   0  0  0  0  0  0  0  0  0  0  0  0
   13.9229   -3.2887   22.4882 H   0  0  0  0  0  0  0  0  0  0  0  0
   15.1442   -6.4420   20.9279 H   0  0  0  0  0  0  0  0  0  0  0  0
   13.7868   -5.3498   20.7168 H   0  0  0  0  0  0  0  0  0  0  0  0
  1  2  1  0
  2  3  2  0
  2  4  1  0
  4  5  1  0
  4  6  1  0
  6  7  1  0
  7  8  2  0
  8  9  1  0
  9 10  2  0
 10 11  1  0
 11 12  2  0
 12 13  1  0
 13 14  1  0
 13 15  2  0
 13 16  2  0
 16 17  1  0
 17 18  1  0
 18 19  1  0
 19 20  1  0
 20 21  1  0
 21 22  1  0
 22 23  1  0
 23 24  2  0
 24 25  1  0
 12  7  1  0
 25 17  1  0
 24 20  1  0
  1 26  1  0
  1 27  1  0
  1 28  1  0
  4 29  1  0
  8 30  1  0
  9 31  1  0
 10 32  1  0
 11 33  1  0
 14 34  1  0
 14 35  1  0
 17 36  1  0
 18 37  1  0
 18 38  1  0
 19 39  1  0
 19 40  1  0
 20 41  1  0
 21 42  1  0
 22 43  1  0
 22 44  1  0
 23 45  1  0
 25 46  1  0
 25 47  1  0
M  END
>  <Energy>  (377) 
-32.665223661550364

>  <compound_id>  (377) 
659

>  <target_id>  (377) 
1

>  <reference_id>  (377) 
27

>  <inspiration_ids>  (377) 
[61, 27]

>  <energy_score>  (377) 
-58.81743156924438

>  <distance_score>  (377) 
1.034849866397118

>  <path>  (377) 
/opt/xchem-fragalysis-2/maxwin/BulkDock/SCRATCH/505733/C659-P27/C659-P27.minimised.mol

>  <scratch_subdir>  (377) 
/opt/xchem-fragalysis-2/maxwin/BulkDock/SCRATCH/505733/C659-P27

>  <fragmenstein_runtime>  (377) 
7.8579747676849365

>  <fragmenstein_outcome>  (377) 
too moved

>  <fragmenstein_mode>  (377) 
expansion

>  <fragmenstein_error>  (377) 


$$$$
C661-P61
     RDKit          3D

 44 46  0  0  0  0  0  0  0  0999 V2000
   15.9469   -4.3677   18.3744 N   0  0  0  0  0  0  0  0  0  0  0  0
   14.8968   -3.5175   17.3747 S   0  0  0  0  0  0  0  0  0  0  0  0
   14.3783   -4.5118   16.4727 O   0  0  0  0  0  0  0  0  0  0  0  0
   14.0468   -2.7721   18.2691 O   0  0  0  0  0  0  0  0  0  0  0  0
   16.0503   -2.4395   16.5286 C   0  0  0  0  0  0  0  0  0  0  0  0
   16.4561   -1.2437   17.3678 C   0  0  0  0  0  0  0  0  0  0  0  0
   17.6136   -0.5344   16.6804 C   0  0  0  0  0  0  0  0  0  0  0  0
   17.4099   -0.1904   15.1904 C   0  0  0  0  0  0  0  0  0  0  0  0
   16.6503   -1.2401   14.2836 C   0  0  0  0  0  0  0  0  0  0  0  0
   17.7001   -2.0908   13.5577 C   0  0  0  0  0  0  0  0  0  0  0  0
   18.4231   -3.1956   13.9821 C   0  0  0  0  0  0  0  0  0  0  0  0
   19.3428   -3.7782   13.1022 C   0  0  0  0  0  0  0  0  0  0  0  0
   19.5492   -3.2494   11.8196 C   0  0  0  0  0  0  0  0  0  0  0  0
   18.8445   -2.1264   11.3956 C   0  0  0  0  0  0  0  0  0  0  0  0
   17.9147   -1.5848   12.2634 C   0  0  0  0  0  0  0  0  0  0  0  0
   17.1777   -0.4022   11.9804 N   0  0  0  0  0  0  0  0  0  0  0  0
   16.0585   -0.5330   12.9728 C   0  0  0  0  0  0  0  0  0  0  0  0
   14.9302   -1.2671   12.1894 C   0  0  0  0  0  0  0  0  0  0  0  0
   14.8179   -0.6609   10.8946 O   0  0  0  0  0  0  0  0  0  0  0  0
   15.6068   -2.0868   15.0953 C   0  0  0  0  0  0  0  0  0  0  0  0
   14.2544   -1.6536   15.0256 O   0  0  0  0  0  0  0  0  0  0  0  0
   13.9047   -0.3296   15.3413 C   0  0  0  0  0  0  0  0  0  0  0  0
   13.4097    0.2420   14.2235 F   0  0  0  0  0  0  0  0  0  0  0  0
   14.9969    0.3780   15.6615 F   0  0  0  0  0  0  0  0  0  0  0  0
   15.6910   -4.2194   19.3540 H   0  0  0  0  0  0  0  0  0  0  0  0
   16.0026   -5.3513   18.1074 H   0  0  0  0  0  0  0  0  0  0  0  0
   16.9376   -3.0741   16.4299 H   0  0  0  0  0  0  0  0  0  0  0  0
   15.6188   -0.5647   17.5479 H   0  0  0  0  0  0  0  0  0  0  0  0
   16.7867   -1.5704   18.3615 H   0  0  0  0  0  0  0  0  0  0  0  0
   18.5009   -1.1774   16.7544 H   0  0  0  0  0  0  0  0  0  0  0  0
   17.8617    0.3812   17.2303 H   0  0  0  0  0  0  0  0  0  0  0  0
   16.9199    0.7872   15.1312 H   0  0  0  0  0  0  0  0  0  0  0  0
   18.4057    0.0116   14.7694 H   0  0  0  0  0  0  0  0  0  0  0  0
   18.3060   -3.6286   14.9662 H   0  0  0  0  0  0  0  0  0  0  0  0
   19.9112   -4.6505   13.4178 H   0  0  0  0  0  0  0  0  0  0  0  0
   20.2733   -3.7139   11.1546 H   0  0  0  0  0  0  0  0  0  0  0  0
   19.0075   -1.7019   10.4117 H   0  0  0  0  0  0  0  0  0  0  0  0
   17.7732    0.3920   12.2243 H   0  0  0  0  0  0  0  0  0  0  0  0
   15.7065    0.4803   13.1989 H   0  0  0  0  0  0  0  0  0  0  0  0
   15.1678   -2.3245   12.0322 H   0  0  0  0  0  0  0  0  0  0  0  0
   13.9512   -1.2133   12.6592 H   0  0  0  0  0  0  0  0  0  0  0  0
   15.7551   -0.4952   10.6518 H   0  0  0  0  0  0  0  0  0  0  0  0
   15.5612   -3.0526   14.5786 H   0  0  0  0  0  0  0  0  0  0  0  0
   13.1641   -0.2898   16.1441 H   0  0  0  0  0  0  0  0  0  0  0  0
  1  2  1  0
  2  3  2  0
  2  4  2  0
  2  5  1  0
  5  6  1  0
  6  7  1  0
  7  8  1  0
  8  9  1  0
  9 10  1  0
 10 11  2  0
 11 12  1  0
 12 13  2  0
 13 14  1  0
 14 15  2  0
 15 16  1  0
 16 17  1  0
 17 18  1  0
 18 19  1  0
  9 20  1  0
 20 21  1  0
 21 22  1  0
 22 23  1  0
 22 24  1  0
 20  5  1  0
 17  9  1  0
 15 10  1  0
  1 25  1  0
  1 26  1  0
  5 27  1  0
  6 28  1  0
  6 29  1  0
  7 30  1  0
  7 31  1  0
  8 32  1  0
  8 33  1  0
 11 34  1  0
 12 35  1  0
 13 36  1  0
 14 37  1  0
 16 38  1  0
 17 39  1  0
 18 40  1  0
 18 41  1  0
 19 42  1  0
 20 43  1  0
 22 44  1  0
M  END
>  <Energy>  (378) 
-14.962867220635232

>  <compound_id>  (378) 
661

>  <target_id>  (378) 
1

>  <reference_id>  (378) 
61

>  <inspiration_ids>  (378) 
[61, 31]

>  <energy_score>  (378) 
-72.67580788335547

>  <distance_score>  (378) 
2.1572839668924564

>  <path>  (378) 
/opt/xchem-fragalysis-2/maxwin/BulkDock/SCRATCH/505733/C661-P61/C661-P61.minimised.mol

>  <scratch_subdir>  (378) 
/opt/xchem-fragalysis-2/maxwin/BulkDock/SCRATCH/505733/C661-P61

>  <fragmenstein_runtime>  (378) 
16.39252996444702

>  <fragmenstein_outcome>  (378) 
too moved

>  <fragmenstein_mode>  (378) 
expansion

>  <fragmenstein_error>  (378) 


$$$$
C661-P31
     RDKit          3D

 44 46  0  0  0  0  0  0  0  0999 V2000
   16.0952   -4.6460   16.6951 N   0  0  0  0  0  0  0  0  0  0  0  0
   15.3565   -3.1910   17.1078 S   0  0  0  0  0  0  0  0  0  0  0  0
   14.0956   -3.2112   16.4104 O   0  0  0  0  0  0  0  0  0  0  0  0
   15.4238   -3.1553   18.5485 O   0  0  0  0  0  0  0  0  0  0  0  0
   16.5200   -2.0710   16.3283 C   0  0  0  0  0  0  0  0  0  0  0  0
   17.0668   -0.9982   17.2619 C   0  0  0  0  0  0  0  0  0  0  0  0
   17.5044    0.2381   16.4832 C   0  0  0  0  0  0  0  0  0  0  0  0
   18.1267   -0.1365   15.1251 C   0  0  0  0  0  0  0  0  0  0  0  0
   17.1856   -0.9256   14.1307 C   0  0  0  0  0  0  0  0  0  0  0  0
   18.0036   -1.9232   13.3077 C   0  0  0  0  0  0  0  0  0  0  0  0
   18.4627   -3.1976   13.6146 C   0  0  0  0  0  0  0  0  0  0  0  0
   19.1782   -3.9136   12.6486 C   0  0  0  0  0  0  0  0  0  0  0  0
   19.4326   -3.3576   11.3895 C   0  0  0  0  0  0  0  0  0  0  0  0
   18.9938   -2.0719   11.0838 C   0  0  0  0  0  0  0  0  0  0  0  0
   18.2759   -1.3828   12.0449 C   0  0  0  0  0  0  0  0  0  0  0  0
   17.8541   -0.0403   11.9093 N   0  0  0  0  0  0  0  0  0  0  0  0
   16.7532    0.0380   12.9079 C   0  0  0  0  0  0  0  0  0  0  0  0
   15.4567   -0.2133   12.0855 C   0  0  0  0  0  0  0  0  0  0  0  0
   15.5161    0.5080   10.8339 O   0  0  0  0  0  0  0  0  0  0  0  0
   16.0318   -1.5919   14.9382 C   0  0  0  0  0  0  0  0  0  0  0  0
   15.0350   -0.5992   15.0938 O   0  0  0  0  0  0  0  0  0  0  0  0
   13.7520   -0.9671   14.6589 C   0  0  0  0  0  0  0  0  0  0  0  0
   13.1636    0.1810   14.2463 F   0  0  0  0  0  0  0  0  0  0  0  0
   13.8936   -1.7472   13.5707 F   0  0  0  0  0  0  0  0  0  0  0  0
   16.9966   -4.8261   17.1381 H   0  0  0  0  0  0  0  0  0  0  0  0
   15.9981   -4.8688   15.6994 H   0  0  0  0  0  0  0  0  0  0  0  0
   17.3876   -2.7143   16.1530 H   0  0  0  0  0  0  0  0  0  0  0  0
   16.3975   -0.7386   18.0824 H   0  0  0  0  0  0  0  0  0  0  0  0
   17.9496   -1.4133   17.7692 H   0  0  0  0  0  0  0  0  0  0  0  0
   18.2369    0.7965   17.0780 H   0  0  0  0  0  0  0  0  0  0  0  0
   16.6684    0.9229   16.3134 H   0  0  0  0  0  0  0  0  0  0  0  0
   18.5023    0.7776   14.6487 H   0  0  0  0  0  0  0  0  0  0  0  0
   19.0212   -0.7399   15.3349 H   0  0  0  0  0  0  0  0  0  0  0  0
   18.2892   -3.6681   14.5715 H   0  0  0  0  0  0  0  0  0  0  0  0
   19.5451   -4.9118   12.8762 H   0  0  0  0  0  0  0  0  0  0  0  0
   19.9927   -3.9253   10.6504 H   0  0  0  0  0  0  0  0  0  0  0  0
   19.2215   -1.6220   10.1244 H   0  0  0  0  0  0  0  0  0  0  0  0
   17.5116    0.1222   10.9573 H   0  0  0  0  0  0  0  0  0  0  0  0
   16.7045    1.0755   13.2629 H   0  0  0  0  0  0  0  0  0  0  0  0
   15.3290   -1.2701   11.8368 H   0  0  0  0  0  0  0  0  0  0  0  0
   14.5807    0.1749   12.5908 H   0  0  0  0  0  0  0  0  0  0  0  0
   15.5915    1.4508   11.0668 H   0  0  0  0  0  0  0  0  0  0  0  0
   15.6694   -2.4627   14.3795 H   0  0  0  0  0  0  0  0  0  0  0  0
   13.1227   -1.4315   15.4144 H   0  0  0  0  0  0  0  0  0  0  0  0
  1  2  1  0
  2  3  2  0
  2  4  2  0
  2  5  1  0
  5  6  1  0
  6  7  1  0
  7  8  1  0
  8  9  1  0
  9 10  1  0
 10 11  2  0
 11 12  1  0
 12 13  2  0
 13 14  1  0
 14 15  2  0
 15 16  1  0
 16 17  1  0
 17 18  1  0
 18 19  1  0
  9 20  1  0
 20 21  1  0
 21 22  1  0
 22 23  1  0
 22 24  1  0
 20  5  1  0
 17  9  1  0
 15 10  1  0
  1 25  1  0
  1 26  1  0
  5 27  1  0
  6 28  1  0
  6 29  1  0
  7 30  1  0
  7 31  1  0
  8 32  1  0
  8 33  1  0
 11 34  1  0
 12 35  1  0
 13 36  1  0
 14 37  1  0
 16 38  1  0
 17 39  1  0
 18 40  1  0
 18 41  1  0
 19 42  1  0
 20 43  1  0
 22 44  1  0
M  END
>  <Energy>  (379) 
-7.3410948868183148

>  <compound_id>  (379) 
661

>  <target_id>  (379) 
1

>  <reference_id>  (379) 
31

>  <inspiration_ids>  (379) 
[61, 31]

>  <energy_score>  (379) 
-65.05403554953777

>  <distance_score>  (379) 
2.230877954818296

>  <path>  (379) 
/opt/xchem-fragalysis-2/maxwin/BulkDock/SCRATCH/505733/C661-P31/C661-P31.minimised.mol

>  <scratch_subdir>  (379) 
/opt/xchem-fragalysis-2/maxwin/BulkDock/SCRATCH/505733/C661-P31

>  <fragmenstein_runtime>  (379) 
17.66993260383606

>  <fragmenstein_outcome>  (379) 
too moved

>  <fragmenstein_mode>  (379) 
expansion

>  <fragmenstein_error>  (379) 


$$$$
C662-P61
     RDKit          3D

 55 57  0  0  0  0  0  0  0  0999 V2000
   17.7272   -3.7540   18.7370 N   0  0  0  0  0  0  0  0  0  0  0  0
   16.0755   -3.5186   18.5898 S   0  0  0  0  0  0  0  0  0  0  0  0
   15.7847   -3.8490   17.2172 O   0  0  0  0  0  0  0  0  0  0  0  0
   15.4995   -4.3115   19.6539 O   0  0  0  0  0  0  0  0  0  0  0  0
   15.8950   -1.7429   18.9677 C   0  0  0  0  0  0  0  0  0  0  0  0
   16.2521   -1.5479   20.4570 C   0  0  0  0  0  0  0  0  0  0  0  0
   16.0233   -0.1268   20.9363 C   0  0  0  0  0  0  0  0  0  0  0  0
   16.7370    0.8882   20.0568 C   0  0  0  0  0  0  0  0  0  0  0  0
   16.4111    0.7645   18.5407 C   0  0  0  0  0  0  0  0  0  0  0  0
   14.9101    1.2864   18.2955 C   0  0  0  0  0  0  0  0  0  0  0  0
   14.0644    0.9242   17.1210 N   0  0  0  0  0  0  0  0  0  0  0  0
   13.7812   -0.3352   16.5427 C   0  0  0  0  0  0  0  0  0  0  0  0
   14.2194   -1.4280   16.7908 O   0  0  0  0  0  0  0  0  0  0  0  0
   12.8983   -0.3917   15.3816 C   0  0  0  0  0  0  0  0  0  0  0  0
   11.6673   -0.9897   15.6440 C   0  0  0  0  0  0  0  0  0  0  0  0
   11.2097   -1.9814   14.7976 C   0  0  0  0  0  0  0  0  0  0  0  0
   11.9646   -2.3327   13.6825 C   0  0  0  0  0  0  0  0  0  0  0  0
   13.1196   -1.6359   13.3412 C   0  0  0  0  0  0  0  0  0  0  0  0
   13.5841   -0.6421   14.1825 C   0  0  0  0  0  0  0  0  0  0  0  0
   15.2143    1.6140   16.3535 C   0  0  0  0  0  0  0  0  0  0  0  0
   16.3608    2.5486   16.7987 C   0  0  0  0  0  0  0  0  0  0  0  0
   17.2660    1.8540   17.8162 C   0  0  0  0  0  0  0  0  0  0  0  0
   18.6096    1.4045   17.2330 C   0  0  0  0  0  0  0  0  0  0  0  0
   19.3866    2.5479   16.8861 O   0  0  0  0  0  0  0  0  0  0  0  0
   16.7297   -0.7508   18.0931 C   0  0  0  0  0  0  0  0  0  0  0  0
   16.5725   -0.7097   16.6864 O   0  0  0  0  0  0  0  0  0  0  0  0
   17.0118   -1.7237   15.8230 C   0  0  0  0  0  0  0  0  0  0  0  0
   17.3883   -1.0834   14.6820 F   0  0  0  0  0  0  0  0  0  0  0  0
   18.1275   -2.2887   16.3329 F   0  0  0  0  0  0  0  0  0  0  0  0
   18.1533   -3.9028   17.8180 H   0  0  0  0  0  0  0  0  0  0  0  0
   17.9141   -4.5077   19.4012 H   0  0  0  0  0  0  0  0  0  0  0  0
   14.8229   -1.5595   18.8836 H   0  0  0  0  0  0  0  0  0  0  0  0
   15.6554   -2.2192   21.0859 H   0  0  0  0  0  0  0  0  0  0  0  0
   17.3015   -1.8187   20.6290 H   0  0  0  0  0  0  0  0  0  0  0  0
   14.9489    0.0815   20.9784 H   0  0  0  0  0  0  0  0  0  0  0  0
   16.3882   -0.0300   21.9659 H   0  0  0  0  0  0  0  0  0  0  0  0
   17.8195    0.7699   20.2019 H   0  0  0  0  0  0  0  0  0  0  0  0
   16.4870    1.8937   20.4195 H   0  0  0  0  0  0  0  0  0  0  0  0
   14.3270    0.7817   19.0773 H   0  0  0  0  0  0  0  0  0  0  0  0
   14.7514    2.3413   18.5789 H   0  0  0  0  0  0  0  0  0  0  0  0
   11.1751   -0.8121   16.5845 H   0  0  0  0  0  0  0  0  0  0  0  0
   10.2957   -2.5249   15.0092 H   0  0  0  0  0  0  0  0  0  0  0  0
   11.6288   -3.1616   13.0678 H   0  0  0  0  0  0  0  0  0  0  0  0
   13.6943   -1.9273   12.4666 H   0  0  0  0  0  0  0  0  0  0  0  0
   14.5733   -0.2320   14.0046 H   0  0  0  0  0  0  0  0  0  0  0  0
   14.6171    2.2689   15.6949 H   0  0  0  0  0  0  0  0  0  0  0  0
   15.6243    0.9187   15.6143 H   0  0  0  0  0  0  0  0  0  0  0  0
   16.9231    2.8707   15.9145 H   0  0  0  0  0  0  0  0  0  0  0  0
   15.9447    3.4710   17.2267 H   0  0  0  0  0  0  0  0  0  0  0  0
   17.5190    2.6464   18.5373 H   0  0  0  0  0  0  0  0  0  0  0  0
   18.5064    0.7839   16.3400 H   0  0  0  0  0  0  0  0  0  0  0  0
   19.1856    0.8499   17.9793 H   0  0  0  0  0  0  0  0  0  0  0  0
   19.1770    2.7780   15.9647 H   0  0  0  0  0  0  0  0  0  0  0  0
   17.7896   -0.9469   18.2966 H   0  0  0  0  0  0  0  0  0  0  0  0
   16.2513   -2.4521   15.5516 H   0  0  0  0  0  0  0  0  0  0  0  0
  1  2  1  0
  2  3  2  0
  2  4  2  0
  2  5  1  0
  5  6  1  0
  6  7  1  0
  7  8  1  0
  8  9  1  0
  9 10  1  0
 10 11  1  0
 11 12  1  0
 12 13  2  0
 12 14  1  0
 14 15  2  0
 15 16  1  0
 16 17  2  0
 17 18  1  0
 18 19  2  0
 11 20  1  0
 20 21  1  0
 21 22  1  0
 22 23  1  0
 23 24  1  0
  9 25  1  0
 25 26  1  0
 26 27  1  0
 27 28  1  0
 27 29  1  0
 25  5  1  0
 22  9  1  0
 19 14  1  0
  1 30  1  0
  1 31  1  0
  5 32  1  0
  6 33  1  0
  6 34  1  0
  7 35  1  0
  7 36  1  0
  8 37  1  0
  8 38  1  0
 10 39  1  0
 10 40  1  0
 15 41  1  0
 16 42  1  0
 17 43  1  0
 18 44  1  0
 19 45  1  0
 20 46  1  0
 20 47  1  0
 21 48  1  0
 21 49  1  0
 22 50  1  0
 23 51  1  0
 23 52  1  0
 24 53  1  0
 25 54  1  0
 27 55  1  0
M  END
>  <Energy>  (380) 
87.604951368302238

>  <compound_id>  (380) 
662

>  <target_id>  (380) 
1

>  <reference_id>  (380) 
61

>  <inspiration_ids>  (380) 
[61, 36]

>  <energy_score>  (380) 
40.08210706114022

>  <distance_score>  (380) 
2.1865190418578666

>  <path>  (380) 
/opt/xchem-fragalysis-2/maxwin/BulkDock/SCRATCH/505733/C662-P61/C662-P61.minimised.mol

>  <scratch_subdir>  (380) 
/opt/xchem-fragalysis-2/maxwin/BulkDock/SCRATCH/505733/C662-P61

>  <fragmenstein_runtime>  (380) 
18.420578479766846

>  <fragmenstein_outcome>  (380) 
too moved

>  <fragmenstein_mode>  (380) 
expansion

>  <fragmenstein_error>  (380) 


$$$$
C662-P36
     RDKit          3D

 55 57  0  0  0  0  0  0  0  0999 V2000
   16.8191   -4.8334   19.0660 N   0  0  0  0  0  0  0  0  0  0  0  0
   16.3121   -4.0423   17.6813 S   0  0  0  0  0  0  0  0  0  0  0  0
   17.2506   -4.4845   16.6755 O   0  0  0  0  0  0  0  0  0  0  0  0
   14.9138   -4.3939   17.6067 O   0  0  0  0  0  0  0  0  0  0  0  0
   16.5700   -2.2707   18.0389 C   0  0  0  0  0  0  0  0  0  0  0  0
   17.5885   -2.0923   19.1756 C   0  0  0  0  0  0  0  0  0  0  0  0
   17.8254   -0.6341   19.5308 C   0  0  0  0  0  0  0  0  0  0  0  0
   18.1709    0.2078   18.3102 C   0  0  0  0  0  0  0  0  0  0  0  0
   17.1594    0.0834   17.1285 C   0  0  0  0  0  0  0  0  0  0  0  0
   15.8095    0.8139   17.5466 C   0  0  0  0  0  0  0  0  0  0  0  0
   14.4611    0.6368   16.9376 N   0  0  0  0  0  0  0  0  0  0  0  0
   13.6988   -0.5418   16.6981 C   0  0  0  0  0  0  0  0  0  0  0  0
   13.9847   -1.6997   16.8416 O   0  0  0  0  0  0  0  0  0  0  0  0
   12.3627   -0.3178   16.0953 C   0  0  0  0  0  0  0  0  0  0  0  0
   11.8280    0.9513   15.8614 C   0  0  0  0  0  0  0  0  0  0  0  0
   10.5753    1.0720   15.2708 C   0  0  0  0  0  0  0  0  0  0  0  0
    9.8623   -0.0722   14.9327 C   0  0  0  0  0  0  0  0  0  0  0  0
   10.3757   -1.3349   15.1913 C   0  0  0  0  0  0  0  0  0  0  0  0
   11.6265   -1.4620   15.7567 C   0  0  0  0  0  0  0  0  0  0  0  0
   15.2233    1.0441   15.6543 C   0  0  0  0  0  0  0  0  0  0  0  0
   16.5364    1.8252   15.4551 C   0  0  0  0  0  0  0  0  0  0  0  0
   17.7098    1.0042   15.9918 C   0  0  0  0  0  0  0  0  0  0  0  0
   18.5072    0.3405   14.8694 C   0  0  0  0  0  0  0  0  0  0  0  0
   19.2074    1.3516   14.1470 O   0  0  0  0  0  0  0  0  0  0  0  0
   17.0402   -1.4685   16.7824 C   0  0  0  0  0  0  0  0  0  0  0  0
   16.1939   -1.5638   15.6541 O   0  0  0  0  0  0  0  0  0  0  0  0
   16.4722   -2.4829   14.6223 C   0  0  0  0  0  0  0  0  0  0  0  0
   15.9113   -1.9551   13.5029 F   0  0  0  0  0  0  0  0  0  0  0  0
   17.8071   -2.5008   14.4021 F   0  0  0  0  0  0  0  0  0  0  0  0
   17.5534   -5.5060   18.8372 H   0  0  0  0  0  0  0  0  0  0  0  0
   16.0169   -5.2566   19.5369 H   0  0  0  0  0  0  0  0  0  0  0  0
   15.6048   -1.9234   18.4120 H   0  0  0  0  0  0  0  0  0  0  0  0
   17.2460   -2.6016   20.0835 H   0  0  0  0  0  0  0  0  0  0  0  0
   18.5428   -2.5561   18.8940 H   0  0  0  0  0  0  0  0  0  0  0  0
   16.9439   -0.2305   20.0405 H   0  0  0  0  0  0  0  0  0  0  0  0
   18.6455   -0.5689   20.2562 H   0  0  0  0  0  0  0  0  0  0  0  0
   19.1685   -0.0889   17.9581 H   0  0  0  0  0  0  0  0  0  0  0  0
   18.2575    1.2545   18.6302 H   0  0  0  0  0  0  0  0  0  0  0  0
   15.5866    0.4080   18.5424 H   0  0  0  0  0  0  0  0  0  0  0  0
   15.9576    1.8785   17.7992 H   0  0  0  0  0  0  0  0  0  0  0  0
   12.3708    1.8507   16.1351 H   0  0  0  0  0  0  0  0  0  0  0  0
   10.1696    2.0542   15.0468 H   0  0  0  0  0  0  0  0  0  0  0  0
    8.9251   -0.0077   14.3931 H   0  0  0  0  0  0  0  0  0  0  0  0
    9.8261   -2.2198   14.8839 H   0  0  0  0  0  0  0  0  0  0  0  0
   12.0303   -2.4608   15.9150 H   0  0  0  0  0  0  0  0  0  0  0  0
   14.4868    1.7340   15.2109 H   0  0  0  0  0  0  0  0  0  0  0  0
   15.1772    0.2241   14.9284 H   0  0  0  0  0  0  0  0  0  0  0  0
   16.6642    2.0555   14.3903 H   0  0  0  0  0  0  0  0  0  0  0  0
   16.4800    2.7993   15.9592 H   0  0  0  0  0  0  0  0  0  0  0  0
   18.3887    1.7508   16.4310 H   0  0  0  0  0  0  0  0  0  0  0  0
   17.8557   -0.1689   14.1582 H   0  0  0  0  0  0  0  0  0  0  0  0
   19.2527   -0.3546   15.2646 H   0  0  0  0  0  0  0  0  0  0  0  0
   19.6560    0.9053   13.4072 H   0  0  0  0  0  0  0  0  0  0  0  0
   18.0412   -1.8302   16.5172 H   0  0  0  0  0  0  0  0  0  0  0  0
   16.0705   -3.4805   14.7973 H   0  0  0  0  0  0  0  0  0  0  0  0
  1  2  1  0
  2  3  2  0
  2  4  2  0
  2  5  1  0
  5  6  1  0
  6  7  1  0
  7  8  1  0
  8  9  1  0
  9 10  1  0
 10 11  1  0
 11 12  1  0
 12 13  2  0
 12 14  1  0
 14 15  2  0
 15 16  1  0
 16 17  2  0
 17 18  1  0
 18 19  2  0
 11 20  1  0
 20 21  1  0
 21 22  1  0
 22 23  1  0
 23 24  1  0
  9 25  1  0
 25 26  1  0
 26 27  1  0
 27 28  1  0
 27 29  1  0
 25  5  1  0
 22  9  1  0
 19 14  1  0
  1 30  1  0
  1 31  1  0
  5 32  1  0
  6 33  1  0
  6 34  1  0
  7 35  1  0
  7 36  1  0
  8 37  1  0
  8 38  1  0
 10 39  1  0
 10 40  1  0
 15 41  1  0
 16 42  1  0
 17 43  1  0
 18 44  1  0
 19 45  1  0
 20 46  1  0
 20 47  1  0
 21 48  1  0
 21 49  1  0
 22 50  1  0
 23 51  1  0
 23 52  1  0
 24 53  1  0
 25 54  1  0
 27 55  1  0
M  END
>  <Energy>  (381) 
57.181728926281458

>  <compound_id>  (381) 
662

>  <target_id>  (381) 
1

>  <reference_id>  (381) 
36

>  <inspiration_ids>  (381) 
[61, 36]

>  <energy_score>  (381) 
9.658884619121778

>  <distance_score>  (381) 
2.3976973076666033

>  <path>  (381) 
/opt/xchem-fragalysis-2/maxwin/BulkDock/SCRATCH/505733/C662-P36/C662-P36.minimised.mol

>  <scratch_subdir>  (381) 
/opt/xchem-fragalysis-2/maxwin/BulkDock/SCRATCH/505733/C662-P36

>  <fragmenstein_runtime>  (381) 
17.89759373664856

>  <fragmenstein_outcome>  (381) 
too moved

>  <fragmenstein_mode>  (381) 
expansion

>  <fragmenstein_error>  (381) 


$$$$
C663-P61
     RDKit          3D

 48 49  0  0  0  0  0  0  0  0999 V2000
   16.0406   -0.7942   22.9415 C   0  0  0  0  0  0  0  0  0  0  0  0
   15.6227   -1.0532   21.5704 N   0  0  0  0  0  0  0  0  0  0  0  0
   15.2706    0.1748   20.8751 C   0  0  0  0  0  0  0  0  0  0  0  0
   14.0283    0.6434   21.3633 O   0  0  0  0  0  0  0  0  0  0  0  0
   15.1215    0.0302   19.3610 C   0  0  0  0  0  0  0  0  0  0  0  0
   14.9389   -1.2316   18.7864 C   0  0  0  0  0  0  0  0  0  0  0  0
   14.6234   -1.4053   17.4249 C   0  0  0  0  0  0  0  0  0  0  0  0
   14.3687   -3.1074   16.9866 S   0  0  0  0  0  0  0  0  0  0  0  0
   15.9377   -3.7040   16.8928 N   0  0  0  0  0  0  0  0  0  0  0  0
   13.8306   -3.1995   15.6542 O   0  0  0  0  0  0  0  0  0  0  0  0
   13.7796   -3.8139   18.1028 O   0  0  0  0  0  0  0  0  0  0  0  0
   14.4959   -0.2907   16.5583 C   0  0  0  0  0  0  0  0  0  0  0  0
   14.0322   -0.3584   15.1931 N   0  0  0  0  0  0  0  0  0  0  0  0
   13.0344    0.4787   14.5662 C   0  0  0  0  0  0  0  0  0  0  0  0
   12.0885    1.1815   15.3340 C   0  0  0  0  0  0  0  0  0  0  0  0
   11.1856    2.0967   14.7623 C   0  0  0  0  0  0  0  0  0  0  0  0
   11.1890    2.3293   13.3921 C   0  0  0  0  0  0  0  0  0  0  0  0
   12.0589    1.6057   12.5909 C   0  0  0  0  0  0  0  0  0  0  0  0
   12.9495    0.6834   13.1697 C   0  0  0  0  0  0  0  0  0  0  0  0
   15.0768   -0.8567   14.2865 C   0  0  0  0  0  0  0  0  0  0  0  0
   15.5873    0.1972   13.5944 F   0  0  0  0  0  0  0  0  0  0  0  0
   16.1417   -1.3872   14.9417 F   0  0  0  0  0  0  0  0  0  0  0  0
   14.8930    0.9786   17.0968 C   0  0  0  0  0  0  0  0  0  0  0  0
   15.0346    2.0924   16.1997 N   0  0  0  0  0  0  0  0  0  0  0  0
   16.1167    2.9606   16.3835 O   0  0  0  0  0  0  0  0  0  0  0  0
   15.0969    1.1541   18.4992 C   0  0  0  0  0  0  0  0  0  0  0  0
   15.2760    2.5444   19.0745 C   0  0  0  0  0  0  0  0  0  0  0  0
   16.6574    2.8794   19.0846 O   0  0  0  0  0  0  0  0  0  0  0  0
   15.2426   -0.3343   23.5331 H   0  0  0  0  0  0  0  0  0  0  0  0
   16.9264   -0.1514   22.9729 H   0  0  0  0  0  0  0  0  0  0  0  0
   16.3083   -1.7404   23.4222 H   0  0  0  0  0  0  0  0  0  0  0  0
   14.8279   -1.6882   21.5747 H   0  0  0  0  0  0  0  0  0  0  0  0
   16.0431    0.9279   21.0680 H   0  0  0  0  0  0  0  0  0  0  0  0
   13.5732   -0.1265   21.7451 H   0  0  0  0  0  0  0  0  0  0  0  0
   15.0013   -2.1150   19.4210 H   0  0  0  0  0  0  0  0  0  0  0  0
   16.1596   -3.9889   15.9389 H   0  0  0  0  0  0  0  0  0  0  0  0
   16.0992   -4.4162   17.6032 H   0  0  0  0  0  0  0  0  0  0  0  0
   12.0765    1.0634   16.4135 H   0  0  0  0  0  0  0  0  0  0  0  0
   10.5112    2.6507   15.4115 H   0  0  0  0  0  0  0  0  0  0  0  0
   10.5344    3.0808   12.9661 H   0  0  0  0  0  0  0  0  0  0  0  0
   12.0753    1.7626   11.5153 H   0  0  0  0  0  0  0  0  0  0  0  0
   13.6019    0.1597   12.4761 H   0  0  0  0  0  0  0  0  0  0  0  0
   14.6955   -1.6021   13.5808 H   0  0  0  0  0  0  0  0  0  0  0  0
   15.0188    1.7384   15.2375 H   0  0  0  0  0  0  0  0  0  0  0  0
   15.7326    3.8340   16.1709 H   0  0  0  0  0  0  0  0  0  0  0  0
   14.8890    2.6349   20.0920 H   0  0  0  0  0  0  0  0  0  0  0  0
   14.7241    3.2951   18.4985 H   0  0  0  0  0  0  0  0  0  0  0  0
   16.9553    2.7114   18.1683 H   0  0  0  0  0  0  0  0  0  0  0  0
  1  2  1  0
  2  3  1  0
  3  4  1  0
  3  5  1  0
  5  6  2  0
  6  7  1  0
  7  8  1  0
  8  9  1  0
  8 10  2  0
  8 11  2  0
  7 12  2  0
 12 13  1  0
 13 14  1  0
 14 15  2  0
 15 16  1  0
 16 17  2  0
 17 18  1  0
 18 19  2  0
 13 20  1  0
 20 21  1  0
 20 22  1  0
 12 23  1  0
 23 24  1  0
 24 25  1  0
 23 26  2  0
 26 27  1  0
 27 28  1  0
 26  5  1  0
 19 14  1  0
  1 29  1  0
  1 30  1  0
  1 31  1  0
  2 32  1  0
  3 33  1  0
  4 34  1  0
  6 35  1  0
  9 36  1  0
  9 37  1  0
 15 38  1  0
 16 39  1  0
 17 40  1  0
 18 41  1  0
 19 42  1  0
 20 43  1  0
 24 44  1  0
 25 45  1  0
 27 46  1  0
 27 47  1  0
 28 48  1  0
M  END
>  <Energy>  (382) 
-43.880835418365251

>  <compound_id>  (382) 
663

>  <target_id>  (382) 
1

>  <reference_id>  (382) 
61

>  <inspiration_ids>  (382) 
[61, 50]

>  <energy_score>  (382) 
-66.96679081278009

>  <distance_score>  (382) 
1.0077132629330576

>  <path>  (382) 
/opt/xchem-fragalysis-2/maxwin/BulkDock/SCRATCH/505733/C663-P61/C663-P61.minimised.mol

>  <scratch_subdir>  (382) 
/opt/xchem-fragalysis-2/maxwin/BulkDock/SCRATCH/505733/C663-P61

>  <fragmenstein_runtime>  (382) 
20.77241277694702

>  <fragmenstein_outcome>  (382) 
too moved

>  <fragmenstein_mode>  (382) 
expansion

>  <fragmenstein_error>  (382) 


$$$$
C663-P50
     RDKit          3D

 48 49  0  0  0  0  0  0  0  0999 V2000
   16.1175   -0.5837   23.0731 C   0  0  0  0  0  0  0  0  0  0  0  0
   15.7011   -0.8413   21.7005 N   0  0  0  0  0  0  0  0  0  0  0  0
   15.3549    0.3848   21.0036 C   0  0  0  0  0  0  0  0  0  0  0  0
   14.1349    0.8846   21.5081 O   0  0  0  0  0  0  0  0  0  0  0  0
   15.1882    0.2373   19.4924 C   0  0  0  0  0  0  0  0  0  0  0  0
   14.9763   -1.0222   18.9249 C   0  0  0  0  0  0  0  0  0  0  0  0
   14.6550   -1.1957   17.5638 C   0  0  0  0  0  0  0  0  0  0  0  0
   14.3567   -2.8884   17.1310 S   0  0  0  0  0  0  0  0  0  0  0  0
   15.9150   -3.4891   16.9573 N   0  0  0  0  0  0  0  0  0  0  0  0
   13.7231   -2.9404   15.8396 O   0  0  0  0  0  0  0  0  0  0  0  0
   13.8201   -3.5991   18.2711 O   0  0  0  0  0  0  0  0  0  0  0  0
   14.5506   -0.0895   16.6821 C   0  0  0  0  0  0  0  0  0  0  0  0
   14.1080   -0.1556   15.3120 N   0  0  0  0  0  0  0  0  0  0  0  0
   13.1059    0.6646   14.6793 C   0  0  0  0  0  0  0  0  0  0  0  0
   12.1100    1.3020   15.4400 C   0  0  0  0  0  0  0  0  0  0  0  0
   11.1873    2.2023   14.8757 C   0  0  0  0  0  0  0  0  0  0  0  0
   11.2289    2.4966   13.5189 C   0  0  0  0  0  0  0  0  0  0  0  0
   12.1623    1.8514   12.7236 C   0  0  0  0  0  0  0  0  0  0  0  0
   13.0685    0.9387   13.2949 C   0  0  0  0  0  0  0  0  0  0  0  0
   15.1263   -0.7343   14.4214 C   0  0  0  0  0  0  0  0  0  0  0  0
   15.6593    0.2470   13.6493 F   0  0  0  0  0  0  0  0  0  0  0  0
   16.1835   -1.2587   15.0948 F   0  0  0  0  0  0  0  0  0  0  0  0
   14.9452    1.1748   17.2219 C   0  0  0  0  0  0  0  0  0  0  0  0
   15.1511    2.2879   16.3349 N   0  0  0  0  0  0  0  0  0  0  0  0
   16.4400    2.8502   16.3013 O   0  0  0  0  0  0  0  0  0  0  0  0
   15.1742    1.3527   18.6224 C   0  0  0  0  0  0  0  0  0  0  0  0
   15.3647    2.7558   19.1641 C   0  0  0  0  0  0  0  0  0  0  0  0
   16.7188    3.1697   18.9891 O   0  0  0  0  0  0  0  0  0  0  0  0
   15.3186   -0.1241   23.6638 H   0  0  0  0  0  0  0  0  0  0  0  0
   17.0035    0.0588   23.1062 H   0  0  0  0  0  0  0  0  0  0  0  0
   16.3840   -1.5306   23.5532 H   0  0  0  0  0  0  0  0  0  0  0  0
   14.9022   -1.4722   21.7105 H   0  0  0  0  0  0  0  0  0  0  0  0
   16.1463    1.1229   21.1782 H   0  0  0  0  0  0  0  0  0  0  0  0
   13.6293    0.1144   21.8190 H   0  0  0  0  0  0  0  0  0  0  0  0
   15.0231   -1.9047   19.5625 H   0  0  0  0  0  0  0  0  0  0  0  0
   16.1669   -3.6775   15.9875 H   0  0  0  0  0  0  0  0  0  0  0  0
   16.1101   -4.2364   17.6209 H   0  0  0  0  0  0  0  0  0  0  0  0
   12.0719    1.1415   16.5124 H   0  0  0  0  0  0  0  0  0  0  0  0
   10.4708    2.7029   15.5229 H   0  0  0  0  0  0  0  0  0  0  0  0
   10.5636    3.2449   13.1029 H   0  0  0  0  0  0  0  0  0  0  0  0
   12.2230    2.0699   11.6605 H   0  0  0  0  0  0  0  0  0  0  0  0
   13.7789    0.4921   12.6057 H   0  0  0  0  0  0  0  0  0  0  0  0
   14.7138   -1.5131   13.7776 H   0  0  0  0  0  0  0  0  0  0  0  0
   14.8988    2.0030   15.3858 H   0  0  0  0  0  0  0  0  0  0  0  0
   16.5145    3.3399   17.1482 H   0  0  0  0  0  0  0  0  0  0  0  0
   15.1131    2.8473   20.2226 H   0  0  0  0  0  0  0  0  0  0  0  0
   14.7096    3.4668   18.6481 H   0  0  0  0  0  0  0  0  0  0  0  0
   17.2746    2.3738   19.0737 H   0  0  0  0  0  0  0  0  0  0  0  0
  1  2  1  0
  2  3  1  0
  3  4  1  0
  3  5  1  0
  5  6  2  0
  6  7  1  0
  7  8  1  0
  8  9  1  0
  8 10  2  0
  8 11  2  0
  7 12  2  0
 12 13  1  0
 13 14  1  0
 14 15  2  0
 15 16  1  0
 16 17  2  0
 17 18  1  0
 18 19  2  0
 13 20  1  0
 20 21  1  0
 20 22  1  0
 12 23  1  0
 23 24  1  0
 24 25  1  0
 23 26  2  0
 26 27  1  0
 27 28  1  0
 26  5  1  0
 19 14  1  0
  1 29  1  0
  1 30  1  0
  1 31  1  0
  2 32  1  0
  3 33  1  0
  4 34  1  0
  6 35  1  0
  9 36  1  0
  9 37  1  0
 15 38  1  0
 16 39  1  0
 17 40  1  0
 18 41  1  0
 19 42  1  0
 20 43  1  0
 24 44  1  0
 25 45  1  0
 27 46  1  0
 27 47  1  0
 28 48  1  0
M  END
>  <Energy>  (383) 
-41.908018468923373

>  <compound_id>  (383) 
663

>  <target_id>  (383) 
1

>  <reference_id>  (383) 
50

>  <inspiration_ids>  (383) 
[61, 50]

>  <energy_score>  (383) 
-64.99397386333754

>  <distance_score>  (383) 
1.0569619252751503

>  <path>  (383) 
/opt/xchem-fragalysis-2/maxwin/BulkDock/SCRATCH/505733/C663-P50/C663-P50.minimised.mol

>  <scratch_subdir>  (383) 
/opt/xchem-fragalysis-2/maxwin/BulkDock/SCRATCH/505733/C663-P50

>  <fragmenstein_runtime>  (383) 
21.58664345741272

>  <fragmenstein_outcome>  (383) 
too moved

>  <fragmenstein_mode>  (383) 
expansion

>  <fragmenstein_error>  (383) 


$$$$
C665-P61
     RDKit          3D

 47 49  0  0  0  0  0  0  0  0999 V2000
   16.8813   -4.6144   17.6287 N   0  0  0  0  0  0  0  0  0  0  0  0
   15.4210   -3.7928   17.6125 S   0  0  0  0  0  0  0  0  0  0  0  0
   14.8330   -3.9813   16.3102 O   0  0  0  0  0  0  0  0  0  0  0  0
   14.7246   -4.2299   18.8021 O   0  0  0  0  0  0  0  0  0  0  0  0
   15.9275   -2.1040   17.8296 C   0  0  0  0  0  0  0  0  0  0  0  0
   15.7835   -1.5406   19.1086 C   0  0  0  0  0  0  0  0  0  0  0  0
   16.0649   -0.1905   19.3144 C   0  0  0  0  0  0  0  0  0  0  0  0
   16.5050    0.5957   18.2534 C   0  0  0  0  0  0  0  0  0  0  0  0
   16.6595    0.0361   16.9835 C   0  0  0  0  0  0  0  0  0  0  0  0
   16.3374   -1.3061   16.7511 C   0  0  0  0  0  0  0  0  0  0  0  0
   16.4804   -1.8416   15.5044 O   0  0  0  0  0  0  0  0  0  0  0  0
   15.7170   -1.2483   14.4326 C   0  0  0  0  0  0  0  0  0  0  0  0
   16.1464    0.0194   14.1818 F   0  0  0  0  0  0  0  0  0  0  0  0
   14.1993   -1.2437   14.6800 C   0  0  0  0  0  0  0  0  0  0  0  0
   13.4183   -1.0951   13.3703 C   0  0  0  0  0  0  0  0  0  0  0  0
   13.2577    0.3437   12.9207 C   0  0  0  0  0  0  0  0  0  0  0  0
   14.4772    0.8573   12.3855 O   0  0  0  0  0  0  0  0  0  0  0  0
   12.7336    1.2343   14.0252 C   0  0  0  0  0  0  0  0  0  0  0  0
   13.5619    1.1046   15.2892 C   0  0  0  0  0  0  0  0  0  0  0  0
   13.8210   -0.2568   15.7142 N   0  0  0  0  0  0  0  0  0  0  0  0
   13.0155   -0.7398   16.8129 C   0  0  0  0  0  0  0  0  0  0  0  0
   11.7995   -1.3438   16.2671 C   0  0  0  0  0  0  0  0  0  0  0  0
   10.6164   -0.6521   15.8670 C   0  0  0  0  0  0  0  0  0  0  0  0
    9.7669   -1.4926   15.2013 C   0  0  0  0  0  0  0  0  0  0  0  0
   10.5271   -3.0034   14.9077 S   0  0  0  0  0  0  0  0  0  0  0  0
   11.7251   -2.6997   16.0296 C   0  0  0  0  0  0  0  0  0  0  0  0
   17.6855   -4.0088   17.4675 H   0  0  0  0  0  0  0  0  0  0  0  0
   16.9621   -5.1656   18.4838 H   0  0  0  0  0  0  0  0  0  0  0  0
   15.4249   -2.1373   19.9465 H   0  0  0  0  0  0  0  0  0  0  0  0
   15.9405    0.2467   20.3028 H   0  0  0  0  0  0  0  0  0  0  0  0
   16.7360    1.6464   18.4130 H   0  0  0  0  0  0  0  0  0  0  0  0
   17.0234    0.6644   16.1748 H   0  0  0  0  0  0  0  0  0  0  0  0
   15.9535   -1.8418   13.5435 H   0  0  0  0  0  0  0  0  0  0  0  0
   13.9967   -2.2520   15.0305 H   0  0  0  0  0  0  0  0  0  0  0  0
   13.9075   -1.6764   12.5787 H   0  0  0  0  0  0  0  0  0  0  0  0
   12.4209   -1.5182   13.4778 H   0  0  0  0  0  0  0  0  0  0  0  0
   12.5478    0.4118   12.0970 H   0  0  0  0  0  0  0  0  0  0  0  0
   15.1549    0.8653   13.0890 H   0  0  0  0  0  0  0  0  0  0  0  0
   12.7677    2.2816   13.6994 H   0  0  0  0  0  0  0  0  0  0  0  0
   11.6838    1.0062   14.2130 H   0  0  0  0  0  0  0  0  0  0  0  0
   13.0967    1.6991   16.0858 H   0  0  0  0  0  0  0  0  0  0  0  0
   14.5287    1.5952   15.1221 H   0  0  0  0  0  0  0  0  0  0  0  0
   13.5426   -1.4887   17.3988 H   0  0  0  0  0  0  0  0  0  0  0  0
   12.8161    0.0705   17.5139 H   0  0  0  0  0  0  0  0  0  0  0  0
   10.4225    0.4022   16.0142 H   0  0  0  0  0  0  0  0  0  0  0  0
    8.8049   -1.2707   14.7589 H   0  0  0  0  0  0  0  0  0  0  0  0
   12.4285   -3.4760   16.2954 H   0  0  0  0  0  0  0  0  0  0  0  0
  1  2  1  0
  2  3  2  0
  2  4  2  0
  2  5  1  0
  5  6  2  0
  6  7  1  0
  7  8  2  0
  8  9  1  0
  9 10  2  0
 10 11  1  0
 11 12  1  0
 12 13  1  0
 12 14  1  0
 14 15  1  0
 15 16  1  0
 16 17  1  0
 16 18  1  0
 18 19  1  0
 19 20  1  0
 20 21  1  0
 21 22  1  0
 22 23  1  0
 23 24  2  0
 24 25  1  0
 25 26  1  0
 10  5  1  0
 20 14  1  0
 26 22  2  0
  1 27  1  0
  1 28  1  0
  6 29  1  0
  7 30  1  0
  8 31  1  0
  9 32  1  0
 12 33  1  0
 14 34  1  0
 15 35  1  0
 15 36  1  0
 16 37  1  0
 17 38  1  0
 18 39  1  0
 18 40  1  0
 19 41  1  0
 19 42  1  0
 21 43  1  0
 21 44  1  0
 23 45  1  0
 24 46  1  0
 26 47  1  0
M  END
>  <Energy>  (384) 
19.830825654414781

>  <compound_id>  (384) 
665

>  <target_id>  (384) 
1

>  <reference_id>  (384) 
61

>  <inspiration_ids>  (384) 
[61, 60]

>  <energy_score>  (384) 
-56.50828966351395

>  <distance_score>  (384) 
1.8531872825856888

>  <path>  (384) 
/opt/xchem-fragalysis-2/maxwin/BulkDock/SCRATCH/505733/C665-P61/C665-P61.minimised.mol

>  <scratch_subdir>  (384) 
/opt/xchem-fragalysis-2/maxwin/BulkDock/SCRATCH/505733/C665-P61

>  <fragmenstein_runtime>  (384) 
4.758450269699097

>  <fragmenstein_outcome>  (384) 
too moved

>  <fragmenstein_mode>  (384) 
expansion

>  <fragmenstein_error>  (384) 


$$$$
C665-P60
     RDKit          3D

 47 49  0  0  0  0  0  0  0  0999 V2000
   16.7175   -4.6456   17.7428 N   0  0  0  0  0  0  0  0  0  0  0  0
   15.2395   -3.8717   17.9474 S   0  0  0  0  0  0  0  0  0  0  0  0
   14.5272   -4.1057   16.7168 O   0  0  0  0  0  0  0  0  0  0  0  0
   14.6995   -4.2949   19.2160 O   0  0  0  0  0  0  0  0  0  0  0  0
   15.7331   -2.1745   18.0630 C   0  0  0  0  0  0  0  0  0  0  0  0
   15.8642   -1.5907   19.3265 C   0  0  0  0  0  0  0  0  0  0  0  0
   16.2582   -0.2556   19.4353 C   0  0  0  0  0  0  0  0  0  0  0  0
   16.5449    0.4873   18.2902 C   0  0  0  0  0  0  0  0  0  0  0  0
   16.4011   -0.0916   17.0300 C   0  0  0  0  0  0  0  0  0  0  0  0
   15.9387   -1.4034   16.9153 C   0  0  0  0  0  0  0  0  0  0  0  0
   15.6942   -1.9187   15.6785 O   0  0  0  0  0  0  0  0  0  0  0  0
   14.4843   -1.4214   15.0797 C   0  0  0  0  0  0  0  0  0  0  0  0
   14.7867   -0.2113   14.5246 F   0  0  0  0  0  0  0  0  0  0  0  0
   13.2151   -1.3094   16.0404 C   0  0  0  0  0  0  0  0  0  0  0  0
   12.1973   -2.4061   15.7289 C   0  0  0  0  0  0  0  0  0  0  0  0
   11.3478   -2.0630   14.5286 C   0  0  0  0  0  0  0  0  0  0  0  0
   11.4730   -3.1470   13.6212 O   0  0  0  0  0  0  0  0  0  0  0  0
   11.7769   -0.7930   13.8101 C   0  0  0  0  0  0  0  0  0  0  0  0
   12.0134    0.3700   14.7441 C   0  0  0  0  0  0  0  0  0  0  0  0
   12.4542   -0.0302   16.0779 N   0  0  0  0  0  0  0  0  0  0  0  0
   13.2470    0.9972   16.7484 C   0  0  0  0  0  0  0  0  0  0  0  0
   12.6641    2.4027   16.6845 C   0  0  0  0  0  0  0  0  0  0  0  0
   13.4938    3.5791   16.6126 C   0  0  0  0  0  0  0  0  0  0  0  0
   12.7730    4.7499   16.5403 C   0  0  0  0  0  0  0  0  0  0  0  0
   11.0917    4.4634   16.5502 S   0  0  0  0  0  0  0  0  0  0  0  0
   11.3306    2.7762   16.6847 C   0  0  0  0  0  0  0  0  0  0  0  0
   16.7576   -5.0093   16.7878 H   0  0  0  0  0  0  0  0  0  0  0  0
   17.5156   -4.0430   17.9411 H   0  0  0  0  0  0  0  0  0  0  0  0
   15.6570   -2.1628   20.2303 H   0  0  0  0  0  0  0  0  0  0  0  0
   16.3560    0.2004   20.4189 H   0  0  0  0  0  0  0  0  0  0  0  0
   16.8750    1.5196   18.3813 H   0  0  0  0  0  0  0  0  0  0  0  0
   16.6160    0.4924   16.1374 H   0  0  0  0  0  0  0  0  0  0  0  0
   14.2724   -2.0943   14.2447 H   0  0  0  0  0  0  0  0  0  0  0  0
   13.4976   -1.5204   17.0722 H   0  0  0  0  0  0  0  0  0  0  0  0
   11.5387   -2.5262   16.5931 H   0  0  0  0  0  0  0  0  0  0  0  0
   12.6731   -3.3778   15.5944 H   0  0  0  0  0  0  0  0  0  0  0  0
   10.3001   -1.9915   14.8444 H   0  0  0  0  0  0  0  0  0  0  0  0
   10.7354   -3.0041   13.0071 H   0  0  0  0  0  0  0  0  0  0  0  0
   12.6733   -0.9863   13.2099 H   0  0  0  0  0  0  0  0  0  0  0  0
   11.0285   -0.4747   13.0832 H   0  0  0  0  0  0  0  0  0  0  0  0
   11.0617    0.9045   14.8336 H   0  0  0  0  0  0  0  0  0  0  0  0
   12.7177    1.0557   14.2553 H   0  0  0  0  0  0  0  0  0  0  0  0
   14.2337    1.0766   16.2899 H   0  0  0  0  0  0  0  0  0  0  0  0
   13.3856    0.7397   17.8048 H   0  0  0  0  0  0  0  0  0  0  0  0
   14.5773    3.5589   16.6096 H   0  0  0  0  0  0  0  0  0  0  0  0
   13.1549    5.7595   16.4785 H   0  0  0  0  0  0  0  0  0  0  0  0
   10.4664    2.1304   16.7320 H   0  0  0  0  0  0  0  0  0  0  0  0
  1  2  1  0
  2  3  2  0
  2  4  2  0
  2  5  1  0
  5  6  2  0
  6  7  1  0
  7  8  2  0
  8  9  1  0
  9 10  2  0
 10 11  1  0
 11 12  1  0
 12 13  1  0
 12 14  1  0
 14 15  1  0
 15 16  1  0
 16 17  1  0
 16 18  1  0
 18 19  1  0
 19 20  1  0
 20 21  1  0
 21 22  1  0
 22 23  1  0
 23 24  2  0
 24 25  1  0
 25 26  1  0
 10  5  1  0
 20 14  1  0
 26 22  2  0
  1 27  1  0
  1 28  1  0
  6 29  1  0
  7 30  1  0
  8 31  1  0
  9 32  1  0
 12 33  1  0
 14 34  1  0
 15 35  1  0
 15 36  1  0
 16 37  1  0
 17 38  1  0
 18 39  1  0
 18 40  1  0
 19 41  1  0
 19 42  1  0
 21 43  1  0
 21 44  1  0
 23 45  1  0
 24 46  1  0
 26 47  1  0
M  END
>  <Energy>  (385) 
18.643281478265472

>  <compound_id>  (385) 
665

>  <target_id>  (385) 
1

>  <reference_id>  (385) 
60

>  <inspiration_ids>  (385) 
[61, 60]

>  <energy_score>  (385) 
-57.69583383966125

>  <distance_score>  (385) 
1.525258816831667

>  <path>  (385) 
/opt/xchem-fragalysis-2/maxwin/BulkDock/SCRATCH/505733/C665-P60/C665-P60.minimised.mol

>  <scratch_subdir>  (385) 
/opt/xchem-fragalysis-2/maxwin/BulkDock/SCRATCH/505733/C665-P60

>  <fragmenstein_runtime>  (385) 
4.694998264312744

>  <fragmenstein_outcome>  (385) 
too moved

>  <fragmenstein_mode>  (385) 
expansion

>  <fragmenstein_error>  (385) 


$$$$
C666-P61
     RDKit          3D

 31 32  0  0  0  0  0  0  0  0999 V2000
    9.6180   -0.7617   14.9889 N   0  0  0  0  0  0  0  0  0  0  0  0
   10.8075   -1.2399   15.4212 C   0  0  0  0  0  0  0  0  0  0  0  0
   11.3511   -2.5045   15.4168 C   0  0  0  0  0  0  0  0  0  0  0  0
   12.5743   -2.3584   16.0850 C   0  0  0  0  0  0  0  0  0  0  0  0
   13.5748   -3.3936   16.2072 N   0  0  0  0  0  0  0  0  0  0  0  0
   14.5095   -3.4326   17.4163 S   0  0  0  0  0  0  0  0  0  0  0  0
   15.7034   -4.4565   16.7824 N   0  0  0  0  0  0  0  0  0  0  0  0
   14.2382   -4.0555   18.6919 O   0  0  0  0  0  0  0  0  0  0  0  0
   15.2903   -1.8561   17.6802 C   0  0  0  0  0  0  0  0  0  0  0  0
   15.2900   -1.3189   18.9729 C   0  0  0  0  0  0  0  0  0  0  0  0
   15.7744   -0.0297   19.1790 C   0  0  0  0  0  0  0  0  0  0  0  0
   16.2498    0.7151   18.1000 C   0  0  0  0  0  0  0  0  0  0  0  0
   16.2567    0.1737   16.8099 C   0  0  0  0  0  0  0  0  0  0  0  0
   15.7752   -1.1173   16.5854 C   0  0  0  0  0  0  0  0  0  0  0  0
   15.7588   -1.7215   15.3599 O   0  0  0  0  0  0  0  0  0  0  0  0
   15.5824   -0.9121   14.2051 C   0  0  0  0  0  0  0  0  0  0  0  0
   14.6111    0.0161   14.3845 F   0  0  0  0  0  0  0  0  0  0  0  0
   16.7400   -0.2610   13.9439 F   0  0  0  0  0  0  0  0  0  0  0  0
   12.8088   -1.0999   16.4392 N   0  0  0  0  0  0  0  0  0  0  0  0
   11.7575   -0.4289   15.9703 N   0  0  0  0  0  0  0  0  0  0  0  0
    9.5830    0.2092   14.6910 H   0  0  0  0  0  0  0  0  0  0  0  0
    9.2167   -1.3204   14.2112 H   0  0  0  0  0  0  0  0  0  0  0  0
   10.9257   -3.4076   15.0081 H   0  0  0  0  0  0  0  0  0  0  0  0
   16.2005   -3.8802   16.1119 H   0  0  0  0  0  0  0  0  0  0  0  0
   15.1441   -5.0671   16.1949 H   0  0  0  0  0  0  0  0  0  0  0  0
   14.8924   -1.8860   19.8126 H   0  0  0  0  0  0  0  0  0  0  0  0
   15.7709    0.3976   20.1791 H   0  0  0  0  0  0  0  0  0  0  0  0
   16.6260    1.7224   18.2643 H   0  0  0  0  0  0  0  0  0  0  0  0
   16.6529    0.7812   16.0016 H   0  0  0  0  0  0  0  0  0  0  0  0
   15.3236   -1.5415   13.3494 H   0  0  0  0  0  0  0  0  0  0  0  0
   11.7365    0.5772   16.0902 H   0  0  0  0  0  0  0  0  0  0  0  0
  1  2  1  0
  2  3  2  0
  3  4  1  0
  4  5  1  0
  5  6  2  0
  6  7  1  0
  6  8  2  0
  6  9  1  0
  9 10  2  0
 10 11  1  0
 11 12  2  0
 12 13  1  0
 13 14  2  0
 14 15  1  0
 15 16  1  0
 16 17  1  0
 16 18  1  0
  4 19  2  0
 19 20  1  0
 20  2  1  0
 14  9  1  0
  1 21  1  0
  1 22  1  0
  3 23  1  0
  7 24  1  0
  7 25  1  0
 10 26  1  0
 11 27  1  0
 12 28  1  0
 13 29  1  0
 16 30  1  0
 20 31  1  0
M  END
>  <Energy>  (386) 
-89.457351755591205

>  <compound_id>  (386) 
666

>  <target_id>  (386) 
1

>  <reference_id>  (386) 
61

>  <inspiration_ids>  (386) 
[61, 63]

>  <energy_score>  (386) 
-57.49943150993232

>  <distance_score>  (386) 
0.5932927710370116

>  <path>  (386) 
/opt/xchem-fragalysis-2/maxwin/BulkDock/SCRATCH/505733/C666-P61/C666-P61.minimised.mol

>  <scratch_subdir>  (386) 
/opt/xchem-fragalysis-2/maxwin/BulkDock/SCRATCH/505733/C666-P61

>  <fragmenstein_runtime>  (386) 
1.865112543106079

>  <fragmenstein_outcome>  (386) 
acceptable

>  <fragmenstein_mode>  (386) 
expansion

>  <fragmenstein_error>  (386) 


$$$$
C666-P63
     RDKit          3D

 31 32  0  0  0  0  0  0  0  0999 V2000
    9.6457   -0.7302   14.9792 N   0  0  0  0  0  0  0  0  0  0  0  0
   10.8274   -1.2148   15.4252 C   0  0  0  0  0  0  0  0  0  0  0  0
   11.3549   -2.4861   15.4458 C   0  0  0  0  0  0  0  0  0  0  0  0
   12.5720   -2.3453   16.1265 C   0  0  0  0  0  0  0  0  0  0  0  0
   13.5549   -3.3926   16.2751 N   0  0  0  0  0  0  0  0  0  0  0  0
   14.5088   -3.4189   17.4677 S   0  0  0  0  0  0  0  0  0  0  0  0
   15.6888   -4.4562   16.8260 N   0  0  0  0  0  0  0  0  0  0  0  0
   14.2584   -4.0258   18.7552 O   0  0  0  0  0  0  0  0  0  0  0  0
   15.2992   -1.8425   17.7006 C   0  0  0  0  0  0  0  0  0  0  0  0
   15.3116   -1.2874   18.9857 C   0  0  0  0  0  0  0  0  0  0  0  0
   15.8024    0.0024   19.1705 C   0  0  0  0  0  0  0  0  0  0  0  0
   16.2725    0.7301   18.0777 C   0  0  0  0  0  0  0  0  0  0  0  0
   16.2672    0.1708   16.7952 C   0  0  0  0  0  0  0  0  0  0  0  0
   15.7784   -1.1210   16.5916 C   0  0  0  0  0  0  0  0  0  0  0  0
   15.7462   -1.7402   15.3738 O   0  0  0  0  0  0  0  0  0  0  0  0
   15.5736   -0.9432   14.2094 C   0  0  0  0  0  0  0  0  0  0  0  0
   14.6131   -0.0022   14.3817 F   0  0  0  0  0  0  0  0  0  0  0  0
   16.7370   -0.3074   13.9355 F   0  0  0  0  0  0  0  0  0  0  0  0
   12.8198   -1.0843   16.4613 N   0  0  0  0  0  0  0  0  0  0  0  0
   11.7862   -0.4070   15.9622 N   0  0  0  0  0  0  0  0  0  0  0  0
    9.6235    0.2300   14.6483 H   0  0  0  0  0  0  0  0  0  0  0  0
    9.2325   -1.3091   14.2228 H   0  0  0  0  0  0  0  0  0  0  0  0
   10.9219   -3.3899   15.0458 H   0  0  0  0  0  0  0  0  0  0  0  0
   16.1779   -3.8881   16.1425 H   0  0  0  0  0  0  0  0  0  0  0  0
   15.1196   -5.0701   16.2506 H   0  0  0  0  0  0  0  0  0  0  0  0
   14.9178   -1.8407   19.8364 H   0  0  0  0  0  0  0  0  0  0  0  0
   15.8074    0.4439   20.1644 H   0  0  0  0  0  0  0  0  0  0  0  0
   16.6534    1.7383   18.2252 H   0  0  0  0  0  0  0  0  0  0  0  0
   16.6589    0.7663   15.9758 H   0  0  0  0  0  0  0  0  0  0  0  0
   15.3044   -1.5802   13.3627 H   0  0  0  0  0  0  0  0  0  0  0  0
   11.7804    0.6016   16.0593 H   0  0  0  0  0  0  0  0  0  0  0  0
  1  2  1  0
  2  3  2  0
  3  4  1  0
  4  5  1  0
  5  6  2  0
  6  7  1  0
  6  8  2  0
  6  9  1  0
  9 10  2  0
 10 11  1  0
 11 12  2  0
 12 13  1  0
 13 14  2  0
 14 15  1  0
 15 16  1  0
 16 17  1  0
 16 18  1  0
  4 19  2  0
 19 20  1  0
 20  2  1  0
 14  9  1  0
  1 21  1  0
  1 22  1  0
  3 23  1  0
  7 24  1  0
  7 25  1  0
 10 26  1  0
 11 27  1  0
 12 28  1  0
 13 29  1  0
 16 30  1  0
 20 31  1  0
M  END
>  <Energy>  (387) 
-89.13241202241872

>  <compound_id>  (387) 
666

>  <target_id>  (387) 
1

>  <reference_id>  (387) 
63

>  <inspiration_ids>  (387) 
[61, 63]

>  <energy_score>  (387) 
-57.17449177675854

>  <distance_score>  (387) 
0.5894494633701122

>  <path>  (387) 
/opt/xchem-fragalysis-2/maxwin/BulkDock/SCRATCH/505733/C666-P63/C666-P63.minimised.mol

>  <scratch_subdir>  (387) 
/opt/xchem-fragalysis-2/maxwin/BulkDock/SCRATCH/505733/C666-P63

>  <fragmenstein_runtime>  (387) 
2.398360252380371

>  <fragmenstein_outcome>  (387) 
acceptable

>  <fragmenstein_mode>  (387) 
expansion

>  <fragmenstein_error>  (387) 


$$$$
C667-P61
     RDKit          3D

 62 64  0  0  0  0  0  0  0  0999 V2000
   12.0493   -1.1099   13.9962 C   0  0  0  0  0  0  0  0  0  0  0  0
   11.7023   -1.4801   15.4284 C   0  0  0  0  0  0  0  0  0  0  0  0
   12.7471   -2.3684   16.1053 C   0  0  0  0  0  0  0  0  0  0  0  0
   14.1699   -1.8177   15.9541 C   0  0  0  0  0  0  0  0  0  0  0  0
   15.1419   -2.3474   17.0200 C   0  0  0  0  0  0  0  0  0  0  0  0
   14.7928   -1.7721   18.4170 C   0  0  0  0  0  0  0  0  0  0  0  0
   16.1140   -1.3439   19.0615 C   0  0  0  0  0  0  0  0  0  0  0  0
   16.0151   -0.2621   20.1664 C   0  0  0  0  0  0  0  0  0  0  0  0
   14.9842   -0.6857   21.2396 C   0  0  0  0  0  0  0  0  0  0  0  0
   14.8471    0.1979   22.4856 C   0  0  0  0  0  0  0  0  0  0  0  0
   16.1647    0.4652   23.1980 C   0  0  0  0  0  0  0  0  0  0  0  0
   14.2366    1.4346   22.1314 O   0  0  0  0  0  0  0  0  0  0  0  0
   15.7394    1.1348   19.5838 C   0  0  0  0  0  0  0  0  0  0  0  0
   16.6945    1.4828   18.5259 N   0  0  0  0  0  0  0  0  0  0  0  0
   16.6058    0.5258   17.4141 C   0  0  0  0  0  0  0  0  0  0  0  0
   16.9497   -0.9143   17.8511 C   0  0  0  0  0  0  0  0  0  0  0  0
   18.2690   -0.9090   18.1998 F   0  0  0  0  0  0  0  0  0  0  0  0
   16.6738   -2.0303   16.8110 C   0  0  0  0  0  0  0  0  0  0  0  0
   17.0556   -1.6475   15.3765 C   0  0  0  0  0  0  0  0  0  0  0  0
   16.3522   -0.5645   14.9556 F   0  0  0  0  0  0  0  0  0  0  0  0
   17.5383   -3.2734   17.1928 C   0  0  0  0  0  0  0  0  0  0  0  0
   16.9913   -4.3116   17.7542 N   0  0  0  0  0  0  0  0  0  0  0  0
   19.0444   -3.2819   16.9248 C   0  0  0  0  0  0  0  0  0  0  0  0
   19.3697   -4.0949   15.7172 C   0  0  0  0  0  0  0  0  0  0  0  0
   18.6499   -4.9855   14.9457 C   0  0  0  0  0  0  0  0  0  0  0  0
   19.5478   -5.4169   13.9545 C   0  0  0  0  0  0  0  0  0  0  0  0
   20.7461   -4.8456   14.0753 N   0  0  0  0  0  0  0  0  0  0  0  0
   20.6197   -4.0583   15.1537 N   0  0  0  0  0  0  0  0  0  0  0  0
   11.2710   -0.4652   13.5789 H   0  0  0  0  0  0  0  0  0  0  0  0
   12.1394   -2.0071   13.3766 H   0  0  0  0  0  0  0  0  0  0  0  0
   12.9860   -0.5491   13.9289 H   0  0  0  0  0  0  0  0  0  0  0  0
   10.7318   -1.9884   15.4472 H   0  0  0  0  0  0  0  0  0  0  0  0
   11.5868   -0.5574   16.0098 H   0  0  0  0  0  0  0  0  0  0  0  0
   12.4805   -2.4706   17.1607 H   0  0  0  0  0  0  0  0  0  0  0  0
   12.7047   -3.3772   15.6784 H   0  0  0  0  0  0  0  0  0  0  0  0
   14.1453   -0.7238   15.9909 H   0  0  0  0  0  0  0  0  0  0  0  0
   14.5215   -2.1064   14.9576 H   0  0  0  0  0  0  0  0  0  0  0  0
   14.9768   -3.4306   17.0449 H   0  0  0  0  0  0  0  0  0  0  0  0
   14.1156   -0.9165   18.3237 H   0  0  0  0  0  0  0  0  0  0  0  0
   14.2858   -2.5268   19.0286 H   0  0  0  0  0  0  0  0  0  0  0  0
   16.5783   -2.2243   19.5262 H   0  0  0  0  0  0  0  0  0  0  0  0
   17.0039   -0.2247   20.6447 H   0  0  0  0  0  0  0  0  0  0  0  0
   13.9982   -0.7370   20.7660 H   0  0  0  0  0  0  0  0  0  0  0  0
   15.2331   -1.7018   21.5722 H   0  0  0  0  0  0  0  0  0  0  0  0
   14.1645   -0.3053   23.1807 H   0  0  0  0  0  0  0  0  0  0  0  0
   16.6842   -0.4673   23.4377 H   0  0  0  0  0  0  0  0  0  0  0  0
   16.8258    1.0994   22.5987 H   0  0  0  0  0  0  0  0  0  0  0  0
   15.9844    1.0097   24.1315 H   0  0  0  0  0  0  0  0  0  0  0  0
   14.0730    1.9236   22.9560 H   0  0  0  0  0  0  0  0  0  0  0  0
   14.7139    1.2129   19.2039 H   0  0  0  0  0  0  0  0  0  0  0  0
   15.8463    1.8964   20.3615 H   0  0  0  0  0  0  0  0  0  0  0  0
   17.6395    1.4399   18.9128 H   0  0  0  0  0  0  0  0  0  0  0  0
   15.6109    0.6012   16.9673 H   0  0  0  0  0  0  0  0  0  0  0  0
   17.3267    0.8546   16.6577 H   0  0  0  0  0  0  0  0  0  0  0  0
   18.1106   -1.3784   15.2820 H   0  0  0  0  0  0  0  0  0  0  0  0
   16.8551   -2.4656   14.6770 H   0  0  0  0  0  0  0  0  0  0  0  0
   17.6935   -5.0413   17.9358 H   0  0  0  0  0  0  0  0  0  0  0  0
   19.4248   -2.2644   16.8075 H   0  0  0  0  0  0  0  0  0  0  0  0
   19.5443   -3.7140   17.8001 H   0  0  0  0  0  0  0  0  0  0  0  0
   17.6187   -5.2891   15.0721 H   0  0  0  0  0  0  0  0  0  0  0  0
   19.3797   -6.1220   13.1512 H   0  0  0  0  0  0  0  0  0  0  0  0
   21.4292   -3.5213   15.4496 H   0  0  0  0  0  0  0  0  0  0  0  0
  1  2  1  0
  2  3  1  0
  3  4  1  0
  4  5  1  0
  5  6  1  0
  6  7  1  0
  7  8  1  0
  8  9  1  0
  9 10  1  0
 10 11  1  0
 10 12  1  0
  8 13  1  0
 13 14  1  0
 14 15  1  0
 15 16  1  0
 16 17  1  0
 16 18  1  0
 18 19  1  0
 19 20  1  0
 18 21  1  0
 21 22  2  3
 21 23  1  0
 23 24  1  0
 24 25  2  0
 25 26  1  0
 26 27  2  0
 27 28  1  0
 18  5  1  0
 28 24  1  0
 16  7  1  0
  1 29  1  0
  1 30  1  0
  1 31  1  0
  2 32  1  0
  2 33  1  0
  3 34  1  0
  3 35  1  0
  4 36  1  0
  4 37  1  0
  5 38  1  0
  6 39  1  0
  6 40  1  0
  7 41  1  0
  8 42  1  0
  9 43  1  0
  9 44  1  0
 10 45  1  0
 11 46  1  0
 11 47  1  0
 11 48  1  0
 12 49  1  0
 13 50  1  0
 13 51  1  0
 14 52  1  0
 15 53  1  0
 15 54  1  0
 19 55  1  0
 19 56  1  0
 22 57  1  0
 23 58  1  0
 23 59  1  0
 25 60  1  0
 26 61  1  0
 28 62  1  0
M  END
>  <Energy>  (388) 
82.549162322464269

>  <compound_id>  (388) 
667

>  <target_id>  (388) 
1

>  <reference_id>  (388) 
61

>  <inspiration_ids>  (388) 
[61, 71]

>  <energy_score>  (388) 
-73.83106866007543

>  <distance_score>  (388) 
1.2857334052607685

>  <path>  (388) 
/opt/xchem-fragalysis-2/maxwin/BulkDock/SCRATCH/505733/C667-P61/C667-P61.minimised.mol

>  <scratch_subdir>  (388) 
/opt/xchem-fragalysis-2/maxwin/BulkDock/SCRATCH/505733/C667-P61

>  <fragmenstein_runtime>  (388) 
14.677798509597778

>  <fragmenstein_outcome>  (388) 
too moved

>  <fragmenstein_mode>  (388) 
expansion

>  <fragmenstein_error>  (388) 


$$$$
C667-P71
     RDKit          3D

 62 64  0  0  0  0  0  0  0  0999 V2000
   11.9500   -2.5887   14.0434 C   0  0  0  0  0  0  0  0  0  0  0  0
   11.7008   -3.0106   15.4814 C   0  0  0  0  0  0  0  0  0  0  0  0
   12.9453   -2.8820   16.3552 C   0  0  0  0  0  0  0  0  0  0  0  0
   13.4292   -1.4392   16.3870 C   0  0  0  0  0  0  0  0  0  0  0  0
   14.8016   -1.2610   17.0386 C   0  0  0  0  0  0  0  0  0  0  0  0
   14.7852   -1.2700   18.5642 C   0  0  0  0  0  0  0  0  0  0  0  0
   16.1455   -0.6985   18.9570 C   0  0  0  0  0  0  0  0  0  0  0  0
   16.1986    0.0193   20.3273 C   0  0  0  0  0  0  0  0  0  0  0  0
   15.5396   -0.8403   21.4339 C   0  0  0  0  0  0  0  0  0  0  0  0
   15.7539   -0.4016   22.8894 C   0  0  0  0  0  0  0  0  0  0  0  0
   17.2188   -0.3071   23.2902 C   0  0  0  0  0  0  0  0  0  0  0  0
   15.1268    0.8532   23.1262 O   0  0  0  0  0  0  0  0  0  0  0  0
   15.6128    1.4426   20.2444 C   0  0  0  0  0  0  0  0  0  0  0  0
   16.0648    2.2541   19.1032 N   0  0  0  0  0  0  0  0  0  0  0  0
   17.0286    1.5815   18.2480 C   0  0  0  0  0  0  0  0  0  0  0  0
   16.5809    0.1962   17.7706 C   0  0  0  0  0  0  0  0  0  0  0  0
   17.7078   -0.4058   17.2577 F   0  0  0  0  0  0  0  0  0  0  0  0
   15.4675    0.1085   16.6878 C   0  0  0  0  0  0  0  0  0  0  0  0
   14.4408    1.2594   16.7041 C   0  0  0  0  0  0  0  0  0  0  0  0
   13.6548    1.2178   17.8076 F   0  0  0  0  0  0  0  0  0  0  0  0
   16.1109    0.0429   15.2771 C   0  0  0  0  0  0  0  0  0  0  0  0
   16.2843   -1.1023   14.6873 N   0  0  0  0  0  0  0  0  0  0  0  0
   16.5344    1.3200   14.5561 C   0  0  0  0  0  0  0  0  0  0  0  0
   15.4750    1.7352   13.5887 C   0  0  0  0  0  0  0  0  0  0  0  0
   14.6300    1.0183   12.7641 C   0  0  0  0  0  0  0  0  0  0  0  0
   13.8572    1.9864   12.1022 C   0  0  0  0  0  0  0  0  0  0  0  0
   14.1783    3.2267   12.4715 N   0  0  0  0  0  0  0  0  0  0  0  0
   15.1741    3.0524   13.3556 N   0  0  0  0  0  0  0  0  0  0  0  0
   11.6531   -1.5459   13.8946 H   0  0  0  0  0  0  0  0  0  0  0  0
   11.3739   -3.2226   13.3694 H   0  0  0  0  0  0  0  0  0  0  0  0
   12.9984   -2.6617   13.7498 H   0  0  0  0  0  0  0  0  0  0  0  0
   11.3665   -4.0490   15.5108 H   0  0  0  0  0  0  0  0  0  0  0  0
   10.8877   -2.4018   15.8875 H   0  0  0  0  0  0  0  0  0  0  0  0
   12.7210   -3.2243   17.3711 H   0  0  0  0  0  0  0  0  0  0  0  0
   13.7331   -3.5375   15.9671 H   0  0  0  0  0  0  0  0  0  0  0  0
   12.6734   -0.8252   16.8889 H   0  0  0  0  0  0  0  0  0  0  0  0
   13.4975   -1.0646   15.3609 H   0  0  0  0  0  0  0  0  0  0  0  0
   15.4529   -2.0867   16.7202 H   0  0  0  0  0  0  0  0  0  0  0  0
   13.9861   -0.6413   18.9555 H   0  0  0  0  0  0  0  0  0  0  0  0
   14.6374   -2.2799   18.9612 H   0  0  0  0  0  0  0  0  0  0  0  0
   16.8437   -1.5467   19.0127 H   0  0  0  0  0  0  0  0  0  0  0  0
   17.2639    0.1185   20.5755 H   0  0  0  0  0  0  0  0  0  0  0  0
   14.4580   -0.8709   21.2546 H   0  0  0  0  0  0  0  0  0  0  0  0
   15.9070   -1.8704   21.3385 H   0  0  0  0  0  0  0  0  0  0  0  0
   15.2576   -1.1371   23.5341 H   0  0  0  0  0  0  0  0  0  0  0  0
   17.7542   -1.2353   23.0700 H   0  0  0  0  0  0  0  0  0  0  0  0
   17.7209    0.5252   22.7865 H   0  0  0  0  0  0  0  0  0  0  0  0
   17.3024   -0.1070   24.3643 H   0  0  0  0  0  0  0  0  0  0  0  0
   15.0813    0.9743   24.0901 H   0  0  0  0  0  0  0  0  0  0  0  0
   14.5184    1.4033   20.2188 H   0  0  0  0  0  0  0  0  0  0  0  0
   15.8837    1.9950   21.1497 H   0  0  0  0  0  0  0  0  0  0  0  0
   16.4431    3.1349   19.4516 H   0  0  0  0  0  0  0  0  0  0  0  0
   17.2525    2.2206   17.3895 H   0  0  0  0  0  0  0  0  0  0  0  0
   17.9864    1.4896   18.7773 H   0  0  0  0  0  0  0  0  0  0  0  0
   14.9073    2.2471   16.6638 H   0  0  0  0  0  0  0  0  0  0  0  0
   13.7679    1.2078   15.8423 H   0  0  0  0  0  0  0  0  0  0  0  0
   16.7245   -0.9894   13.7676 H   0  0  0  0  0  0  0  0  0  0  0  0
   16.7430    2.1124   15.2767 H   0  0  0  0  0  0  0  0  0  0  0  0
   17.4657    1.1242   14.0119 H   0  0  0  0  0  0  0  0  0  0  0  0
   14.5669   -0.0572   12.6607 H   0  0  0  0  0  0  0  0  0  0  0  0
   13.0736    1.8387   11.3704 H   0  0  0  0  0  0  0  0  0  0  0  0
   15.5966    3.8795   13.7662 H   0  0  0  0  0  0  0  0  0  0  0  0
  1  2  1  0
  2  3  1  0
  3  4  1  0
  4  5  1  0
  5  6  1  0
  6  7  1  0
  7  8  1  0
  8  9  1  0
  9 10  1  0
 10 11  1  0
 10 12  1  0
  8 13  1  0
 13 14  1  0
 14 15  1  0
 15 16  1  0
 16 17  1  0
 16 18  1  0
 18 19  1  0
 19 20  1  0
 18 21  1  0
 21 22  2  3
 21 23  1  0
 23 24  1  0
 24 25  2  0
 25 26  1  0
 26 27  2  0
 27 28  1  0
 18  5  1  0
 28 24  1  0
 16  7  1  0
  1 29  1  0
  1 30  1  0
  1 31  1  0
  2 32  1  0
  2 33  1  0
  3 34  1  0
  3 35  1  0
  4 36  1  0
  4 37  1  0
  5 38  1  0
  6 39  1  0
  6 40  1  0
  7 41  1  0
  8 42  1  0
  9 43  1  0
  9 44  1  0
 10 45  1  0
 11 46  1  0
 11 47  1  0
 11 48  1  0
 12 49  1  0
 13 50  1  0
 13 51  1  0
 14 52  1  0
 15 53  1  0
 15 54  1  0
 19 55  1  0
 19 56  1  0
 22 57  1  0
 23 58  1  0
 23 59  1  0
 25 60  1  0
 26 61  1  0
 28 62  1  0
M  END
>  <Energy>  (389) 
92.340727150454143

>  <compound_id>  (389) 
667

>  <target_id>  (389) 
1

>  <reference_id>  (389) 
71

>  <inspiration_ids>  (389) 
[61, 71]

>  <energy_score>  (389) 
-104.23186751746366

>  <distance_score>  (389) 
1.0058096033302453

>  <path>  (389) 
/opt/xchem-fragalysis-2/maxwin/BulkDock/SCRATCH/505733/C667-P71/C667-P71.minimised.mol

>  <scratch_subdir>  (389) 
/opt/xchem-fragalysis-2/maxwin/BulkDock/SCRATCH/505733/C667-P71

>  <fragmenstein_runtime>  (389) 
11.40490436553955

>  <fragmenstein_outcome>  (389) 
too moved

>  <fragmenstein_mode>  (389) 
expansion

>  <fragmenstein_error>  (389) 


$$$$
C668-P61
     RDKit          3D

 29 30  0  0  0  0  0  0  0  0999 V2000
   15.4759   -0.0152   13.2999 F   0  0  0  0  0  0  0  0  0  0  0  0
   16.1007   -0.2302   14.4862 C   0  0  0  0  0  0  0  0  0  0  0  0
   17.0300    0.7394   14.6181 F   0  0  0  0  0  0  0  0  0  0  0  0
   15.1074   -0.0789   15.4799 O   0  0  0  0  0  0  0  0  0  0  0  0
   15.5569   -0.2916   16.7470 C   0  0  0  0  0  0  0  0  0  0  0  0
   15.7438    0.8589   17.5135 C   0  0  0  0  0  0  0  0  0  0  0  0
   16.0557    0.7538   18.8626 C   0  0  0  0  0  0  0  0  0  0  0  0
   16.1599   -0.5032   19.4495 C   0  0  0  0  0  0  0  0  0  0  0  0
   15.9586   -1.6561   18.6859 C   0  0  0  0  0  0  0  0  0  0  0  0
   15.6500   -1.5712   17.3182 C   0  0  0  0  0  0  0  0  0  0  0  0
   15.4037   -2.8431   16.5353 C   0  0  0  0  0  0  0  0  0  0  0  0
   14.0065   -2.9448   15.9937 C   0  0  0  0  0  0  0  0  0  0  0  0
   13.0624   -3.6593   16.7038 C   0  0  0  0  0  0  0  0  0  0  0  0
   11.7721   -3.7171   16.2152 C   0  0  0  0  0  0  0  0  0  0  0  0
   11.3612   -2.9931   15.0996 C   0  0  0  0  0  0  0  0  0  0  0  0
   12.2867   -2.2800   14.3766 C   0  0  0  0  0  0  0  0  0  0  0  0
   13.6070   -2.3111   14.7994 C   0  0  0  0  0  0  0  0  0  0  0  0
   16.5855   -1.2093   14.4656 H   0  0  0  0  0  0  0  0  0  0  0  0
   15.6250    1.8401   17.0605 H   0  0  0  0  0  0  0  0  0  0  0  0
   16.1992    1.6494   19.4608 H   0  0  0  0  0  0  0  0  0  0  0  0
   16.3883   -0.5897   20.5092 H   0  0  0  0  0  0  0  0  0  0  0  0
   16.0298   -2.6250   19.1760 H   0  0  0  0  0  0  0  0  0  0  0  0
   16.1279   -2.9208   15.7168 H   0  0  0  0  0  0  0  0  0  0  0  0
   15.6160   -3.7194   17.1630 H   0  0  0  0  0  0  0  0  0  0  0  0
   13.3139   -4.1889   17.6175 H   0  0  0  0  0  0  0  0  0  0  0  0
   11.0885   -4.3676   16.7283 H   0  0  0  0  0  0  0  0  0  0  0  0
   10.3302   -3.0287   14.7653 H   0  0  0  0  0  0  0  0  0  0  0  0
   11.9963   -1.7526   13.4741 H   0  0  0  0  0  0  0  0  0  0  0  0
   14.3251   -1.8583   14.1344 H   0  0  0  0  0  0  0  0  0  0  0  0
  1  2  1  0
  2  3  1  0
  2  4  1  0
  4  5  1  0
  5  6  2  0
  6  7  1  0
  7  8  2  0
  8  9  1  0
  9 10  2  0
 10 11  1  0
 11 12  1  0
 12 13  2  0
 13 14  1  0
 14 15  2  0
 15 16  1  0
 16 17  2  0
 10  5  1  0
 17 12  1  0
  2 18  1  0
  6 19  1  0
  7 20  1  0
  8 21  1  0
  9 22  1  0
 11 23  1  0
 11 24  1  0
 13 25  1  0
 14 26  1  0
 15 27  1  0
 16 28  1  0
 17 29  1  0
M  END
>  <Energy>  (390) 
64.137509853749748

>  <compound_id>  (390) 
668

>  <target_id>  (390) 
1

>  <reference_id>  (390) 
61

>  <inspiration_ids>  (390) 
[61, 76]

>  <energy_score>  (390) 
-1.167402492360452

>  <distance_score>  (390) 
1.5135229909493315

>  <path>  (390) 
/opt/xchem-fragalysis-2/maxwin/BulkDock/SCRATCH/505733/C668-P61/C668-P61.minimised.mol

>  <scratch_subdir>  (390) 
/opt/xchem-fragalysis-2/maxwin/BulkDock/SCRATCH/505733/C668-P61

>  <fragmenstein_runtime>  (390) 
3.5956220626831055

>  <fragmenstein_outcome>  (390) 
too moved

>  <fragmenstein_mode>  (390) 
expansion

>  <fragmenstein_error>  (390) 


$$$$
C668-P76
     RDKit          3D

 29 30  0  0  0  0  0  0  0  0999 V2000
   15.5519   -0.0090   13.2983 F   0  0  0  0  0  0  0  0  0  0  0  0
   16.1732   -0.2342   14.4841 C   0  0  0  0  0  0  0  0  0  0  0  0
   17.1418    0.6979   14.6013 F   0  0  0  0  0  0  0  0  0  0  0  0
   15.1925   -0.0276   15.4806 O   0  0  0  0  0  0  0  0  0  0  0  0
   15.6242   -0.2447   16.7521 C   0  0  0  0  0  0  0  0  0  0  0  0
   15.8261    0.9061   17.5138 C   0  0  0  0  0  0  0  0  0  0  0  0
   16.0933    0.8045   18.8727 C   0  0  0  0  0  0  0  0  0  0  0  0
   16.1395   -0.4491   19.4740 C   0  0  0  0  0  0  0  0  0  0  0  0
   15.9268   -1.6020   18.7145 C   0  0  0  0  0  0  0  0  0  0  0  0
   15.6628   -1.5201   17.3373 C   0  0  0  0  0  0  0  0  0  0  0  0
   15.3985   -2.7893   16.5598 C   0  0  0  0  0  0  0  0  0  0  0  0
   13.9969   -2.8841   16.0290 C   0  0  0  0  0  0  0  0  0  0  0  0
   13.0807   -3.6718   16.6974 C   0  0  0  0  0  0  0  0  0  0  0  0
   11.7993   -3.7693   16.1923 C   0  0  0  0  0  0  0  0  0  0  0  0
   11.3641   -3.0078   15.1115 C   0  0  0  0  0  0  0  0  0  0  0  0
   12.2572   -2.2165   14.4331 C   0  0  0  0  0  0  0  0  0  0  0  0
   13.5732   -2.2101   14.8641 C   0  0  0  0  0  0  0  0  0  0  0  0
   16.6169   -1.2323   14.4733 H   0  0  0  0  0  0  0  0  0  0  0  0
   15.7500    1.8862   17.0486 H   0  0  0  0  0  0  0  0  0  0  0  0
   16.2492    1.7012   19.4665 H   0  0  0  0  0  0  0  0  0  0  0  0
   16.3351   -0.5323   20.5407 H   0  0  0  0  0  0  0  0  0  0  0  0
   15.9559   -2.5684   19.2141 H   0  0  0  0  0  0  0  0  0  0  0  0
   16.1144   -2.8804   15.7358 H   0  0  0  0  0  0  0  0  0  0  0  0
   15.6123   -3.6638   17.1897 H   0  0  0  0  0  0  0  0  0  0  0  0
   13.3529   -4.2402   17.5805 H   0  0  0  0  0  0  0  0  0  0  0  0
   11.1448   -4.4842   16.6602 H   0  0  0  0  0  0  0  0  0  0  0  0
   10.3398   -3.0689   14.7672 H   0  0  0  0  0  0  0  0  0  0  0  0
   11.9496   -1.6523   13.5582 H   0  0  0  0  0  0  0  0  0  0  0  0
   14.2655   -1.6983   14.2174 H   0  0  0  0  0  0  0  0  0  0  0  0
  1  2  1  0
  2  3  1  0
  2  4  1  0
  4  5  1  0
  5  6  2  0
  6  7  1  0
  7  8  2  0
  8  9  1  0
  9 10  2  0
 10 11  1  0
 11 12  1  0
 12 13  2  0
 13 14  1  0
 14 15  2  0
 15 16  1  0
 16 17  2  0
 10  5  1  0
 17 12  1  0
  2 18  1  0
  6 19  1  0
  7 20  1  0
  8 21  1  0
  9 22  1  0
 11 23  1  0
 11 24  1  0
 13 25  1  0
 14 26  1  0
 15 27  1  0
 16 28  1  0
 17 29  1  0
M  END
>  <Energy>  (391) 
65.002894436590864

>  <compound_id>  (391) 
668

>  <target_id>  (391) 
1

>  <reference_id>  (391) 
76

>  <inspiration_ids>  (391) 
[61, 76]

>  <energy_score>  (391) 
-0.30201790951767293

>  <distance_score>  (391) 
1.5267734876955303

>  <path>  (391) 
/opt/xchem-fragalysis-2/maxwin/BulkDock/SCRATCH/505733/C668-P76/C668-P76.minimised.mol

>  <scratch_subdir>  (391) 
/opt/xchem-fragalysis-2/maxwin/BulkDock/SCRATCH/505733/C668-P76

>  <fragmenstein_runtime>  (391) 
3.270127773284912

>  <fragmenstein_outcome>  (391) 
too moved

>  <fragmenstein_mode>  (391) 
expansion

>  <fragmenstein_error>  (391) 


$$$$
C669-P61
     RDKit          3D

 51 53  0  0  0  0  0  0  0  0999 V2000
   17.1202   -1.9393   15.7220 C   0  0  0  0  0  0  0  0  0  0  0  0
   15.9869   -1.2115   15.7596 C   0  0  0  0  0  0  0  0  0  0  0  0
   15.5111   -0.6336   14.4229 C   0  0  0  0  0  0  0  0  0  0  0  0
   15.3194   -1.5770   13.4709 F   0  0  0  0  0  0  0  0  0  0  0  0
   14.3769    0.2067   14.4568 O   0  0  0  0  0  0  0  0  0  0  0  0
   13.1361   -0.3207   14.6691 C   0  0  0  0  0  0  0  0  0  0  0  0
   12.7801   -1.6632   14.5894 C   0  0  0  0  0  0  0  0  0  0  0  0
   11.4827   -2.0738   14.8853 C   0  0  0  0  0  0  0  0  0  0  0  0
   10.5270   -1.1297   15.2407 C   0  0  0  0  0  0  0  0  0  0  0  0
   10.8743    0.2117   15.3391 C   0  0  0  0  0  0  0  0  0  0  0  0
   12.1766    0.6100   15.0605 C   0  0  0  0  0  0  0  0  0  0  0  0
   15.2154   -0.8986   17.0546 C   0  0  0  0  0  0  0  0  0  0  0  0
   15.1099   -1.9863   18.1706 C   0  0  0  0  0  0  0  0  0  0  0  0
   14.7817   -3.6864   17.6573 S   0  0  0  0  0  0  0  0  0  0  0  0
   16.2858   -4.3681   17.4087 N   0  0  0  0  0  0  0  0  0  0  0  0
   14.1301   -3.7351   16.3741 O   0  0  0  0  0  0  0  0  0  0  0  0
   14.2516   -4.4320   18.7775 O   0  0  0  0  0  0  0  0  0  0  0  0
   16.1095   -1.8907   19.3264 C   0  0  0  0  0  0  0  0  0  0  0  0
   17.2963   -0.9770   19.0879 C   0  0  0  0  0  0  0  0  0  0  0  0
   17.0057    0.3511   18.3979 C   0  0  0  0  0  0  0  0  0  0  0  0
   15.6273    0.4740   17.7128 C   0  0  0  0  0  0  0  0  0  0  0  0
   15.6370    1.7005   16.7730 C   0  0  0  0  0  0  0  0  0  0  0  0
   15.5923    2.9159   17.6931 C   0  0  0  0  0  0  0  0  0  0  0  0
   14.7644    2.4699   18.8922 C   0  0  0  0  0  0  0  0  0  0  0  0
   14.5640    0.9603   18.7336 C   0  0  0  0  0  0  0  0  0  0  0  0
   17.6295   -2.1293   14.7788 H   0  0  0  0  0  0  0  0  0  0  0  0
   17.5878   -2.3658   16.5979 H   0  0  0  0  0  0  0  0  0  0  0  0
   16.3218    0.0039   14.0499 H   0  0  0  0  0  0  0  0  0  0  0  0
   13.4921   -2.4171   14.2866 H   0  0  0  0  0  0  0  0  0  0  0  0
   11.2105   -3.1216   14.7865 H   0  0  0  0  0  0  0  0  0  0  0  0
    9.4936   -1.4363   15.3701 H   0  0  0  0  0  0  0  0  0  0  0  0
   10.1225    0.9532   15.5904 H   0  0  0  0  0  0  0  0  0  0  0  0
   12.4402    1.6623   15.1287 H   0  0  0  0  0  0  0  0  0  0  0  0
   14.1727   -0.7901   16.7623 H   0  0  0  0  0  0  0  0  0  0  0  0
   14.1425   -1.7739   18.6525 H   0  0  0  0  0  0  0  0  0  0  0  0
   16.4381   -5.1468   18.0517 H   0  0  0  0  0  0  0  0  0  0  0  0
   16.3855   -4.6190   16.4218 H   0  0  0  0  0  0  0  0  0  0  0  0
   16.4807   -2.8769   19.6274 H   0  0  0  0  0  0  0  0  0  0  0  0
   15.5769   -1.5199   20.2125 H   0  0  0  0  0  0  0  0  0  0  0  0
   17.7906   -0.7793   20.0481 H   0  0  0  0  0  0  0  0  0  0  0  0
   18.0487   -1.5199   18.5058 H   0  0  0  0  0  0  0  0  0  0  0  0
   17.8005    0.5175   17.6581 H   0  0  0  0  0  0  0  0  0  0  0  0
   17.1431    1.1475   19.1400 H   0  0  0  0  0  0  0  0  0  0  0  0
   14.7306    1.7346   16.1672 H   0  0  0  0  0  0  0  0  0  0  0  0
   16.5012    1.7333   16.1026 H   0  0  0  0  0  0  0  0  0  0  0  0
   16.6025    3.1968   18.0118 H   0  0  0  0  0  0  0  0  0  0  0  0
   15.1542    3.7862   17.1944 H   0  0  0  0  0  0  0  0  0  0  0  0
   15.2900    2.7019   19.8250 H   0  0  0  0  0  0  0  0  0  0  0  0
   13.7980    2.9842   18.9262 H   0  0  0  0  0  0  0  0  0  0  0  0
   13.5609    0.7857   18.3284 H   0  0  0  0  0  0  0  0  0  0  0  0
   14.6153    0.4619   19.7049 H   0  0  0  0  0  0  0  0  0  0  0  0
  1  2  2  0
  2  3  1  0
  3  4  1  0
  3  5  1  0
  5  6  1  0
  6  7  2  0
  7  8  1  0
  8  9  2  0
  9 10  1  0
 10 11  2  0
  2 12  1  0
 12 13  1  0
 13 14  1  0
 14 15  1  0
 14 16  2  0
 14 17  2  0
 13 18  1  0
 18 19  1  0
 19 20  1  0
 20 21  1  0
 21 22  1  0
 22 23  1  0
 23 24  1  0
 24 25  1  0
 11  6  1  0
 21 12  1  0
 25 21  1  0
  1 26  1  0
  1 27  1  0
  3 28  1  0
  7 29  1  0
  8 30  1  0
  9 31  1  0
 10 32  1  0
 11 33  1  0
 12 34  1  0
 13 35  1  0
 15 36  1  0
 15 37  1  0
 18 38  1  0
 18 39  1  0
 19 40  1  0
 19 41  1  0
 20 42  1  0
 20 43  1  0
 22 44  1  0
 22 45  1  0
 23 46  1  0
 23 47  1  0
 24 48  1  0
 24 49  1  0
 25 50  1  0
 25 51  1  0
M  END
>  <Energy>  (392) 
4.7248675172858814

>  <compound_id>  (392) 
669

>  <target_id>  (392) 
1

>  <reference_id>  (392) 
61

>  <inspiration_ids>  (392) 
[61, 80]

>  <energy_score>  (392) 
-71.36201330810776

>  <distance_score>  (392) 
1.309470270026224

>  <path>  (392) 
/opt/xchem-fragalysis-2/maxwin/BulkDock/SCRATCH/505733/C669-P61/C669-P61.minimised.mol

>  <scratch_subdir>  (392) 
/opt/xchem-fragalysis-2/maxwin/BulkDock/SCRATCH/505733/C669-P61

>  <fragmenstein_runtime>  (392) 
13.719563961029053

>  <fragmenstein_outcome>  (392) 
too moved

>  <fragmenstein_mode>  (392) 
expansion

>  <fragmenstein_error>  (392) 


$$$$
C669-P80
     RDKit          3D

 51 53  0  0  0  0  0  0  0  0999 V2000
   13.3062   -2.5102   15.7752 C   0  0  0  0  0  0  0  0  0  0  0  0
   14.4301   -1.7508   15.7228 C   0  0  0  0  0  0  0  0  0  0  0  0
   14.8939   -1.2557   14.3609 C   0  0  0  0  0  0  0  0  0  0  0  0
   14.2887   -1.8889   13.3231 F   0  0  0  0  0  0  0  0  0  0  0  0
   14.6218    0.1425   14.1865 O   0  0  0  0  0  0  0  0  0  0  0  0
   13.3278    0.4677   14.5296 C   0  0  0  0  0  0  0  0  0  0  0  0
   12.2038   -0.2243   14.0691 C   0  0  0  0  0  0  0  0  0  0  0  0
   10.9497    0.0300   14.6138 C   0  0  0  0  0  0  0  0  0  0  0  0
   10.8018    1.0272   15.5616 C   0  0  0  0  0  0  0  0  0  0  0  0
   11.9117    1.7539   15.9856 C   0  0  0  0  0  0  0  0  0  0  0  0
   13.1749    1.4710   15.4766 C   0  0  0  0  0  0  0  0  0  0  0  0
   15.0984   -1.2437   17.0159 C   0  0  0  0  0  0  0  0  0  0  0  0
   14.9249   -2.2576   18.2085 C   0  0  0  0  0  0  0  0  0  0  0  0
   15.2362   -4.0207   17.8404 S   0  0  0  0  0  0  0  0  0  0  0  0
   16.7313   -4.3682   18.4770 N   0  0  0  0  0  0  0  0  0  0  0  0
   15.4218   -4.2856   16.4355 O   0  0  0  0  0  0  0  0  0  0  0  0
   14.3242   -4.8250   18.6238 O   0  0  0  0  0  0  0  0  0  0  0  0
   15.5850   -1.8269   19.5229 C   0  0  0  0  0  0  0  0  0  0  0  0
   15.6989   -0.3216   19.5978 C   0  0  0  0  0  0  0  0  0  0  0  0
   16.6155    0.2017   18.4973 C   0  0  0  0  0  0  0  0  0  0  0  0
   16.5136   -0.5336   17.1028 C   0  0  0  0  0  0  0  0  0  0  0  0
   17.6881   -1.5229   16.9196 C   0  0  0  0  0  0  0  0  0  0  0  0
   18.9176   -0.6925   16.5285 C   0  0  0  0  0  0  0  0  0  0  0  0
   18.4103    0.7091   16.2165 C   0  0  0  0  0  0  0  0  0  0  0  0
   16.9039    0.5312   16.0486 C   0  0  0  0  0  0  0  0  0  0  0  0
   12.7906   -2.8174   14.8682 H   0  0  0  0  0  0  0  0  0  0  0  0
   12.8142   -2.8370   16.6825 H   0  0  0  0  0  0  0  0  0  0  0  0
   15.9602   -1.4520   14.2317 H   0  0  0  0  0  0  0  0  0  0  0  0
   12.2855   -0.9954   13.3104 H   0  0  0  0  0  0  0  0  0  0  0  0
   10.0785   -0.5226   14.2843 H   0  0  0  0  0  0  0  0  0  0  0  0
    9.8174    1.2553   15.9585 H   0  0  0  0  0  0  0  0  0  0  0  0
   11.7958    2.5444   16.7250 H   0  0  0  0  0  0  0  0  0  0  0  0
   14.0372    2.0249   15.8342 H   0  0  0  0  0  0  0  0  0  0  0  0
   14.4229   -0.4096   17.2703 H   0  0  0  0  0  0  0  0  0  0  0  0
   13.8514   -2.2642   18.4400 H   0  0  0  0  0  0  0  0  0  0  0  0
   16.6467   -5.0466   19.2363 H   0  0  0  0  0  0  0  0  0  0  0  0
   17.3618   -4.6755   17.7336 H   0  0  0  0  0  0  0  0  0  0  0  0
   16.5837   -2.2517   19.6535 H   0  0  0  0  0  0  0  0  0  0  0  0
   14.9907   -2.1993   20.3666 H   0  0  0  0  0  0  0  0  0  0  0  0
   14.7050    0.1351   19.5127 H   0  0  0  0  0  0  0  0  0  0  0  0
   16.0925   -0.0199   20.5754 H   0  0  0  0  0  0  0  0  0  0  0  0
   17.6471    0.1528   18.8698 H   0  0  0  0  0  0  0  0  0  0  0  0
   16.3896    1.2702   18.3849 H   0  0  0  0  0  0  0  0  0  0  0  0
   17.4704   -2.2342   16.1144 H   0  0  0  0  0  0  0  0  0  0  0  0
   17.9089   -2.0999   17.8194 H   0  0  0  0  0  0  0  0  0  0  0  0
   19.6543   -0.6641   17.3386 H   0  0  0  0  0  0  0  0  0  0  0  0
   19.4097   -1.1365   15.6561 H   0  0  0  0  0  0  0  0  0  0  0  0
   18.6347    1.3924   17.0431 H   0  0  0  0  0  0  0  0  0  0  0  0
   18.8772    1.1224   15.3169 H   0  0  0  0  0  0  0  0  0  0  0  0
   16.7759    0.1964   15.0253 H   0  0  0  0  0  0  0  0  0  0  0  0
   16.3676    1.4774   16.1623 H   0  0  0  0  0  0  0  0  0  0  0  0
  1  2  2  0
  2  3  1  0
  3  4  1  0
  3  5  1  0
  5  6  1  0
  6  7  2  0
  7  8  1  0
  8  9  2  0
  9 10  1  0
 10 11  2  0
  2 12  1  0
 12 13  1  0
 13 14  1  0
 14 15  1  0
 14 16  2  0
 14 17  2  0
 13 18  1  0
 18 19  1  0
 19 20  1  0
 20 21  1  0
 21 22  1  0
 22 23  1  0
 23 24  1  0
 24 25  1  0
 11  6  1  0
 21 12  1  0
 25 21  1  0
  1 26  1  0
  1 27  1  0
  3 28  1  0
  7 29  1  0
  8 30  1  0
  9 31  1  0
 10 32  1  0
 11 33  1  0
 12 34  1  0
 13 35  1  0
 15 36  1  0
 15 37  1  0
 18 38  1  0
 18 39  1  0
 19 40  1  0
 19 41  1  0
 20 42  1  0
 20 43  1  0
 22 44  1  0
 22 45  1  0
 23 46  1  0
 23 47  1  0
 24 48  1  0
 24 49  1  0
 25 50  1  0
 25 51  1  0
M  END
>  <Energy>  (393) 
18.011271355698764

>  <compound_id>  (393) 
669

>  <target_id>  (393) 
1

>  <reference_id>  (393) 
80

>  <inspiration_ids>  (393) 
[61, 80]

>  <energy_score>  (393) 
-58.07560946969461

>  <distance_score>  (393) 
1.738581025340943

>  <path>  (393) 
/opt/xchem-fragalysis-2/maxwin/BulkDock/SCRATCH/505733/C669-P80/C669-P80.minimised.mol

>  <scratch_subdir>  (393) 
/opt/xchem-fragalysis-2/maxwin/BulkDock/SCRATCH/505733/C669-P80

>  <fragmenstein_runtime>  (393) 
13.17049503326416

>  <fragmenstein_outcome>  (393) 
too moved

>  <fragmenstein_mode>  (393) 
expansion

>  <fragmenstein_error>  (393) 


$$$$
C673-P61
     RDKit          3D

 34 35  0  0  0  0  0  0  0  0999 V2000
   11.6470   -3.1182   13.3343 N   0  0  0  0  0  0  0  0  0  0  0  0
   11.8362   -2.2462   14.0706 C   0  0  0  0  0  0  0  0  0  0  0  0
   12.2689   -1.3663   15.0971 C   0  0  0  0  0  0  0  0  0  0  0  0
   12.4740   -1.9601   16.3288 C   0  0  0  0  0  0  0  0  0  0  0  0
   13.3240   -1.3394   17.2179 C   0  0  0  0  0  0  0  0  0  0  0  0
   13.9955   -0.1361   16.8999 C   0  0  0  0  0  0  0  0  0  0  0  0
   15.3955   -0.0312   17.4432 C   0  0  0  0  0  0  0  0  0  0  0  0
   15.5976   -0.3944   18.7822 C   0  0  0  0  0  0  0  0  0  0  0  0
   16.1511   -1.6523   19.0371 C   0  0  0  0  0  0  0  0  0  0  0  0
   16.5136   -2.4565   17.9429 C   0  0  0  0  0  0  0  0  0  0  0  0
   16.4144   -4.2177   18.1403 S   0  0  0  0  0  0  0  0  0  0  0  0
   17.0812   -4.6317   19.6297 N   0  0  0  0  0  0  0  0  0  0  0  0
   17.3456   -4.8689   17.2507 O   0  0  0  0  0  0  0  0  0  0  0  0
   14.9364   -4.6251   18.3681 N   0  0  0  0  0  0  0  0  0  0  0  0
   14.1961   -4.1510   19.5098 O   0  0  0  0  0  0  0  0  0  0  0  0
   16.6629   -1.8938   16.6680 C   0  0  0  0  0  0  0  0  0  0  0  0
   17.0572   -2.6897   15.6352 O   0  0  0  0  0  0  0  0  0  0  0  0
   16.6627   -2.3462   14.3088 C   0  0  0  0  0  0  0  0  0  0  0  0
   15.3495   -2.0097   14.2734 F   0  0  0  0  0  0  0  0  0  0  0  0
   17.3756   -1.2693   13.8934 F   0  0  0  0  0  0  0  0  0  0  0  0
   16.3020   -0.5585   16.5062 C   0  0  0  0  0  0  0  0  0  0  0  0
   13.5915    0.5566   15.7511 C   0  0  0  0  0  0  0  0  0  0  0  0
   12.7325   -0.0715   14.8369 C   0  0  0  0  0  0  0  0  0  0  0  0
   12.1423   -2.9781   16.5287 H   0  0  0  0  0  0  0  0  0  0  0  0
   13.6300   -1.9375   18.0724 H   0  0  0  0  0  0  0  0  0  0  0  0
   15.0398    0.0985   19.5772 H   0  0  0  0  0  0  0  0  0  0  0  0
   16.0821   -2.0700   20.0393 H   0  0  0  0  0  0  0  0  0  0  0  0
   17.8480   -5.2443   19.3699 H   0  0  0  0  0  0  0  0  0  0  0  0
   16.3764   -5.2450   20.0245 H   0  0  0  0  0  0  0  0  0  0  0  0
   13.2698   -4.4045   19.3160 H   0  0  0  0  0  0  0  0  0  0  0  0
   16.8468   -3.1842   13.6338 H   0  0  0  0  0  0  0  0  0  0  0  0
   16.3319   -0.1062   15.5172 H   0  0  0  0  0  0  0  0  0  0  0  0
   14.0950    1.4757   15.4582 H   0  0  0  0  0  0  0  0  0  0  0  0
   12.5650    0.3840   13.8628 H   0  0  0  0  0  0  0  0  0  0  0  0
  1  2  3  0
  2  3  1  0
  3  4  2  0
  4  5  1  0
  5  6  2  0
  6  7  1  0
  7  8  2  0
  8  9  1  0
  9 10  2  0
 10 11  1  0
 11 12  1  0
 11 13  2  0
 11 14  2  0
 14 15  1  0
 10 16  1  0
 16 17  1  0
 17 18  1  0
 18 19  1  0
 18 20  1  0
 16 21  2  0
  6 22  1  0
 22 23  2  0
 23  3  1  0
 21  7  1  0
  4 24  1  0
  5 25  1  0
  8 26  1  0
  9 27  1  0
 12 28  1  0
 12 29  1  0
 15 30  1  0
 18 31  1  0
 21 32  1  0
 22 33  1  0
 23 34  1  0
M  END
>  <Energy>  (394) 
78.029136754830034

>  <compound_id>  (394) 
673

>  <target_id>  (394) 
1

>  <reference_id>  (394) 
61

>  <inspiration_ids>  (394) 
[61, 98]

>  <energy_score>  (394) 
20.410723266359753

>  <distance_score>  (394) 
1.982413250607582

>  <path>  (394) 
/opt/xchem-fragalysis-2/maxwin/BulkDock/SCRATCH/505733/C673-P61/C673-P61.minimised.mol

>  <scratch_subdir>  (394) 
/opt/xchem-fragalysis-2/maxwin/BulkDock/SCRATCH/505733/C673-P61

>  <fragmenstein_runtime>  (394) 
5.749760866165161

>  <fragmenstein_outcome>  (394) 
too moved

>  <fragmenstein_mode>  (394) 
expansion

>  <fragmenstein_error>  (394) 


$$$$
C673-P98
     RDKit          3D

 34 35  0  0  0  0  0  0  0  0999 V2000
   11.7424   -3.1308   13.1274 N   0  0  0  0  0  0  0  0  0  0  0  0
   11.9327   -2.2415   13.8420 C   0  0  0  0  0  0  0  0  0  0  0  0
   12.3617   -1.3582   14.8658 C   0  0  0  0  0  0  0  0  0  0  0  0
   12.5404   -1.9551   16.0983 C   0  0  0  0  0  0  0  0  0  0  0  0
   13.3927   -1.3477   16.9908 C   0  0  0  0  0  0  0  0  0  0  0  0
   14.0643   -0.1372   16.7019 C   0  0  0  0  0  0  0  0  0  0  0  0
   15.4230   -0.0053   17.3310 C   0  0  0  0  0  0  0  0  0  0  0  0
   15.5355   -0.3199   18.6937 C   0  0  0  0  0  0  0  0  0  0  0  0
   16.0761   -1.5638   19.0329 C   0  0  0  0  0  0  0  0  0  0  0  0
   16.5118   -2.4062   17.9960 C   0  0  0  0  0  0  0  0  0  0  0  0
   16.4164   -4.1595   18.2541 S   0  0  0  0  0  0  0  0  0  0  0  0
   16.9561   -4.5046   19.8116 N   0  0  0  0  0  0  0  0  0  0  0  0
   17.4321   -4.8271   17.4764 O   0  0  0  0  0  0  0  0  0  0  0  0
   14.9312   -4.5833   18.3732 N   0  0  0  0  0  0  0  0  0  0  0  0
   14.0879   -4.0813   19.4294 O   0  0  0  0  0  0  0  0  0  0  0  0
   16.7357   -1.8908   16.7116 C   0  0  0  0  0  0  0  0  0  0  0  0
   17.1838   -2.7230   15.7302 O   0  0  0  0  0  0  0  0  0  0  0  0
   16.8020   -2.4544   14.3819 C   0  0  0  0  0  0  0  0  0  0  0  0
   15.4862   -2.1349   14.3112 F   0  0  0  0  0  0  0  0  0  0  0  0
   17.5089   -1.3927   13.9193 F   0  0  0  0  0  0  0  0  0  0  0  0
   16.3885   -0.5624   16.4761 C   0  0  0  0  0  0  0  0  0  0  0  0
   13.6969    0.5526   15.5408 C   0  0  0  0  0  0  0  0  0  0  0  0
   12.8507   -0.0710   14.6100 C   0  0  0  0  0  0  0  0  0  0  0  0
   12.1922   -2.9686   16.2948 H   0  0  0  0  0  0  0  0  0  0  0  0
   13.6963   -1.9618   17.8336 H   0  0  0  0  0  0  0  0  0  0  0  0
   14.9243    0.1975   19.4316 H   0  0  0  0  0  0  0  0  0  0  0  0
   15.9420   -1.9440   20.0435 H   0  0  0  0  0  0  0  0  0  0  0  0
   17.7215   -5.1501   19.6451 H   0  0  0  0  0  0  0  0  0  0  0  0
   16.2032   -5.0744   20.1820 H   0  0  0  0  0  0  0  0  0  0  0  0
   13.1886   -4.3891   19.1875 H   0  0  0  0  0  0  0  0  0  0  0  0
   17.0059   -3.3245   13.7555 H   0  0  0  0  0  0  0  0  0  0  0  0
   16.4792   -0.1493   15.4737 H   0  0  0  0  0  0  0  0  0  0  0  0
   14.2106    1.4694   15.2592 H   0  0  0  0  0  0  0  0  0  0  0  0
   12.7056    0.3837   13.6318 H   0  0  0  0  0  0  0  0  0  0  0  0
  1  2  3  0
  2  3  1  0
  3  4  2  0
  4  5  1  0
  5  6  2  0
  6  7  1  0
  7  8  2  0
  8  9  1  0
  9 10  2  0
 10 11  1  0
 11 12  1  0
 11 13  2  0
 11 14  2  0
 14 15  1  0
 10 16  1  0
 16 17  1  0
 17 18  1  0
 18 19  1  0
 18 20  1  0
 16 21  2  0
  6 22  1  0
 22 23  2  0
 23  3  1  0
 21  7  1  0
  4 24  1  0
  5 25  1  0
  8 26  1  0
  9 27  1  0
 12 28  1  0
 12 29  1  0
 15 30  1  0
 18 31  1  0
 21 32  1  0
 22 33  1  0
 23 34  1  0
M  END
>  <Energy>  (395) 
77.104343656233581

>  <compound_id>  (395) 
673

>  <target_id>  (395) 
1

>  <reference_id>  (395) 
98

>  <inspiration_ids>  (395) 
[61, 98]

>  <energy_score>  (395) 
19.485930167763343

>  <distance_score>  (395) 
2.0492863422625907

>  <path>  (395) 
/opt/xchem-fragalysis-2/maxwin/BulkDock/SCRATCH/505733/C673-P98/C673-P98.minimised.mol

>  <scratch_subdir>  (395) 
/opt/xchem-fragalysis-2/maxwin/BulkDock/SCRATCH/505733/C673-P98

>  <fragmenstein_runtime>  (395) 
5.058088064193726

>  <fragmenstein_outcome>  (395) 
too moved

>  <fragmenstein_mode>  (395) 
expansion

>  <fragmenstein_error>  (395) 


$$$$
C674-P61
     RDKit          3D

 44 46  0  0  0  0  0  0  0  0999 V2000
   11.6149   -2.3904   16.2715 N   0  0  0  0  0  0  0  0  0  0  0  0
   12.8467   -1.6550   16.5527 C   0  0  0  0  0  0  0  0  0  0  0  0
   12.8087   -0.1651   16.3308 C   0  0  0  0  0  0  0  0  0  0  0  0
   12.1566    0.1847   15.0526 C   0  0  0  0  0  0  0  0  0  0  0  0
   12.0646    1.4623   14.6758 C   0  0  0  0  0  0  0  0  0  0  0  0
   12.6251    2.4345   15.4771 N   0  0  0  0  0  0  0  0  0  0  0  0
   12.6625    3.7940   15.3001 C   0  0  0  0  0  0  0  0  0  0  0  0
   13.3722    4.2827   16.3720 C   0  0  0  0  0  0  0  0  0  0  0  0
   13.7911    3.2694   17.1848 N   0  0  0  0  0  0  0  0  0  0  0  0
   13.2918    2.1685   16.6571 C   0  0  0  0  0  0  0  0  0  0  0  0
   13.3504    0.8136   17.1439 C   0  0  0  0  0  0  0  0  0  0  0  0
   13.9147    0.6596   18.5808 C   0  0  0  0  0  0  0  0  0  0  0  0
   15.3450    0.9507   18.7757 N   0  0  0  0  0  0  0  0  0  0  0  0
   16.1079    0.0508   18.0200 C   0  0  0  0  0  0  0  0  0  0  0  0
   16.6598    0.5255   16.8413 C   0  0  0  0  0  0  0  0  0  0  0  0
   16.7732   -0.3399   15.7750 C   0  0  0  0  0  0  0  0  0  0  0  0
   16.3217   -1.6594   15.8918 C   0  0  0  0  0  0  0  0  0  0  0  0
   16.1045   -2.4354   14.7916 O   0  0  0  0  0  0  0  0  0  0  0  0
   15.6722   -1.7507   13.6147 C   0  0  0  0  0  0  0  0  0  0  0  0
   14.6850   -0.8663   13.9010 F   0  0  0  0  0  0  0  0  0  0  0  0
   16.7097   -1.0555   13.0921 F   0  0  0  0  0  0  0  0  0  0  0  0
   16.0285   -2.1800   17.1611 C   0  0  0  0  0  0  0  0  0  0  0  0
   15.4217   -3.8263   17.3947 S   0  0  0  0  0  0  0  0  0  0  0  0
   16.8242   -4.7302   17.4098 N   0  0  0  0  0  0  0  0  0  0  0  0
   14.6622   -4.2506   16.2427 O   0  0  0  0  0  0  0  0  0  0  0  0
   14.8573   -3.9638   18.7178 O   0  0  0  0  0  0  0  0  0  0  0  0
   15.9708   -1.3197   18.2500 C   0  0  0  0  0  0  0  0  0  0  0  0
   11.4893   -2.4714   15.2618 H   0  0  0  0  0  0  0  0  0  0  0  0
   11.7765   -3.3602   16.5645 H   0  0  0  0  0  0  0  0  0  0  0  0
   13.1592   -1.8950   17.5673 H   0  0  0  0  0  0  0  0  0  0  0  0
   13.5914   -2.0560   15.8668 H   0  0  0  0  0  0  0  0  0  0  0  0
   11.7385   -0.5839   14.4114 H   0  0  0  0  0  0  0  0  0  0  0  0
   11.5839    1.7755   13.7587 H   0  0  0  0  0  0  0  0  0  0  0  0
   12.1951    4.2800   14.4570 H   0  0  0  0  0  0  0  0  0  0  0  0
   13.6132    5.3150   16.5907 H   0  0  0  0  0  0  0  0  0  0  0  0
   13.6869   -0.3092   19.0160 H   0  0  0  0  0  0  0  0  0  0  0  0
   13.4228    1.4103   19.2021 H   0  0  0  0  0  0  0  0  0  0  0  0
   15.5286    1.9260   18.5307 H   0  0  0  0  0  0  0  0  0  0  0  0
   16.8237    1.5888   16.6851 H   0  0  0  0  0  0  0  0  0  0  0  0
   17.1111    0.0821   14.8346 H   0  0  0  0  0  0  0  0  0  0  0  0
   15.3126   -2.4672   12.8730 H   0  0  0  0  0  0  0  0  0  0  0  0
   16.8707   -5.3546   16.6070 H   0  0  0  0  0  0  0  0  0  0  0  0
   16.9566   -5.1813   18.3154 H   0  0  0  0  0  0  0  0  0  0  0  0
   15.6018   -1.6631   19.2149 H   0  0  0  0  0  0  0  0  0  0  0  0
  1  2  1  0
  2  3  1  0
  3  4  1  0
  4  5  2  0
  5  6  1  0
  6  7  1  0
  7  8  2  0
  8  9  1  0
  9 10  2  0
 10 11  1  0
 11 12  1  0
 12 13  1  0
 13 14  1  0
 14 15  2  0
 15 16  1  0
 16 17  2  0
 17 18  1  0
 18 19  1  0
 19 20  1  0
 19 21  1  0
 17 22  1  0
 22 23  1  0
 23 24  1  0
 23 25  2  0
 23 26  2  0
 22 27  2  0
 11  3  2  0
 27 14  1  0
 10  6  1  0
  1 28  1  0
  1 29  1  0
  2 30  1  0
  2 31  1  0
  4 32  1  0
  5 33  1  0
  7 34  1  0
  8 35  1  0
 12 36  1  0
 12 37  1  0
 13 38  1  0
 15 39  1  0
 16 40  1  0
 19 41  1  0
 24 42  1  0
 24 43  1  0
 27 44  1  0
M  END
>  <Energy>  (396) 
-25.405995817310625

>  <compound_id>  (396) 
674

>  <target_id>  (396) 
1

>  <reference_id>  (396) 
61

>  <inspiration_ids>  (396) 
[61, 103]

>  <energy_score>  (396) 
-20.63546988781067

>  <distance_score>  (396) 
1.7228194992198391

>  <path>  (396) 
/opt/xchem-fragalysis-2/maxwin/BulkDock/SCRATCH/505733/C674-P61/C674-P61.minimised.mol

>  <scratch_subdir>  (396) 
/opt/xchem-fragalysis-2/maxwin/BulkDock/SCRATCH/505733/C674-P61

>  <fragmenstein_runtime>  (396) 
4.387185335159302

>  <fragmenstein_outcome>  (396) 
too moved

>  <fragmenstein_mode>  (396) 
expansion

>  <fragmenstein_error>  (396) 


$$$$
C674-P103
     RDKit          3D

 44 46  0  0  0  0  0  0  0  0999 V2000
   12.9083   -2.4354   15.4334 N   0  0  0  0  0  0  0  0  0  0  0  0
   12.6095   -1.5472   16.5540 C   0  0  0  0  0  0  0  0  0  0  0  0
   12.7785   -0.0855   16.2297 C   0  0  0  0  0  0  0  0  0  0  0  0
   12.0806    0.2588   14.9722 C   0  0  0  0  0  0  0  0  0  0  0  0
   12.0732    1.5201   14.5353 C   0  0  0  0  0  0  0  0  0  0  0  0
   12.7358    2.4826   15.2682 N   0  0  0  0  0  0  0  0  0  0  0  0
   12.8532    3.8289   15.0334 C   0  0  0  0  0  0  0  0  0  0  0  0
   13.6036    4.3182   16.0771 C   0  0  0  0  0  0  0  0  0  0  0  0
   13.9765    3.3164   16.9251 N   0  0  0  0  0  0  0  0  0  0  0  0
   13.4172    2.2240   16.4410 C   0  0  0  0  0  0  0  0  0  0  0  0
   13.3962    0.8922   16.9872 C   0  0  0  0  0  0  0  0  0  0  0  0
   13.9184    0.7820   18.4396 C   0  0  0  0  0  0  0  0  0  0  0  0
   15.3438    1.0622   18.6837 N   0  0  0  0  0  0  0  0  0  0  0  0
   16.1173    0.1174   17.9912 C   0  0  0  0  0  0  0  0  0  0  0  0
   16.6936    0.5284   16.8009 C   0  0  0  0  0  0  0  0  0  0  0  0
   16.7642   -0.3787   15.7673 C   0  0  0  0  0  0  0  0  0  0  0  0
   16.2490   -1.6702   15.9329 C   0  0  0  0  0  0  0  0  0  0  0  0
   15.9566   -2.4529   14.8575 O   0  0  0  0  0  0  0  0  0  0  0  0
   15.5585   -1.7581   13.6712 C   0  0  0  0  0  0  0  0  0  0  0  0
   14.7684   -0.6871   13.9357 F   0  0  0  0  0  0  0  0  0  0  0  0
   16.6744   -1.2803   13.0635 F   0  0  0  0  0  0  0  0  0  0  0  0
   15.9693   -2.1411   17.2214 C   0  0  0  0  0  0  0  0  0  0  0  0
   15.3922   -3.7783   17.5477 S   0  0  0  0  0  0  0  0  0  0  0  0
   16.8119   -4.6548   17.6189 N   0  0  0  0  0  0  0  0  0  0  0  0
   14.6423   -4.3100   16.4348 O   0  0  0  0  0  0  0  0  0  0  0  0
   14.8290   -3.8460   18.8775 O   0  0  0  0  0  0  0  0  0  0  0  0
   15.9479   -1.2383   18.2773 C   0  0  0  0  0  0  0  0  0  0  0  0
   13.2707   -3.3268   15.7957 H   0  0  0  0  0  0  0  0  0  0  0  0
   12.0439   -2.6873   14.9545 H   0  0  0  0  0  0  0  0  0  0  0  0
   11.5652   -1.7229   16.7918 H   0  0  0  0  0  0  0  0  0  0  0  0
   13.1975   -1.8359   17.4226 H   0  0  0  0  0  0  0  0  0  0  0  0
   11.5644   -0.5076   14.4010 H   0  0  0  0  0  0  0  0  0  0  0  0
   11.5753    1.8288   13.6261 H   0  0  0  0  0  0  0  0  0  0  0  0
   12.4000    4.3075   14.1785 H   0  0  0  0  0  0  0  0  0  0  0  0
   13.9050    5.3432   16.2504 H   0  0  0  0  0  0  0  0  0  0  0  0
   13.6611   -0.1702   18.8934 H   0  0  0  0  0  0  0  0  0  0  0  0
   13.4112    1.5627   19.0118 H   0  0  0  0  0  0  0  0  0  0  0  0
   15.5531    2.0201   18.3924 H   0  0  0  0  0  0  0  0  0  0  0  0
   16.8876    1.5788   16.6003 H   0  0  0  0  0  0  0  0  0  0  0  0
   17.0983   -0.0078   14.8033 H   0  0  0  0  0  0  0  0  0  0  0  0
   15.0396   -2.4366   12.9898 H   0  0  0  0  0  0  0  0  0  0  0  0
   16.8731   -5.3219   16.8519 H   0  0  0  0  0  0  0  0  0  0  0  0
   16.9476   -5.0515   18.5486 H   0  0  0  0  0  0  0  0  0  0  0  0
   15.5798   -1.5332   19.2580 H   0  0  0  0  0  0  0  0  0  0  0  0
  1  2  1  0
  2  3  1  0
  3  4  1  0
  4  5  2  0
  5  6  1  0
  6  7  1  0
  7  8  2  0
  8  9  1  0
  9 10  2  0
 10 11  1  0
 11 12  1  0
 12 13  1  0
 13 14  1  0
 14 15  2  0
 15 16  1  0
 16 17  2  0
 17 18  1  0
 18 19  1  0
 19 20  1  0
 19 21  1  0
 17 22  1  0
 22 23  1  0
 23 24  1  0
 23 25  2  0
 23 26  2  0
 22 27  2  0
 11  3  2  0
 27 14  1  0
 10  6  1  0
  1 28  1  0
  1 29  1  0
  2 30  1  0
  2 31  1  0
  4 32  1  0
  5 33  1  0
  7 34  1  0
  8 35  1  0
 12 36  1  0
 12 37  1  0
 13 38  1  0
 15 39  1  0
 16 40  1  0
 19 41  1  0
 24 42  1  0
 24 43  1  0
 27 44  1  0
M  END
>  <Energy>  (397) 
-24.684159391340874

>  <compound_id>  (397) 
674

>  <target_id>  (397) 
1

>  <reference_id>  (397) 
103

>  <inspiration_ids>  (397) 
[61, 103]

>  <energy_score>  (397) 
-19.913633461839368

>  <distance_score>  (397) 
1.7603134007366703

>  <path>  (397) 
/opt/xchem-fragalysis-2/maxwin/BulkDock/SCRATCH/505733/C674-P103/C674-P103.minimised.mol

>  <scratch_subdir>  (397) 
/opt/xchem-fragalysis-2/maxwin/BulkDock/SCRATCH/505733/C674-P103

>  <fragmenstein_runtime>  (397) 
4.919764995574951

>  <fragmenstein_outcome>  (397) 
too moved

>  <fragmenstein_mode>  (397) 
expansion

>  <fragmenstein_error>  (397) 


$$$$
C675-P61
     RDKit          3D

 32 31  0  0  0  0  0  0  0  0999 V2000
   13.8012   -0.3392   13.3325 C   0  0  0  0  0  0  0  0  0  0  0  0
   14.7251   -0.6488   14.4148 N   0  0  0  0  0  0  0  0  0  0  0  0
   14.6143   -1.9815   14.7527 F   0  0  0  0  0  0  0  0  0  0  0  0
   14.7320    0.2834   15.7867 S   0  0  0  0  0  0  0  0  0  0  0  0
   16.4247   -0.0620   16.3650 C   0  0  0  0  0  0  0  0  0  0  0  0
   16.7392    0.3472   17.8125 C   0  0  0  0  0  0  0  0  0  0  0  0
   16.3696   -0.7197   18.8786 C   0  0  0  0  0  0  0  0  0  0  0  0
   14.9138   -1.1949   18.9602 C   0  0  0  0  0  0  0  0  0  0  0  0
   14.5472   -2.3867   18.0828 C   0  0  0  0  0  0  0  0  0  0  0  0
   15.0541   -3.9815   18.6986 S   0  0  0  0  0  0  0  0  0  0  0  0
   16.6574   -4.0721   18.2110 N   0  0  0  0  0  0  0  0  0  0  0  0
   14.3922   -5.0141   17.9363 O   0  0  0  0  0  0  0  0  0  0  0  0
   15.0908   -4.0057   20.1390 O   0  0  0  0  0  0  0  0  0  0  0  0
   16.2412    1.7706   18.1974 C   0  0  0  0  0  0  0  0  0  0  0  0
   16.9631    2.7920   17.4567 N   0  0  0  0  0  0  0  0  0  0  0  0
   15.3727    1.8697   19.0174 O   0  0  0  0  0  0  0  0  0  0  0  0
   12.7605   -0.4766   13.6448 H   0  0  0  0  0  0  0  0  0  0  0  0
   13.9922   -1.0059   12.4856 H   0  0  0  0  0  0  0  0  0  0  0  0
   13.9325    0.6885   12.9777 H   0  0  0  0  0  0  0  0  0  0  0  0
   16.6587   -1.1238   16.2291 H   0  0  0  0  0  0  0  0  0  0  0  0
   17.0922    0.4782   15.6838 H   0  0  0  0  0  0  0  0  0  0  0  0
   17.8371    0.4037   17.8827 H   0  0  0  0  0  0  0  0  0  0  0  0
   17.0360   -1.5785   18.7535 H   0  0  0  0  0  0  0  0  0  0  0  0
   16.6271   -0.2989   19.8607 H   0  0  0  0  0  0  0  0  0  0  0  0
   14.6957   -1.4476   20.0051 H   0  0  0  0  0  0  0  0  0  0  0  0
   14.2447   -0.3635   18.7177 H   0  0  0  0  0  0  0  0  0  0  0  0
   13.4573   -2.4557   18.0030 H   0  0  0  0  0  0  0  0  0  0  0  0
   14.9321   -2.3179   17.0681 H   0  0  0  0  0  0  0  0  0  0  0  0
   16.7649   -4.8309   17.5349 H   0  0  0  0  0  0  0  0  0  0  0  0
   17.2503   -4.1859   19.0363 H   0  0  0  0  0  0  0  0  0  0  0  0
   17.5622    2.3354   16.7484 H   0  0  0  0  0  0  0  0  0  0  0  0
   17.7259    2.3443   16.9198 H   0  0  0  0  0  0  0  0  0  0  0  0
  1  2  1  0
  2  3  1  0
  2  4  1  0
  4  5  1  0
  5  6  1  0
  6  7  1  0
  7  8  1  0
  8  9  1  0
  9 10  1  0
 10 11  1  0
 10 12  2  0
 10 13  2  0
  6 14  1  0
 14 15  1  0
 14 16  2  0
  1 17  1  0
  1 18  1  0
  1 19  1  0
  5 20  1  0
  5 21  1  0
  6 22  1  0
  7 23  1  0
  7 24  1  0
  8 25  1  0
  8 26  1  0
  9 27  1  0
  9 28  1  0
 11 29  1  0
 11 30  1  0
 15 31  1  0
 15 32  1  0
M  END
>  <Energy>  (398) 
88.230016202411406

>  <compound_id>  (398) 
675

>  <target_id>  (398) 
1

>  <reference_id>  (398) 
61

>  <inspiration_ids>  (398) 
[61, 111]

>  <energy_score>  (398) 
112.05382794776583

>  <distance_score>  (398) 
1.7898705318268315

>  <path>  (398) 
/opt/xchem-fragalysis-2/maxwin/BulkDock/SCRATCH/505733/C675-P61/C675-P61.minimised.mol

>  <scratch_subdir>  (398) 
/opt/xchem-fragalysis-2/maxwin/BulkDock/SCRATCH/505733/C675-P61

>  <fragmenstein_runtime>  (398) 
1.617983341217041

>  <fragmenstein_outcome>  (398) 
too moved

>  <fragmenstein_mode>  (398) 
expansion

>  <fragmenstein_error>  (398) 


$$$$
C675-P111
     RDKit          3D

 32 31  0  0  0  0  0  0  0  0999 V2000
   14.7193    0.3311   12.2607 C   0  0  0  0  0  0  0  0  0  0  0  0
   14.9054    0.0340   13.6710 N   0  0  0  0  0  0  0  0  0  0  0  0
   13.8053   -0.6465   14.1580 F   0  0  0  0  0  0  0  0  0  0  0  0
   15.3470    1.2349   14.7334 S   0  0  0  0  0  0  0  0  0  0  0  0
   15.8910    0.1692   16.1051 C   0  0  0  0  0  0  0  0  0  0  0  0
   15.6660    0.7820   17.4935 C   0  0  0  0  0  0  0  0  0  0  0  0
   16.3343   -0.0409   18.6248 C   0  0  0  0  0  0  0  0  0  0  0  0
   15.7595   -1.4343   18.9657 C   0  0  0  0  0  0  0  0  0  0  0  0
   15.7439   -2.3982   17.7917 C   0  0  0  0  0  0  0  0  0  0  0  0
   15.7961   -4.1247   18.1846 S   0  0  0  0  0  0  0  0  0  0  0  0
   17.1871   -4.2627   19.1011 N   0  0  0  0  0  0  0  0  0  0  0  0
   16.0823   -4.8489   16.9663 O   0  0  0  0  0  0  0  0  0  0  0  0
   14.7070   -4.4913   19.0561 O   0  0  0  0  0  0  0  0  0  0  0  0
   14.1665    0.9518   17.8060 C   0  0  0  0  0  0  0  0  0  0  0  0
   13.9533    2.0376   18.7437 N   0  0  0  0  0  0  0  0  0  0  0  0
   13.3901    0.1831   17.3131 O   0  0  0  0  0  0  0  0  0  0  0  0
   13.8753    1.0111   12.1043 H   0  0  0  0  0  0  0  0  0  0  0  0
   14.5144   -0.5937   11.7119 H   0  0  0  0  0  0  0  0  0  0  0  0
   15.6192    0.7783   11.8255 H   0  0  0  0  0  0  0  0  0  0  0  0
   15.3475   -0.7643   15.9933 H   0  0  0  0  0  0  0  0  0  0  0  0
   16.9547   -0.0428   15.9524 H   0  0  0  0  0  0  0  0  0  0  0  0
   16.1470    1.7696   17.4831 H   0  0  0  0  0  0  0  0  0  0  0  0
   17.3994   -0.1570   18.3849 H   0  0  0  0  0  0  0  0  0  0  0  0
   16.3017    0.5525   19.5482 H   0  0  0  0  0  0  0  0  0  0  0  0
   16.3641   -1.8413   19.7843 H   0  0  0  0  0  0  0  0  0  0  0  0
   14.7457   -1.3352   19.3705 H   0  0  0  0  0  0  0  0  0  0  0  0
   14.8203   -2.2821   17.2170 H   0  0  0  0  0  0  0  0  0  0  0  0
   16.6075   -2.2375   17.1381 H   0  0  0  0  0  0  0  0  0  0  0  0
   17.8446   -4.8924   18.6359 H   0  0  0  0  0  0  0  0  0  0  0  0
   16.9471   -4.5677   20.0472 H   0  0  0  0  0  0  0  0  0  0  0  0
   14.8386    2.5631   18.8596 H   0  0  0  0  0  0  0  0  0  0  0  0
   14.8721    2.4131   19.0410 H   0  0  0  0  0  0  0  0  0  0  0  0
  1  2  1  0
  2  3  1  0
  2  4  1  0
  4  5  1  0
  5  6  1  0
  6  7  1  0
  7  8  1  0
  8  9  1  0
  9 10  1  0
 10 11  1  0
 10 12  2  0
 10 13  2  0
  6 14  1  0
 14 15  1  0
 14 16  2  0
  1 17  1  0
  1 18  1  0
  1 19  1  0
  5 20  1  0
  5 21  1  0
  6 22  1  0
  7 23  1  0
  7 24  1  0
  8 25  1  0
  8 26  1  0
  9 27  1  0
  9 28  1  0
 11 29  1  0
 11 30  1  0
 15 31  1  0
 15 32  1  0
M  END
>  <Energy>  (399) 
87.009103366187404

>  <compound_id>  (399) 
675

>  <target_id>  (399) 
1

>  <reference_id>  (399) 
111

>  <inspiration_ids>  (399) 
[61, 111]

>  <energy_score>  (399) 
110.83291511154054

>  <distance_score>  (399) 
1.9953152208709393

>  <path>  (399) 
/opt/xchem-fragalysis-2/maxwin/BulkDock/SCRATCH/505733/C675-P111/C675-P111.minimised.mol

>  <scratch_subdir>  (399) 
/opt/xchem-fragalysis-2/maxwin/BulkDock/SCRATCH/505733/C675-P111

>  <fragmenstein_runtime>  (399) 
1.4500195980072021

>  <fragmenstein_outcome>  (399) 
too moved

>  <fragmenstein_mode>  (399) 
expansion

>  <fragmenstein_error>  (399) 


$$$$
C678-P61
     RDKit          3D

 30 30  0  0  0  0  0  0  0  0999 V2000
   11.5502    1.6608   14.9219 C   0  0  0  0  0  0  0  0  0  0  0  0
   12.6633    1.9388   15.9444 C   0  0  0  0  0  0  0  0  0  0  0  0
   13.4539    0.7372   16.4199 C   0  0  0  0  0  0  0  0  0  0  0  0
   13.8918    0.5443   17.7452 C   0  0  0  0  0  0  0  0  0  0  0  0
   14.5048   -0.6674   18.1659 C   0  0  0  0  0  0  0  0  0  0  0  0
   14.8710   -0.8259   19.6158 C   0  0  0  0  0  0  0  0  0  0  0  0
   14.7191   -1.6698   17.2060 C   0  0  0  0  0  0  0  0  0  0  0  0
   14.9548   -3.3860   17.6028 S   0  0  0  0  0  0  0  0  0  0  0  0
   16.5945   -3.6248   17.3384 N   0  0  0  0  0  0  0  0  0  0  0  0
   14.2756   -4.2027   16.6246 O   0  0  0  0  0  0  0  0  0  0  0  0
   14.7595   -3.6211   19.0129 O   0  0  0  0  0  0  0  0  0  0  0  0
   14.5430   -1.3454   15.8627 C   0  0  0  0  0  0  0  0  0  0  0  0
   15.1339   -2.0869   14.8751 O   0  0  0  0  0  0  0  0  0  0  0  0
   15.9488   -1.2175   14.0850 C   0  0  0  0  0  0  0  0  0  0  0  0
   15.1859   -0.6617   13.1096 F   0  0  0  0  0  0  0  0  0  0  0  0
   16.8984   -1.9591   13.4793 F   0  0  0  0  0  0  0  0  0  0  0  0
   13.8386   -0.2040   15.4894 C   0  0  0  0  0  0  0  0  0  0  0  0
   11.9528    1.3483   13.9539 H   0  0  0  0  0  0  0  0  0  0  0  0
   10.8726    0.8800   15.2829 H   0  0  0  0  0  0  0  0  0  0  0  0
   10.9649    2.5708   14.7541 H   0  0  0  0  0  0  0  0  0  0  0  0
   12.1996    2.4129   16.8182 H   0  0  0  0  0  0  0  0  0  0  0  0
   13.3652    2.6697   15.5248 H   0  0  0  0  0  0  0  0  0  0  0  0
   13.6873    1.3216   18.4820 H   0  0  0  0  0  0  0  0  0  0  0  0
   14.9278    0.1488   20.1131 H   0  0  0  0  0  0  0  0  0  0  0  0
   14.1346   -1.4296   20.1502 H   0  0  0  0  0  0  0  0  0  0  0  0
   15.8619   -1.2816   19.7123 H   0  0  0  0  0  0  0  0  0  0  0  0
   16.7141   -4.2649   16.5510 H   0  0  0  0  0  0  0  0  0  0  0  0
   17.0349   -3.9431   18.2020 H   0  0  0  0  0  0  0  0  0  0  0  0
   16.4555   -0.4325   14.6611 H   0  0  0  0  0  0  0  0  0  0  0  0
   13.5847   -0.0542   14.4429 H   0  0  0  0  0  0  0  0  0  0  0  0
  1  2  1  0
  2  3  1  0
  3  4  2  0
  4  5  1  0
  5  6  1  0
  5  7  2  0
  7  8  1  0
  8  9  1  0
  8 10  2  0
  8 11  2  0
  7 12  1  0
 12 13  1  0
 13 14  1  0
 14 15  1  0
 14 16  1  0
 12 17  2  0
 17  3  1  0
  1 18  1  0
  1 19  1  0
  1 20  1  0
  2 21  1  0
  2 22  1  0
  4 23  1  0
  6 24  1  0
  6 25  1  0
  6 26  1  0
  9 27  1  0
  9 28  1  0
 14 29  1  0
 17 30  1  0
M  END
>  <Energy>  (400) 
-34.200437818877603

>  <compound_id>  (400) 
678

>  <target_id>  (400) 
1

>  <reference_id>  (400) 
61

>  <inspiration_ids>  (400) 
[61, 118]

>  <energy_score>  (400) 
-24.798934895889815

>  <distance_score>  (400) 
1.747928275119153

>  <path>  (400) 
/opt/xchem-fragalysis-2/maxwin/BulkDock/SCRATCH/505733/C678-P61/C678-P61.minimised.mol

>  <scratch_subdir>  (400) 
/opt/xchem-fragalysis-2/maxwin/BulkDock/SCRATCH/505733/C678-P61

>  <fragmenstein_runtime>  (400) 
2.50839900970459

>  <fragmenstein_outcome>  (400) 
too moved

>  <fragmenstein_mode>  (400) 
expansion

>  <fragmenstein_error>  (400) 


$$$$
C678-P118
     RDKit          3D

 30 30  0  0  0  0  0  0  0  0999 V2000
   11.6463    1.7420   14.8638 C   0  0  0  0  0  0  0  0  0  0  0  0
   12.8074    2.0199   15.8319 C   0  0  0  0  0  0  0  0  0  0  0  0
   13.5688    0.8120   16.3379 C   0  0  0  0  0  0  0  0  0  0  0  0
   14.1084    0.6973   17.6347 C   0  0  0  0  0  0  0  0  0  0  0  0
   14.6843   -0.5146   18.1092 C   0  0  0  0  0  0  0  0  0  0  0  0
   15.1237   -0.5886   19.5449 C   0  0  0  0  0  0  0  0  0  0  0  0
   14.7896   -1.5906   17.2156 C   0  0  0  0  0  0  0  0  0  0  0  0
   14.9742   -3.2895   17.7067 S   0  0  0  0  0  0  0  0  0  0  0  0
   16.5279   -3.6773   17.2073 N   0  0  0  0  0  0  0  0  0  0  0  0
   14.0823   -4.1040   16.9172 O   0  0  0  0  0  0  0  0  0  0  0  0
   14.9928   -3.4099   19.1434 O   0  0  0  0  0  0  0  0  0  0  0  0
   14.5335   -1.3477   15.8689 C   0  0  0  0  0  0  0  0  0  0  0  0
   15.0779   -2.1398   14.8930 O   0  0  0  0  0  0  0  0  0  0  0  0
   15.9250   -1.3123   14.0867 C   0  0  0  0  0  0  0  0  0  0  0  0
   15.1760   -0.7199   13.1213 F   0  0  0  0  0  0  0  0  0  0  0  0
   16.8297   -2.0967   13.4669 F   0  0  0  0  0  0  0  0  0  0  0  0
   13.8339   -0.2158   15.4609 C   0  0  0  0  0  0  0  0  0  0  0  0
   12.0011    1.3745   13.8962 H   0  0  0  0  0  0  0  0  0  0  0  0
   10.9541    1.0038   15.2824 H   0  0  0  0  0  0  0  0  0  0  0  0
   11.0893    2.6661   14.6778 H   0  0  0  0  0  0  0  0  0  0  0  0
   12.3928    2.5483   16.6997 H   0  0  0  0  0  0  0  0  0  0  0  0
   13.5204    2.7027   15.3544 H   0  0  0  0  0  0  0  0  0  0  0  0
   14.0131    1.5436   18.3160 H   0  0  0  0  0  0  0  0  0  0  0  0
   15.2549    0.4145   19.9658 H   0  0  0  0  0  0  0  0  0  0  0  0
   14.3848   -1.1112   20.1567 H   0  0  0  0  0  0  0  0  0  0  0  0
   16.0953   -1.0865   19.6249 H   0  0  0  0  0  0  0  0  0  0  0  0
   16.4742   -4.3540   16.4421 H   0  0  0  0  0  0  0  0  0  0  0  0
   17.0747   -3.9963   18.0073 H   0  0  0  0  0  0  0  0  0  0  0  0
   16.4768   -0.5517   14.6542 H   0  0  0  0  0  0  0  0  0  0  0  0
   13.5191   -0.1365   14.4227 H   0  0  0  0  0  0  0  0  0  0  0  0
  1  2  1  0
  2  3  1  0
  3  4  2  0
  4  5  1  0
  5  6  1  0
  5  7  2  0
  7  8  1  0
  8  9  1  0
  8 10  2  0
  8 11  2  0
  7 12  1  0
 12 13  1  0
 13 14  1  0
 14 15  1  0
 14 16  1  0
 12 17  2  0
 17  3  1  0
  1 18  1  0
  1 19  1  0
  1 20  1  0
  2 21  1  0
  2 22  1  0
  4 23  1  0
  6 24  1  0
  6 25  1  0
  6 26  1  0
  9 27  1  0
  9 28  1  0
 14 29  1  0
 17 30  1  0
M  END
>  <Energy>  (401) 
-32.604337224013285

>  <compound_id>  (401) 
678

>  <target_id>  (401) 
1

>  <reference_id>  (401) 
118

>  <inspiration_ids>  (401) 
[61, 118]

>  <energy_score>  (401) 
-23.202834301026073

>  <distance_score>  (401) 
1.7620649284833496

>  <path>  (401) 
/opt/xchem-fragalysis-2/maxwin/BulkDock/SCRATCH/505733/C678-P118/C678-P118.minimised.mol

>  <scratch_subdir>  (401) 
/opt/xchem-fragalysis-2/maxwin/BulkDock/SCRATCH/505733/C678-P118

>  <fragmenstein_runtime>  (401) 
2.450007677078247

>  <fragmenstein_outcome>  (401) 
too moved

>  <fragmenstein_mode>  (401) 
expansion

>  <fragmenstein_error>  (401) 


$$$$
C682-P62
     RDKit          3D

 33 34  0  0  0  0  0  0  0  0999 V2000
   -9.3696  -25.1879   32.4940 N   0  0  0  0  0  0  0  0  0  0  0  0
  -10.7149  -25.9618   31.8983 S   0  0  0  0  0  0  0  0  0  0  0  0
  -10.2708  -27.3151   31.6655 O   0  0  0  0  0  0  0  0  0  0  0  0
  -11.7961  -25.6600   32.7931 O   0  0  0  0  0  0  0  0  0  0  0  0
  -10.9017  -25.1343   30.3187 C   0  0  0  0  0  0  0  0  0  0  0  0
  -11.3345  -26.1988   29.2958 C   0  0  0  0  0  0  0  0  0  0  0  0
  -11.5581  -25.6746   27.8957 C   0  0  0  0  0  0  0  0  0  0  0  0
  -11.0179  -24.2744   27.7305 C   0  0  0  0  0  0  0  0  0  0  0  0
  -11.6604  -23.3120   28.7219 C   0  0  0  0  0  0  0  0  0  0  0  0
  -11.0118  -22.0614   28.5979 O   0  0  0  0  0  0  0  0  0  0  0  0
  -11.7054  -23.8002   30.2300 C   0  0  0  0  0  0  0  0  0  0  0  0
  -11.3760  -22.7190   31.3055 C   0  0  0  0  0  0  0  0  0  0  0  0
  -12.5056  -22.6757   32.3280 C   0  0  0  0  0  0  0  0  0  0  0  0
  -13.3788  -23.7597   31.9648 N   0  0  0  0  0  0  0  0  0  0  0  0
  -13.1732  -23.9256   30.5569 C   0  0  0  0  0  0  0  0  0  0  0  0
  -13.7475  -22.8266   30.0171 F   0  0  0  0  0  0  0  0  0  0  0  0
   -8.5171  -25.3733   31.9626 H   0  0  0  0  0  0  0  0  0  0  0  0
   -9.5165  -24.2507   32.8543 H   0  0  0  0  0  0  0  0  0  0  0  0
   -9.8616  -24.8990   30.0542 H   0  0  0  0  0  0  0  0  0  0  0  0
  -12.2233  -26.7304   29.6412 H   0  0  0  0  0  0  0  0  0  0  0  0
  -10.5488  -26.9605   29.2345 H   0  0  0  0  0  0  0  0  0  0  0  0
  -12.6295  -25.6893   27.6624 H   0  0  0  0  0  0  0  0  0  0  0  0
  -11.0664  -26.3488   27.1889 H   0  0  0  0  0  0  0  0  0  0  0  0
  -11.1983  -23.9289   26.7061 H   0  0  0  0  0  0  0  0  0  0  0  0
   -9.9354  -24.2520   27.8648 H   0  0  0  0  0  0  0  0  0  0  0  0
  -12.6652  -23.1648   28.3289 H   0  0  0  0  0  0  0  0  0  0  0  0
  -11.3690  -21.6182   27.8013 H   0  0  0  0  0  0  0  0  0  0  0  0
  -11.2782  -21.7149   30.8805 H   0  0  0  0  0  0  0  0  0  0  0  0
  -10.4604  -22.9344   31.8424 H   0  0  0  0  0  0  0  0  0  0  0  0
  -12.1479  -22.7911   33.3524 H   0  0  0  0  0  0  0  0  0  0  0  0
  -13.0410  -21.7238   32.2807 H   0  0  0  0  0  0  0  0  0  0  0  0
  -13.1161  -24.6147   32.4699 H   0  0  0  0  0  0  0  0  0  0  0  0
  -13.5731  -24.8042   30.0875 H   0  0  0  0  0  0  0  0  0  0  0  0
  1  2  1  0
  2  3  2  0
  2  4  2  0
  2  5  1  0
  5  6  1  0
  6  7  1  0
  7  8  1  0
  8  9  1  0
  9 10  1  0
  9 11  1  0
 11 12  1  0
 12 13  1  0
 13 14  1  0
 14 15  1  0
 15 16  1  0
 11  5  1  0
 15 11  1  0
  1 17  1  0
  1 18  1  0
  5 19  1  0
  6 20  1  0
  6 21  1  0
  7 22  1  0
  7 23  1  0
  8 24  1  0
  8 25  1  0
  9 26  1  0
 10 27  1  0
 12 28  1  0
 12 29  1  0
 13 30  1  0
 13 31  1  0
 14 32  1  0
 15 33  1  0
M  END
>  <Energy>  (402) 
-77.623313450636317

>  <compound_id>  (402) 
682

>  <target_id>  (402) 
1

>  <reference_id>  (402) 
62

>  <inspiration_ids>  (402) 
[62, 3]

>  <energy_score>  (402) 
-25.79239413587907

>  <distance_score>  (402) 
1.3650472363507586

>  <path>  (402) 
/opt/xchem-fragalysis-2/maxwin/BulkDock/SCRATCH/505733/C682-P62/C682-P62.minimised.mol

>  <scratch_subdir>  (402) 
/opt/xchem-fragalysis-2/maxwin/BulkDock/SCRATCH/505733/C682-P62

>  <fragmenstein_runtime>  (402) 
7.30909276008606

>  <fragmenstein_outcome>  (402) 
too moved

>  <fragmenstein_mode>  (402) 
expansion

>  <fragmenstein_error>  (402) 


$$$$
C682-P3
     RDKit          3D

 33 34  0  0  0  0  0  0  0  0999 V2000
  -10.6461  -25.2387   32.0844 N   0  0  0  0  0  0  0  0  0  0  0  0
  -11.8717  -25.9093   31.1971 S   0  0  0  0  0  0  0  0  0  0  0  0
  -11.7606  -27.3378   31.3715 O   0  0  0  0  0  0  0  0  0  0  0  0
  -13.1005  -25.2568   31.5492 O   0  0  0  0  0  0  0  0  0  0  0  0
  -11.5166  -25.4913   29.5127 C   0  0  0  0  0  0  0  0  0  0  0  0
  -12.5333  -26.2601   28.6582 C   0  0  0  0  0  0  0  0  0  0  0  0
  -11.8775  -26.5817   27.3427 C   0  0  0  0  0  0  0  0  0  0  0  0
  -11.5272  -25.3291   26.5894 C   0  0  0  0  0  0  0  0  0  0  0  0
  -11.4857  -24.0461   27.4091 C   0  0  0  0  0  0  0  0  0  0  0  0
  -10.7690  -23.0341   26.7290 O   0  0  0  0  0  0  0  0  0  0  0  0
  -11.2507  -24.0309   28.9868 C   0  0  0  0  0  0  0  0  0  0  0  0
  -10.0625  -23.3102   29.6952 C   0  0  0  0  0  0  0  0  0  0  0  0
  -10.5268  -22.4801   30.8520 C   0  0  0  0  0  0  0  0  0  0  0  0
  -11.7134  -21.9826   30.2673 N   0  0  0  0  0  0  0  0  0  0  0  0
  -12.2150  -22.9404   29.3157 C   0  0  0  0  0  0  0  0  0  0  0  0
  -12.4246  -22.0981   28.2665 F   0  0  0  0  0  0  0  0  0  0  0  0
   -9.7290  -25.1288   31.6464 H   0  0  0  0  0  0  0  0  0  0  0  0
  -10.4923  -25.7475   32.9647 H   0  0  0  0  0  0  0  0  0  0  0  0
  -10.5812  -26.0140   29.3734 H   0  0  0  0  0  0  0  0  0  0  0  0
  -13.4585  -25.6870   28.5251 H   0  0  0  0  0  0  0  0  0  0  0  0
  -12.8310  -27.2104   29.1162 H   0  0  0  0  0  0  0  0  0  0  0  0
  -12.5461  -27.2049   26.7393 H   0  0  0  0  0  0  0  0  0  0  0  0
  -10.9680  -27.1596   27.5329 H   0  0  0  0  0  0  0  0  0  0  0  0
  -12.3489  -25.2008   25.8726 H   0  0  0  0  0  0  0  0  0  0  0  0
  -10.6678  -25.4608   25.9385 H   0  0  0  0  0  0  0  0  0  0  0  0
  -12.5425  -23.7723   27.2493 H   0  0  0  0  0  0  0  0  0  0  0  0
  -11.0862  -22.1719   27.0665 H   0  0  0  0  0  0  0  0  0  0  0  0
   -9.6787  -22.5732   28.9878 H   0  0  0  0  0  0  0  0  0  0  0  0
   -9.2647  -23.9487   30.0753 H   0  0  0  0  0  0  0  0  0  0  0  0
  -10.7271  -23.0165   31.7676 H   0  0  0  0  0  0  0  0  0  0  0  0
   -9.8198  -21.6879   31.1023 H   0  0  0  0  0  0  0  0  0  0  0  0
  -12.3081  -21.5640   30.9774 H   0  0  0  0  0  0  0  0  0  0  0  0
  -13.1304  -23.5103   29.4864 H   0  0  0  0  0  0  0  0  0  0  0  0
  1  2  1  0
  2  3  2  0
  2  4  2  0
  2  5  1  0
  5  6  1  0
  6  7  1  0
  7  8  1  0
  8  9  1  0
  9 10  1  0
  9 11  1  0
 11 12  1  0
 12 13  1  0
 13 14  1  0
 14 15  1  0
 15 16  1  0
 11  5  1  0
 15 11  1  0
  1 17  1  0
  1 18  1  0
  5 19  1  0
  6 20  1  0
  6 21  1  0
  7 22  1  0
  7 23  1  0
  8 24  1  0
  8 25  1  0
  9 26  1  0
 10 27  1  0
 12 28  1  0
 12 29  1  0
 13 30  1  0
 13 31  1  0
 14 32  1  0
 15 33  1  0
M  END
>  <Energy>  (403) 
-37.624146339742808

>  <compound_id>  (403) 
682

>  <target_id>  (403) 
1

>  <reference_id>  (403) 
3

>  <inspiration_ids>  (403) 
[62, 3]

>  <energy_score>  (403) 
14.206772975014644

>  <distance_score>  (403) 
1.5701602388563967

>  <path>  (403) 
/opt/xchem-fragalysis-2/maxwin/BulkDock/SCRATCH/505733/C682-P3/C682-P3.minimised.mol

>  <scratch_subdir>  (403) 
/opt/xchem-fragalysis-2/maxwin/BulkDock/SCRATCH/505733/C682-P3

>  <fragmenstein_runtime>  (403) 
6.295846223831177

>  <fragmenstein_outcome>  (403) 
too moved

>  <fragmenstein_mode>  (403) 
expansion

>  <fragmenstein_error>  (403) 


$$$$
C683-P62
     RDKit          3D

 36 36  0  0  0  0  0  0  0  0999 V2000
  -12.8842  -23.2660   33.7347 C   0  0  0  0  0  0  0  0  0  0  0  0
  -12.2090  -24.0245   32.6526 C   0  0  0  0  0  0  0  0  0  0  0  0
  -12.2148  -25.5227   32.8657 C   0  0  0  0  0  0  0  0  0  0  0  0
  -11.2833  -25.9499   33.8995 N   0  0  0  0  0  0  0  0  0  0  0  0
  -12.0106  -26.1759   31.5168 C   0  0  0  0  0  0  0  0  0  0  0  0
  -10.6267  -26.6566   31.0778 C   0  0  0  0  0  0  0  0  0  0  0  0
  -10.6259  -26.1197   29.6753 C   0  0  0  0  0  0  0  0  0  0  0  0
  -11.3472  -26.7299   28.6673 C   0  0  0  0  0  0  0  0  0  0  0  0
  -11.8829  -25.9501   27.6616 C   0  0  0  0  0  0  0  0  0  0  0  0
  -11.6949  -24.5725   27.6129 C   0  0  0  0  0  0  0  0  0  0  0  0
  -12.2153  -23.8043   26.4501 C   0  0  0  0  0  0  0  0  0  0  0  0
  -11.0512  -23.9742   28.6772 C   0  0  0  0  0  0  0  0  0  0  0  0
  -11.0823  -22.6236   28.8312 O   0  0  0  0  0  0  0  0  0  0  0  0
  -11.9951  -22.2427   29.8438 C   0  0  0  0  0  0  0  0  0  0  0  0
  -12.3053  -20.9559   29.5871 F   0  0  0  0  0  0  0  0  0  0  0  0
  -11.3716  -22.1876   31.0454 F   0  0  0  0  0  0  0  0  0  0  0  0
  -10.4345  -24.7526   29.6370 C   0  0  0  0  0  0  0  0  0  0  0  0
  -12.3570  -23.4610   34.6607 H   0  0  0  0  0  0  0  0  0  0  0  0
  -13.9312  -23.5740   33.8270 H   0  0  0  0  0  0  0  0  0  0  0  0
  -12.8578  -22.1919   33.5231 H   0  0  0  0  0  0  0  0  0  0  0  0
  -11.1794  -23.6782   32.5311 H   0  0  0  0  0  0  0  0  0  0  0  0
  -12.7785  -23.7902   31.7542 H   0  0  0  0  0  0  0  0  0  0  0  0
  -13.2191  -25.7871   33.2083 H   0  0  0  0  0  0  0  0  0  0  0  0
  -10.4991  -25.3120   33.9276 H   0  0  0  0  0  0  0  0  0  0  0  0
  -11.7887  -25.7821   34.7833 H   0  0  0  0  0  0  0  0  0  0  0  0
  -12.5113  -25.5209   30.7896 H   0  0  0  0  0  0  0  0  0  0  0  0
  -12.6242  -27.0461   31.3679 H   0  0  0  0  0  0  0  0  0  0  0  0
  -10.5364  -27.7467   31.0937 H   0  0  0  0  0  0  0  0  0  0  0  0
   -9.8045  -26.2372   31.6657 H   0  0  0  0  0  0  0  0  0  0  0  0
  -11.6644  -27.7585   28.7553 H   0  0  0  0  0  0  0  0  0  0  0  0
  -12.5381  -26.4341   26.9562 H   0  0  0  0  0  0  0  0  0  0  0  0
  -11.9406  -22.7595   26.5477 H   0  0  0  0  0  0  0  0  0  0  0  0
  -11.7383  -24.1375   25.5286 H   0  0  0  0  0  0  0  0  0  0  0  0
  -13.3002  -23.9020   26.3629 H   0  0  0  0  0  0  0  0  0  0  0  0
  -12.9116  -22.8395   29.8822 H   0  0  0  0  0  0  0  0  0  0  0  0
  -10.0222  -24.3251   30.5412 H   0  0  0  0  0  0  0  0  0  0  0  0
  1  2  1  0
  2  3  1  0
  3  4  1  0
  3  5  1  0
  5  6  1  0
  6  7  1  0
  7  8  2  0
  8  9  1  0
  9 10  2  0
 10 11  1  0
 10 12  1  0
 12 13  1  0
 13 14  1  0
 14 15  1  0
 14 16  1  0
 12 17  2  0
 17  7  1  0
  1 18  1  0
  1 19  1  0
  1 20  1  0
  2 21  1  0
  2 22  1  0
  3 23  1  0
  4 24  1  0
  4 25  1  0
  5 26  1  0
  5 27  1  0
  6 28  1  0
  6 29  1  0
  8 30  1  0
  9 31  1  0
 11 32  1  0
 11 33  1  0
 11 34  1  0
 14 35  1  0
 17 36  1  0
M  END
>  <Energy>  (404) 
70.191192315769726

>  <compound_id>  (404) 
683

>  <target_id>  (404) 
1

>  <reference_id>  (404) 
62

>  <inspiration_ids>  (404) 
[62, 16]

>  <energy_score>  (404) 
20.439148150921937

>  <distance_score>  (404) 
1.5935019240215116

>  <path>  (404) 
/opt/xchem-fragalysis-2/maxwin/BulkDock/SCRATCH/505733/C683-P62/C683-P62.minimised.mol

>  <scratch_subdir>  (404) 
/opt/xchem-fragalysis-2/maxwin/BulkDock/SCRATCH/505733/C683-P62

>  <fragmenstein_runtime>  (404) 
2.044475555419922

>  <fragmenstein_outcome>  (404) 
too moved

>  <fragmenstein_mode>  (404) 
expansion

>  <fragmenstein_error>  (404) 


$$$$
C683-P16
     RDKit          3D

 36 36  0  0  0  0  0  0  0  0999 V2000
  -12.9811  -23.4873   34.0524 C   0  0  0  0  0  0  0  0  0  0  0  0
  -12.0789  -23.5627   32.8668 C   0  0  0  0  0  0  0  0  0  0  0  0
  -11.2790  -24.8850   32.7113 C   0  0  0  0  0  0  0  0  0  0  0  0
   -9.8383  -24.6594   32.6755 N   0  0  0  0  0  0  0  0  0  0  0  0
  -11.6197  -25.3689   31.3213 C   0  0  0  0  0  0  0  0  0  0  0  0
  -10.8702  -26.5303   30.6190 C   0  0  0  0  0  0  0  0  0  0  0  0
  -10.9458  -26.1413   29.1508 C   0  0  0  0  0  0  0  0  0  0  0  0
  -11.8642  -26.6616   28.2453 C   0  0  0  0  0  0  0  0  0  0  0  0
  -12.2669  -25.8704   27.1696 C   0  0  0  0  0  0  0  0  0  0  0  0
  -11.9203  -24.5138   27.1325 C   0  0  0  0  0  0  0  0  0  0  0  0
  -12.4062  -23.6568   26.0106 C   0  0  0  0  0  0  0  0  0  0  0  0
  -11.0708  -24.0269   28.1184 C   0  0  0  0  0  0  0  0  0  0  0  0
  -11.0150  -22.7043   28.4670 O   0  0  0  0  0  0  0  0  0  0  0  0
  -11.9774  -22.4047   29.4842 C   0  0  0  0  0  0  0  0  0  0  0  0
  -12.4766  -21.1819   29.2087 F   0  0  0  0  0  0  0  0  0  0  0  0
  -11.3575  -22.2403   30.6775 F   0  0  0  0  0  0  0  0  0  0  0  0
  -10.3595  -24.9111   28.8946 C   0  0  0  0  0  0  0  0  0  0  0  0
  -12.3558  -23.3564   34.9254 H   0  0  0  0  0  0  0  0  0  0  0  0
  -13.6126  -24.3720   34.1378 H   0  0  0  0  0  0  0  0  0  0  0  0
  -13.6375  -22.6148   33.9693 H   0  0  0  0  0  0  0  0  0  0  0  0
  -11.4061  -22.7019   32.8885 H   0  0  0  0  0  0  0  0  0  0  0  0
  -12.7487  -23.3982   32.0148 H   0  0  0  0  0  0  0  0  0  0  0  0
  -11.5245  -25.6075   33.4883 H   0  0  0  0  0  0  0  0  0  0  0  0
   -9.5474  -23.9522   33.3360 H   0  0  0  0  0  0  0  0  0  0  0  0
   -9.3417  -25.5274   32.9025 H   0  0  0  0  0  0  0  0  0  0  0  0
  -11.4696  -24.4656   30.7471 H   0  0  0  0  0  0  0  0  0  0  0  0
  -12.6900  -25.4852   31.1928 H   0  0  0  0  0  0  0  0  0  0  0  0
  -11.3367  -27.5006   30.7925 H   0  0  0  0  0  0  0  0  0  0  0  0
   -9.8234  -26.6045   30.9246 H   0  0  0  0  0  0  0  0  0  0  0  0
  -12.3158  -27.6367   28.4013 H   0  0  0  0  0  0  0  0  0  0  0  0
  -12.9494  -26.2811   26.4280 H   0  0  0  0  0  0  0  0  0  0  0  0
  -12.3203  -22.6042   26.2733 H   0  0  0  0  0  0  0  0  0  0  0  0
  -11.7929  -23.8351   25.1225 H   0  0  0  0  0  0  0  0  0  0  0  0
  -13.4484  -23.8753   25.7639 H   0  0  0  0  0  0  0  0  0  0  0  0
  -12.8105  -23.1127   29.5666 H   0  0  0  0  0  0  0  0  0  0  0  0
   -9.6203  -24.5536   29.6014 H   0  0  0  0  0  0  0  0  0  0  0  0
  1  2  1  0
  2  3  1  0
  3  4  1  0
  3  5  1  0
  5  6  1  0
  6  7  1  0
  7  8  2  0
  8  9  1  0
  9 10  2  0
 10 11  1  0
 10 12  1  0
 12 13  1  0
 13 14  1  0
 14 15  1  0
 14 16  1  0
 12 17  2  0
 17  7  1  0
  1 18  1  0
  1 19  1  0
  1 20  1  0
  2 21  1  0
  2 22  1  0
  3 23  1  0
  4 24  1  0
  4 25  1  0
  5 26  1  0
  5 27  1  0
  6 28  1  0
  6 29  1  0
  8 30  1  0
  9 31  1  0
 11 32  1  0
 11 33  1  0
 11 34  1  0
 14 35  1  0
 17 36  1  0
M  END
>  <Energy>  (405) 
82.122633896289983

>  <compound_id>  (405) 
683

>  <target_id>  (405) 
1

>  <reference_id>  (405) 
16

>  <inspiration_ids>  (405) 
[62, 16]

>  <energy_score>  (405) 
32.37058973144208

>  <distance_score>  (405) 
1.5506164752474005

>  <path>  (405) 
/opt/xchem-fragalysis-2/maxwin/BulkDock/SCRATCH/505733/C683-P16/C683-P16.minimised.mol

>  <scratch_subdir>  (405) 
/opt/xchem-fragalysis-2/maxwin/BulkDock/SCRATCH/505733/C683-P16

>  <fragmenstein_runtime>  (405) 
2.0050137042999268

>  <fragmenstein_outcome>  (405) 
too moved

>  <fragmenstein_mode>  (405) 
expansion

>  <fragmenstein_error>  (405) 


$$$$
C687-P62
     RDKit          3D

 63 67  0  0  0  0  0  0  0  0999 V2000
  -11.8542  -23.5203   32.8784 N   0  0  0  0  0  0  0  0  0  0  0  0
  -11.9616  -25.1909   33.1073 S   0  0  0  0  0  0  0  0  0  0  0  0
  -10.9632  -25.5607   34.0876 O   0  0  0  0  0  0  0  0  0  0  0  0
  -13.3672  -25.4677   33.2428 O   0  0  0  0  0  0  0  0  0  0  0  0
  -11.3854  -25.8555   31.5865 C   0  0  0  0  0  0  0  0  0  0  0  0
  -10.5015  -26.9022   31.6620 C   0  0  0  0  0  0  0  0  0  0  0  0
   -9.9242  -27.3320   30.5016 C   0  0  0  0  0  0  0  0  0  0  0  0
  -10.1436  -26.6881   29.2803 C   0  0  0  0  0  0  0  0  0  0  0  0
  -11.0467  -25.6697   29.1959 C   0  0  0  0  0  0  0  0  0  0  0  0
  -11.6949  -25.2917   30.3562 C   0  0  0  0  0  0  0  0  0  0  0  0
  -12.6125  -24.3277   30.3795 O   0  0  0  0  0  0  0  0  0  0  0  0
  -13.3330  -24.1281   29.1906 C   0  0  0  0  0  0  0  0  0  0  0  0
  -12.6082  -23.2609   28.4408 F   0  0  0  0  0  0  0  0  0  0  0  0
  -13.8770  -25.1942   28.3587 O   0  0  0  0  0  0  0  0  0  0  0  0
  -14.1369  -24.8895   26.9672 C   0  0  0  0  0  0  0  0  0  0  0  0
  -15.5836  -25.1845   26.4246 C   0  0  0  0  0  0  0  0  0  0  0  0
  -16.6432  -25.4428   27.2932 N   0  0  0  0  0  0  0  0  0  0  0  0
  -17.9433  -24.9912   27.0178 C   0  0  0  0  0  0  0  0  0  0  0  0
  -18.9388  -25.3678   27.6236 O   0  0  0  0  0  0  0  0  0  0  0  0
  -17.9940  -23.8602   26.0312 C   0  0  0  0  0  0  0  0  0  0  0  0
  -19.0248  -22.9298   26.0088 C   0  0  0  0  0  0  0  0  0  0  0  0
  -18.8641  -21.7823   25.2325 C   0  0  0  0  0  0  0  0  0  0  0  0
  -17.6874  -21.5664   24.5020 C   0  0  0  0  0  0  0  0  0  0  0  0
  -16.6628  -22.5074   24.5081 C   0  0  0  0  0  0  0  0  0  0  0  0
  -16.8415  -23.6721   25.2415 C   0  0  0  0  0  0  0  0  0  0  0  0
  -15.9245  -24.8363   25.1504 C   0  0  0  0  0  0  0  0  0  0  0  0
  -16.6420  -25.6839   24.2809 N   0  0  0  0  0  0  0  0  0  0  0  0
  -17.4202  -26.8869   24.5455 C   0  0  0  0  0  0  0  0  0  0  0  0
  -17.5828  -27.5083   25.5607 O   0  0  0  0  0  0  0  0  0  0  0  0
  -18.0777  -27.3936   23.2696 C   0  0  0  0  0  0  0  0  0  0  0  0
  -19.5589  -27.0243   23.1853 C   0  0  0  0  0  0  0  0  0  0  0  0
  -19.7886  -25.4885   22.8890 C   0  0  0  0  0  0  0  0  0  0  0  0
  -20.9826  -24.7708   23.1042 C   0  0  0  0  0  0  0  0  0  0  0  0
  -20.6969  -23.5107   22.6505 C   0  0  0  0  0  0  0  0  0  0  0  0
  -19.4192  -23.4680   22.2001 O   0  0  0  0  0  0  0  0  0  0  0  0
  -18.8374  -24.7170   22.3473 N   0  0  0  0  0  0  0  0  0  0  0  0
  -20.3814  -27.9420   22.2361 C   0  0  0  0  0  0  0  0  0  0  0  0
  -21.4395  -28.0134   23.2629 N   0  0  0  0  0  0  0  0  0  0  0  0
  -20.4555  -27.6359   24.2992 C   0  0  0  0  0  0  0  0  0  0  0  0
  -11.6263  -23.2962   31.9113 H   0  0  0  0  0  0  0  0  0  0  0  0
  -12.7869  -23.1625   33.1039 H   0  0  0  0  0  0  0  0  0  0  0  0
  -10.2448  -27.3802   32.6012 H   0  0  0  0  0  0  0  0  0  0  0  0
   -9.1968  -28.1273   30.6028 H   0  0  0  0  0  0  0  0  0  0  0  0
   -9.5788  -26.9475   28.3943 H   0  0  0  0  0  0  0  0  0  0  0  0
  -11.2058  -25.1877   28.2370 H   0  0  0  0  0  0  0  0  0  0  0  0
  -14.1608  -23.6186   29.6627 H   0  0  0  0  0  0  0  0  0  0  0  0
  -13.8399  -23.8746   26.6899 H   0  0  0  0  0  0  0  0  0  0  0  0
  -13.4348  -25.5150   26.4289 H   0  0  0  0  0  0  0  0  0  0  0  0
  -16.5612  -26.1058   28.0542 H   0  0  0  0  0  0  0  0  0  0  0  0
  -19.9051  -23.0610   26.6305 H   0  0  0  0  0  0  0  0  0  0  0  0
  -19.6393  -21.0179   25.2354 H   0  0  0  0  0  0  0  0  0  0  0  0
  -17.5786  -20.6303   23.9636 H   0  0  0  0  0  0  0  0  0  0  0  0
  -15.7335  -22.3220   23.9870 H   0  0  0  0  0  0  0  0  0  0  0  0
  -16.8025  -25.3886   23.3203 H   0  0  0  0  0  0  0  0  0  0  0  0
  -17.5278  -27.0650   22.3796 H   0  0  0  0  0  0  0  0  0  0  0  0
  -17.9545  -28.4857   23.2821 H   0  0  0  0  0  0  0  0  0  0  0  0
  -21.9190  -25.1204   23.5135 H   0  0  0  0  0  0  0  0  0  0  0  0
  -21.2500  -22.5859   22.5796 H   0  0  0  0  0  0  0  0  0  0  0  0
  -19.9232  -28.9154   22.0212 H   0  0  0  0  0  0  0  0  0  0  0  0
  -20.7027  -27.5032   21.2862 H   0  0  0  0  0  0  0  0  0  0  0  0
  -21.8642  -28.9318   23.3906 H   0  0  0  0  0  0  0  0  0  0  0  0
  -20.8347  -26.9493   25.0620 H   0  0  0  0  0  0  0  0  0  0  0  0
  -20.0257  -28.5056   24.8118 H   0  0  0  0  0  0  0  0  0  0  0  0
  1  2  1  0
  2  3  2  0
  2  4  2  0
  2  5  1  0
  5  6  2  0
  6  7  1  0
  7  8  2  0
  8  9  1  0
  9 10  2  0
 10 11  1  0
 11 12  1  0
 12 13  1  0
 12 14  1  0
 14 15  1  0
 15 16  1  0
 16 17  1  0
 17 18  1  0
 18 19  2  0
 18 20  1  0
 20 21  2  0
 21 22  1  0
 22 23  2  0
 23 24  1  0
 24 25  2  0
 25 26  1  0
 26 27  1  0
 27 28  1  0
 28 29  2  0
 28 30  1  0
 30 31  1  0
 31 32  1  0
 32 33  1  0
 33 34  2  0
 34 35  1  0
 35 36  1  0
 31 37  1  0
 37 38  1  0
 38 39  1  0
 10  5  1  0
 26 16  2  0
 39 31  1  0
 25 20  1  0
 36 32  2  0
  1 40  1  0
  1 41  1  0
  6 42  1  0
  7 43  1  0
  8 44  1  0
  9 45  1  0
 12 46  1  0
 15 47  1  0
 15 48  1  0
 17 49  1  0
 21 50  1  0
 22 51  1  0
 23 52  1  0
 24 53  1  0
 27 54  1  0
 30 55  1  0
 30 56  1  0
 33 57  1  0
 34 58  1  0
 37 59  1  0
 37 60  1  0
 38 61  1  0
 39 62  1  0
 39 63  1  0
M  END
>  <Energy>  (406) 
65.917950888335028

>  <compound_id>  (406) 
687

>  <target_id>  (406) 
1

>  <reference_id>  (406) 
62

>  <inspiration_ids>  (406) 
[62, 42]

>  <energy_score>  (406) 
10.430347092344846

>  <distance_score>  (406) 
3.526522821178749

>  <path>  (406) 
/opt/xchem-fragalysis-2/maxwin/BulkDock/SCRATCH/505733/C687-P62/C687-P62.minimised.mol

>  <scratch_subdir>  (406) 
/opt/xchem-fragalysis-2/maxwin/BulkDock/SCRATCH/505733/C687-P62

>  <fragmenstein_runtime>  (406) 
21.876081943511963

>  <fragmenstein_outcome>  (406) 
too moved

>  <fragmenstein_mode>  (406) 
expansion

>  <fragmenstein_error>  (406) 


$$$$
C687-P42
     RDKit          3D

 63 67  0  0  0  0  0  0  0  0999 V2000
   -9.2992  -24.4414   32.4886 N   0  0  0  0  0  0  0  0  0  0  0  0
  -10.9559  -24.3202   32.3124 S   0  0  0  0  0  0  0  0  0  0  0  0
  -11.3219  -25.1572   33.4286 O   0  0  0  0  0  0  0  0  0  0  0  0
  -11.1480  -22.8965   32.2025 O   0  0  0  0  0  0  0  0  0  0  0  0
  -11.0643  -25.1601   30.7787 C   0  0  0  0  0  0  0  0  0  0  0  0
  -10.4785  -26.4138   30.7845 C   0  0  0  0  0  0  0  0  0  0  0  0
   -9.9266  -26.8691   29.6202 C   0  0  0  0  0  0  0  0  0  0  0  0
   -9.8404  -26.0386   28.5109 C   0  0  0  0  0  0  0  0  0  0  0  0
  -10.4457  -24.7908   28.5138 C   0  0  0  0  0  0  0  0  0  0  0  0
  -11.2722  -24.4847   29.5828 C   0  0  0  0  0  0  0  0  0  0  0  0
  -12.5133  -23.9129   29.3218 O   0  0  0  0  0  0  0  0  0  0  0  0
  -13.3031  -24.6718   28.3425 C   0  0  0  0  0  0  0  0  0  0  0  0
  -12.5250  -25.6792   27.9660 F   0  0  0  0  0  0  0  0  0  0  0  0
  -14.4970  -25.3776   28.8656 O   0  0  0  0  0  0  0  0  0  0  0  0
  -15.7595  -25.6941   28.1235 C   0  0  0  0  0  0  0  0  0  0  0  0
  -15.5412  -25.7185   26.6540 C   0  0  0  0  0  0  0  0  0  0  0  0
  -16.2274  -24.7785   25.9351 N   0  0  0  0  0  0  0  0  0  0  0  0
  -15.6434  -24.0512   24.9503 C   0  0  0  0  0  0  0  0  0  0  0  0
  -16.2508  -23.2491   24.2498 O   0  0  0  0  0  0  0  0  0  0  0  0
  -14.1770  -24.1827   24.9294 C   0  0  0  0  0  0  0  0  0  0  0  0
  -13.4850  -23.0145   24.5708 C   0  0  0  0  0  0  0  0  0  0  0  0
  -12.1155  -22.9682   24.7311 C   0  0  0  0  0  0  0  0  0  0  0  0
  -11.4477  -24.0998   25.2103 C   0  0  0  0  0  0  0  0  0  0  0  0
  -12.1426  -25.2809   25.5497 C   0  0  0  0  0  0  0  0  0  0  0  0
  -13.5397  -25.3396   25.4875 C   0  0  0  0  0  0  0  0  0  0  0  0
  -14.3665  -26.2845   26.3100 C   0  0  0  0  0  0  0  0  0  0  0  0
  -14.0814  -27.3462   27.2045 N   0  0  0  0  0  0  0  0  0  0  0  0
  -12.8491  -28.0508   27.4864 C   0  0  0  0  0  0  0  0  0  0  0  0
  -11.7679  -27.9704   26.9782 O   0  0  0  0  0  0  0  0  0  0  0  0
  -13.1355  -28.9641   28.6844 C   0  0  0  0  0  0  0  0  0  0  0  0
  -13.6727  -30.3638   28.3482 C   0  0  0  0  0  0  0  0  0  0  0  0
  -15.2273  -30.3726   28.0128 C   0  0  0  0  0  0  0  0  0  0  0  0
  -15.9542  -31.4572   27.4794 C   0  0  0  0  0  0  0  0  0  0  0  0
  -17.2321  -30.9761   27.3692 C   0  0  0  0  0  0  0  0  0  0  0  0
  -17.2747  -29.6928   27.8047 O   0  0  0  0  0  0  0  0  0  0  0  0
  -16.0105  -29.3072   28.2186 N   0  0  0  0  0  0  0  0  0  0  0  0
  -12.8058  -31.2340   27.3946 C   0  0  0  0  0  0  0  0  0  0  0  0
  -12.9105  -32.3518   28.3449 N   0  0  0  0  0  0  0  0  0  0  0  0
  -13.3274  -31.4388   29.4188 C   0  0  0  0  0  0  0  0  0  0  0  0
   -8.9964  -23.4953   32.7106 H   0  0  0  0  0  0  0  0  0  0  0  0
   -9.1579  -25.0847   33.2664 H   0  0  0  0  0  0  0  0  0  0  0  0
  -10.3521  -26.9653   31.7065 H   0  0  0  0  0  0  0  0  0  0  0  0
   -9.4235  -27.8182   29.6311 H   0  0  0  0  0  0  0  0  0  0  0  0
   -9.3654  -26.4260   27.6206 H   0  0  0  0  0  0  0  0  0  0  0  0
  -10.4710  -24.1962   27.6134 H   0  0  0  0  0  0  0  0  0  0  0  0
  -13.5515  -23.9707   27.5489 H   0  0  0  0  0  0  0  0  0  0  0  0
  -16.1354  -26.6404   28.5263 H   0  0  0  0  0  0  0  0  0  0  0  0
  -16.5881  -25.0288   28.3889 H   0  0  0  0  0  0  0  0  0  0  0  0
  -17.1576  -24.4876   26.2146 H   0  0  0  0  0  0  0  0  0  0  0  0
  -14.0118  -22.1367   24.2081 H   0  0  0  0  0  0  0  0  0  0  0  0
  -11.5757  -22.0807   24.4119 H   0  0  0  0  0  0  0  0  0  0  0  0
  -10.3628  -24.1104   25.2498 H   0  0  0  0  0  0  0  0  0  0  0  0
  -11.5554  -26.1163   25.9030 H   0  0  0  0  0  0  0  0  0  0  0  0
  -14.8225  -27.7319   27.7795 H   0  0  0  0  0  0  0  0  0  0  0  0
  -12.2234  -28.9906   29.2751 H   0  0  0  0  0  0  0  0  0  0  0  0
  -13.8234  -28.4639   29.3761 H   0  0  0  0  0  0  0  0  0  0  0  0
  -15.6037  -32.4462   27.2206 H   0  0  0  0  0  0  0  0  0  0  0  0
  -18.1705  -31.3876   27.0273 H   0  0  0  0  0  0  0  0  0  0  0  0
  -11.7820  -30.8848   27.2378 H   0  0  0  0  0  0  0  0  0  0  0  0
  -13.2266  -31.4490   26.4075 H   0  0  0  0  0  0  0  0  0  0  0  0
  -12.0424  -32.8627   28.5225 H   0  0  0  0  0  0  0  0  0  0  0  0
  -14.1587  -31.8106   30.0272 H   0  0  0  0  0  0  0  0  0  0  0  0
  -12.5184  -31.1682   30.1036 H   0  0  0  0  0  0  0  0  0  0  0  0
  1  2  1  0
  2  3  2  0
  2  4  2  0
  2  5  1  0
  5  6  2  0
  6  7  1  0
  7  8  2  0
  8  9  1  0
  9 10  2  0
 10 11  1  0
 11 12  1  0
 12 13  1  0
 12 14  1  0
 14 15  1  0
 15 16  1  0
 16 17  1  0
 17 18  1  0
 18 19  2  0
 18 20  1  0
 20 21  2  0
 21 22  1  0
 22 23  2  0
 23 24  1  0
 24 25  2  0
 25 26  1  0
 26 27  1  0
 27 28  1  0
 28 29  2  0
 28 30  1  0
 30 31  1  0
 31 32  1  0
 32 33  1  0
 33 34  2  0
 34 35  1  0
 35 36  1  0
 31 37  1  0
 37 38  1  0
 38 39  1  0
 10  5  1  0
 26 16  2  0
 39 31  1  0
 25 20  1  0
 36 32  2  0
  1 40  1  0
  1 41  1  0
  6 42  1  0
  7 43  1  0
  8 44  1  0
  9 45  1  0
 12 46  1  0
 15 47  1  0
 15 48  1  0
 17 49  1  0
 21 50  1  0
 22 51  1  0
 23 52  1  0
 24 53  1  0
 27 54  1  0
 30 55  1  0
 30 56  1  0
 33 57  1  0
 34 58  1  0
 37 59  1  0
 37 60  1  0
 38 61  1  0
 39 62  1  0
 39 63  1  0
M  END
>  <Energy>  (407) 
118.17043869268507

>  <compound_id>  (407) 
687

>  <target_id>  (407) 
1

>  <reference_id>  (407) 
42

>  <inspiration_ids>  (407) 
[62, 42]

>  <energy_score>  (407) 
62.68283489669648

>  <distance_score>  (407) 
2.5638757183717837

>  <path>  (407) 
/opt/xchem-fragalysis-2/maxwin/BulkDock/SCRATCH/505733/C687-P42/C687-P42.minimised.mol

>  <scratch_subdir>  (407) 
/opt/xchem-fragalysis-2/maxwin/BulkDock/SCRATCH/505733/C687-P42

>  <fragmenstein_runtime>  (407) 
19.274774074554443

>  <fragmenstein_outcome>  (407) 
too moved

>  <fragmenstein_mode>  (407) 
expansion

>  <fragmenstein_error>  (407) 


$$$$
C688-P62
     RDKit          3D

 62 64  0  0  0  0  0  0  0  0999 V2000
  -10.4904  -25.8471   32.9859 N   0  0  0  0  0  0  0  0  0  0  0  0
  -11.4846  -26.0259   34.2258 S   0  0  0  0  0  0  0  0  0  0  0  0
  -11.2995  -27.4287   34.2632 O   0  0  0  0  0  0  0  0  0  0  0  0
  -10.7894  -25.1757   35.1465 O   0  0  0  0  0  0  0  0  0  0  0  0
  -13.1571  -25.3739   33.6787 C   0  0  0  0  0  0  0  0  0  0  0  0
  -14.5818  -25.6725   34.3043 C   0  0  0  0  0  0  0  0  0  0  0  0
  -15.7060  -24.7717   33.7449 C   0  0  0  0  0  0  0  0  0  0  0  0
  -15.3743  -23.2905   33.8018 C   0  0  0  0  0  0  0  0  0  0  0  0
  -13.9676  -22.9945   33.2923 C   0  0  0  0  0  0  0  0  0  0  0  0
  -13.9625  -23.2390   31.8251 C   0  0  0  0  0  0  0  0  0  0  0  0
  -13.2343  -22.0699   31.2695 C   0  0  0  0  0  0  0  0  0  0  0  0
  -12.2652  -22.2256   30.1271 C   0  0  0  0  0  0  0  0  0  0  0  0
  -12.6551  -22.9815   28.9994 O   0  0  0  0  0  0  0  0  0  0  0  0
  -13.2120  -24.2821   29.1882 C   0  0  0  0  0  0  0  0  0  0  0  0
  -12.4289  -25.3761   29.8886 C   0  0  0  0  0  0  0  0  0  0  0  0
  -11.3030  -24.8233   30.5584 N   0  0  0  0  0  0  0  0  0  0  0  0
   -9.8826  -25.5581   30.4677 S   0  0  0  0  0  0  0  0  0  0  0  0
   -9.0133  -24.7770   31.3105 O   0  0  0  0  0  0  0  0  0  0  0  0
  -10.0999  -26.9515   30.8004 O   0  0  0  0  0  0  0  0  0  0  0  0
   -9.5541  -25.3469   28.8660 N   0  0  0  0  0  0  0  0  0  0  0  0
   -9.9852  -24.1020   28.1629 C   0  0  0  0  0  0  0  0  0  0  0  0
  -10.8502  -24.3093   26.9318 C   0  0  0  0  0  0  0  0  0  0  0  0
  -11.7240  -25.4454   27.0865 N   0  0  0  0  0  0  0  0  0  0  0  0
  -10.9346  -26.6515   27.2244 C   0  0  0  0  0  0  0  0  0  0  0  0
   -9.7641  -26.5843   28.1485 C   0  0  0  0  0  0  0  0  0  0  0  0
  -12.5465  -21.4193   32.4457 C   0  0  0  0  0  0  0  0  0  0  0  0
  -13.5942  -21.5585   33.4230 N   0  0  0  0  0  0  0  0  0  0  0  0
  -12.8317  -23.9054   33.7294 C   0  0  0  0  0  0  0  0  0  0  0  0
  -11.7586  -23.7894   32.7677 O   0  0  0  0  0  0  0  0  0  0  0  0
  -10.1902  -26.7713   32.6348 H   0  0  0  0  0  0  0  0  0  0  0  0
   -9.8007  -25.0975   32.9909 H   0  0  0  0  0  0  0  0  0  0  0  0
  -13.1806  -25.7738   32.6720 H   0  0  0  0  0  0  0  0  0  0  0  0
  -14.7660  -25.5966   35.3643 H   0  0  0  0  0  0  0  0  0  0  0  0
  -14.8524  -26.7241   34.2654 H   0  0  0  0  0  0  0  0  0  0  0  0
  -15.9761  -25.0119   32.7179 H   0  0  0  0  0  0  0  0  0  0  0  0
  -16.6228  -24.9523   34.3214 H   0  0  0  0  0  0  0  0  0  0  0  0
  -15.5561  -22.9207   34.8012 H   0  0  0  0  0  0  0  0  0  0  0  0
  -16.1213  -22.7420   33.2095 H   0  0  0  0  0  0  0  0  0  0  0  0
  -13.5402  -24.1819   31.5658 H   0  0  0  0  0  0  0  0  0  0  0  0
  -14.9593  -23.3702   31.4917 H   0  0  0  0  0  0  0  0  0  0  0  0
  -14.1177  -21.5089   31.0242 H   0  0  0  0  0  0  0  0  0  0  0  0
  -12.0215  -21.2329   29.7349 H   0  0  0  0  0  0  0  0  0  0  0  0
  -11.3154  -22.5665   30.5168 H   0  0  0  0  0  0  0  0  0  0  0  0
  -13.5536  -24.6569   28.2198 H   0  0  0  0  0  0  0  0  0  0  0  0
  -14.1403  -24.1123   29.6961 H   0  0  0  0  0  0  0  0  0  0  0  0
  -12.2118  -26.2178   29.2471 H   0  0  0  0  0  0  0  0  0  0  0  0
  -13.0007  -25.8578   30.6620 H   0  0  0  0  0  0  0  0  0  0  0  0
  -11.4915  -24.5997   31.5389 H   0  0  0  0  0  0  0  0  0  0  0  0
   -9.1217  -23.5071   27.8889 H   0  0  0  0  0  0  0  0  0  0  0  0
  -10.5219  -23.4489   28.8174 H   0  0  0  0  0  0  0  0  0  0  0  0
  -11.4550  -23.4167   26.7447 H   0  0  0  0  0  0  0  0  0  0  0  0
  -10.2448  -24.4574   26.0388 H   0  0  0  0  0  0  0  0  0  0  0  0
  -12.2412  -25.5381   26.2069 H   0  0  0  0  0  0  0  0  0  0  0  0
  -11.6230  -27.4407   27.5409 H   0  0  0  0  0  0  0  0  0  0  0  0
  -10.5114  -27.0000   26.2827 H   0  0  0  0  0  0  0  0  0  0  0  0
   -9.9365  -27.3848   28.8420 H   0  0  0  0  0  0  0  0  0  0  0  0
   -8.8411  -26.8755   27.6707 H   0  0  0  0  0  0  0  0  0  0  0  0
  -11.6057  -21.8567   32.7070 H   0  0  0  0  0  0  0  0  0  0  0  0
  -12.1503  -20.4314   32.3841 H   0  0  0  0  0  0  0  0  0  0  0  0
  -13.1853  -21.3370   34.3262 H   0  0  0  0  0  0  0  0  0  0  0  0
  -12.4344  -23.5734   34.6799 H   0  0  0  0  0  0  0  0  0  0  0  0
  -10.9601  -23.4616   33.1938 H   0  0  0  0  0  0  0  0  0  0  0  0
  1  2  1  0
  2  3  2  0
  2  4  2  0
  2  5  1  0
  5  6  1  0
  6  7  1  0
  7  8  1  0
  8  9  1  0
  9 10  1  0
 10 11  1  0
 11 12  1  0
 12 13  1  0
 13 14  1  0
 14 15  1  0
 15 16  1  0
 16 17  1  0
 17 18  2  0
 17 19  2  0
 17 20  1  0
 20 21  1  0
 21 22  1  0
 22 23  1  0
 23 24  1  0
 24 25  1  0
 11 26  1  0
 26 27  1  0
  9 28  1  0
 28 29  1  0
 28  5  1  0
 27  9  1  0
 25 20  1  0
  1 30  1  0
  1 31  1  0
  5 32  1  0
  6 33  1  0
  6 34  1  0
  7 35  1  0
  7 36  1  0
  8 37  1  0
  8 38  1  0
 10 39  1  0
 10 40  1  0
 11 41  1  0
 12 42  1  0
 12 43  1  0
 14 44  1  0
 14 45  1  0
 15 46  1  0
 15 47  1  0
 16 48  1  0
 21 49  1  0
 21 50  1  0
 22 51  1  0
 22 52  1  0
 23 53  1  0
 24 54  1  0
 24 55  1  0
 25 56  1  0
 25 57  1  0
 26 58  1  0
 26 59  1  0
 27 60  1  0
 28 61  1  0
 29 62  1  0
M  END
>  <Energy>  (408) 
18.142172732752133

>  <compound_id>  (408) 
688

>  <target_id>  (408) 
1

>  <reference_id>  (408) 
62

>  <inspiration_ids>  (408) 
[62, 45]

>  <energy_score>  (408) 
73.49208474099106

>  <distance_score>  (408) 
4.333065580793179

>  <path>  (408) 
/opt/xchem-fragalysis-2/maxwin/BulkDock/SCRATCH/505733/C688-P62/C688-P62.minimised.mol

>  <scratch_subdir>  (408) 
/opt/xchem-fragalysis-2/maxwin/BulkDock/SCRATCH/505733/C688-P62

>  <fragmenstein_runtime>  (408) 
21.461935997009277

>  <fragmenstein_outcome>  (408) 
too moved

>  <fragmenstein_mode>  (408) 
expansion

>  <fragmenstein_error>  (408) 


$$$$
C688-P45
     RDKit          3D

 62 64  0  0  0  0  0  0  0  0999 V2000
  -10.4437  -23.9690   32.9536 N   0  0  0  0  0  0  0  0  0  0  0  0
   -9.7483  -25.3267   32.3264 S   0  0  0  0  0  0  0  0  0  0  0  0
   -8.3358  -25.2054   32.5388 O   0  0  0  0  0  0  0  0  0  0  0  0
  -10.4786  -26.4034   32.9381 O   0  0  0  0  0  0  0  0  0  0  0  0
  -10.0818  -25.1643   30.5306 C   0  0  0  0  0  0  0  0  0  0  0  0
  -10.3737  -26.6143   30.0049 C   0  0  0  0  0  0  0  0  0  0  0  0
  -11.7110  -26.8974   29.3196 C   0  0  0  0  0  0  0  0  0  0  0  0
  -12.5297  -25.6763   28.9263 C   0  0  0  0  0  0  0  0  0  0  0  0
  -11.6665  -24.4041   28.7502 C   0  0  0  0  0  0  0  0  0  0  0  0
  -10.6248  -24.5984   27.6904 C   0  0  0  0  0  0  0  0  0  0  0  0
  -11.5236  -24.5593   26.5003 C   0  0  0  0  0  0  0  0  0  0  0  0
  -10.9475  -24.8557   25.1746 C   0  0  0  0  0  0  0  0  0  0  0  0
  -11.4987  -26.0707   24.6746 O   0  0  0  0  0  0  0  0  0  0  0  0
  -11.6137  -27.2703   25.4132 C   0  0  0  0  0  0  0  0  0  0  0  0
  -10.4826  -27.8505   26.2656 C   0  0  0  0  0  0  0  0  0  0  0  0
   -9.2578  -28.3102   25.6083 N   0  0  0  0  0  0  0  0  0  0  0  0
   -7.8780  -28.3897   26.5426 S   0  0  0  0  0  0  0  0  0  0  0  0
   -8.4133  -28.4873   27.8702 O   0  0  0  0  0  0  0  0  0  0  0  0
   -7.0199  -29.3717   25.9479 O   0  0  0  0  0  0  0  0  0  0  0  0
   -7.0889  -26.9094   26.5145 N   0  0  0  0  0  0  0  0  0  0  0  0
   -5.6262  -26.9653   26.7892 C   0  0  0  0  0  0  0  0  0  0  0  0
   -4.9599  -25.5952   27.0113 C   0  0  0  0  0  0  0  0  0  0  0  0
   -5.7560  -24.3890   26.7932 N   0  0  0  0  0  0  0  0  0  0  0  0
   -7.0323  -24.5148   27.4399 C   0  0  0  0  0  0  0  0  0  0  0  0
   -7.7928  -25.7913   27.1231 C   0  0  0  0  0  0  0  0  0  0  0  0
  -12.1757  -23.2463   26.7372 C   0  0  0  0  0  0  0  0  0  0  0  0
  -12.2832  -23.1872   28.2026 N   0  0  0  0  0  0  0  0  0  0  0  0
  -11.1393  -24.0520   30.1207 C   0  0  0  0  0  0  0  0  0  0  0  0
  -10.8678  -22.6504   30.1304 O   0  0  0  0  0  0  0  0  0  0  0  0
  -11.2236  -24.2117   33.5787 H   0  0  0  0  0  0  0  0  0  0  0  0
   -9.7314  -23.3867   33.3809 H   0  0  0  0  0  0  0  0  0  0  0  0
   -9.1085  -24.8788   30.1198 H   0  0  0  0  0  0  0  0  0  0  0  0
  -10.2201  -27.3774   30.7759 H   0  0  0  0  0  0  0  0  0  0  0  0
   -9.5871  -26.8662   29.2996 H   0  0  0  0  0  0  0  0  0  0  0  0
  -11.5375  -27.5141   28.4457 H   0  0  0  0  0  0  0  0  0  0  0  0
  -12.3279  -27.5724   29.9228 H   0  0  0  0  0  0  0  0  0  0  0  0
  -13.1212  -25.9832   28.0711 H   0  0  0  0  0  0  0  0  0  0  0  0
  -13.3005  -25.4980   29.6785 H   0  0  0  0  0  0  0  0  0  0  0  0
   -9.8702  -23.8056   27.6902 H   0  0  0  0  0  0  0  0  0  0  0  0
  -10.1194  -25.5257   27.8049 H   0  0  0  0  0  0  0  0  0  0  0  0
  -12.3371  -25.2669   26.5876 H   0  0  0  0  0  0  0  0  0  0  0  0
  -11.2306  -24.0736   24.4638 H   0  0  0  0  0  0  0  0  0  0  0  0
   -9.8664  -24.9019   25.1622 H   0  0  0  0  0  0  0  0  0  0  0  0
  -11.9006  -27.9547   24.6381 H   0  0  0  0  0  0  0  0  0  0  0  0
  -12.5089  -27.2012   26.0411 H   0  0  0  0  0  0  0  0  0  0  0  0
  -10.8835  -28.7094   26.8163 H   0  0  0  0  0  0  0  0  0  0  0  0
  -10.1943  -27.0980   26.9675 H   0  0  0  0  0  0  0  0  0  0  0  0
   -9.3741  -29.1855   25.0899 H   0  0  0  0  0  0  0  0  0  0  0  0
   -5.1361  -27.4715   25.9552 H   0  0  0  0  0  0  0  0  0  0  0  0
   -5.4236  -27.6042   27.6485 H   0  0  0  0  0  0  0  0  0  0  0  0
   -4.0601  -25.5632   26.3928 H   0  0  0  0  0  0  0  0  0  0  0  0
   -4.5883  -25.5376   28.0323 H   0  0  0  0  0  0  0  0  0  0  0  0
   -5.2580  -23.5990   27.1985 H   0  0  0  0  0  0  0  0  0  0  0  0
   -7.6440  -23.6516   27.1654 H   0  0  0  0  0  0  0  0  0  0  0  0
   -6.9070  -24.4119   28.5224 H   0  0  0  0  0  0  0  0  0  0  0  0
   -8.2227  -26.1110   28.0639 H   0  0  0  0  0  0  0  0  0  0  0  0
   -8.5613  -25.5273   26.4127 H   0  0  0  0  0  0  0  0  0  0  0  0
  -11.5897  -22.3949   26.4117 H   0  0  0  0  0  0  0  0  0  0  0  0
  -13.1110  -23.2798   26.1924 H   0  0  0  0  0  0  0  0  0  0  0  0
  -13.2237  -23.1120   28.5704 H   0  0  0  0  0  0  0  0  0  0  0  0
  -11.9805  -23.9841   30.7876 H   0  0  0  0  0  0  0  0  0  0  0  0
  -11.3472  -22.2885   29.3477 H   0  0  0  0  0  0  0  0  0  0  0  0
  1  2  1  0
  2  3  2  0
  2  4  2  0
  2  5  1  0
  5  6  1  0
  6  7  1  0
  7  8  1  0
  8  9  1  0
  9 10  1  0
 10 11  1  0
 11 12  1  0
 12 13  1  0
 13 14  1  0
 14 15  1  0
 15 16  1  0
 16 17  1  0
 17 18  2  0
 17 19  2  0
 17 20  1  0
 20 21  1  0
 21 22  1  0
 22 23  1  0
 23 24  1  0
 24 25  1  0
 11 26  1  0
 26 27  1  0
  9 28  1  0
 28 29  1  0
 28  5  1  0
 27  9  1  0
 25 20  1  0
  1 30  1  0
  1 31  1  0
  5 32  1  0
  6 33  1  0
  6 34  1  0
  7 35  1  0
  7 36  1  0
  8 37  1  0
  8 38  1  0
 10 39  1  0
 10 40  1  0
 11 41  1  0
 12 42  1  0
 12 43  1  0
 14 44  1  0
 14 45  1  0
 15 46  1  0
 15 47  1  0
 16 48  1  0
 21 49  1  0
 21 50  1  0
 22 51  1  0
 22 52  1  0
 23 53  1  0
 24 54  1  0
 24 55  1  0
 25 56  1  0
 25 57  1  0
 26 58  1  0
 26 59  1  0
 27 60  1  0
 28 61  1  0
 29 62  1  0
M  END
>  <Energy>  (409) 
-59.972552088076597

>  <compound_id>  (409) 
688

>  <target_id>  (409) 
1

>  <reference_id>  (409) 
45

>  <inspiration_ids>  (409) 
[62, 45]

>  <energy_score>  (409) 
-39.11622138364669

>  <distance_score>  (409) 
2.117432101196489

>  <path>  (409) 
/opt/xchem-fragalysis-2/maxwin/BulkDock/SCRATCH/505733/C688-P45/C688-P45.minimised.mol

>  <scratch_subdir>  (409) 
/opt/xchem-fragalysis-2/maxwin/BulkDock/SCRATCH/505733/C688-P45

>  <fragmenstein_runtime>  (409) 
12.56798505783081

>  <fragmenstein_outcome>  (409) 
too moved

>  <fragmenstein_mode>  (409) 
expansion

>  <fragmenstein_error>  (409) 


$$$$
C689-P62
     RDKit          3D

 25 26  0  0  0  0  0  0  0  0999 V2000
  -10.1176  -26.3061   32.5523 N   0  0  0  0  0  0  0  0  0  0  0  0
  -10.7393  -25.6330   31.8488 C   0  0  0  0  0  0  0  0  0  0  0  0
  -11.3411  -24.8147   30.8882 C   0  0  0  0  0  0  0  0  0  0  0  0
  -12.0929  -23.6739   31.0071 C   0  0  0  0  0  0  0  0  0  0  0  0
  -12.3309  -23.1348   29.7656 N   0  0  0  0  0  0  0  0  0  0  0  0
  -11.7866  -23.9867   28.9121 C   0  0  0  0  0  0  0  0  0  0  0  0
  -11.7494  -23.9532   27.4275 C   0  0  0  0  0  0  0  0  0  0  0  0
  -10.7030  -24.8523   26.9192 N   0  0  0  0  0  0  0  0  0  0  0  0
  -13.0525  -24.3185   26.7677 C   0  0  0  0  0  0  0  0  0  0  0  0
  -14.0094  -25.1397   27.3687 C   0  0  0  0  0  0  0  0  0  0  0  0
  -15.2753  -25.3126   26.7981 C   0  0  0  0  0  0  0  0  0  0  0  0
  -15.5440  -24.7606   25.5548 C   0  0  0  0  0  0  0  0  0  0  0  0
  -14.5631  -24.0257   24.9010 C   0  0  0  0  0  0  0  0  0  0  0  0
  -13.3316  -23.8046   25.5033 C   0  0  0  0  0  0  0  0  0  0  0  0
  -11.1884  -25.0279   29.5603 N   0  0  0  0  0  0  0  0  0  0  0  0
  -12.4449  -23.1915   31.9105 H   0  0  0  0  0  0  0  0  0  0  0  0
  -11.4933  -22.9229   27.1614 H   0  0  0  0  0  0  0  0  0  0  0  0
  -11.1736  -25.7125   26.5954 H   0  0  0  0  0  0  0  0  0  0  0  0
  -10.4316  -24.4650   26.0128 H   0  0  0  0  0  0  0  0  0  0  0  0
  -13.7753  -25.5696   28.3338 H   0  0  0  0  0  0  0  0  0  0  0  0
  -16.0435  -25.8923   27.3013 H   0  0  0  0  0  0  0  0  0  0  0  0
  -16.5194  -24.8957   25.0963 H   0  0  0  0  0  0  0  0  0  0  0  0
  -14.7576  -23.5718   23.9368 H   0  0  0  0  0  0  0  0  0  0  0  0
  -12.6140  -23.1550   25.0084 H   0  0  0  0  0  0  0  0  0  0  0  0
  -10.6629  -25.7576   29.0944 H   0  0  0  0  0  0  0  0  0  0  0  0
  1  2  3  0
  2  3  1  0
  3  4  2  0
  4  5  1  0
  5  6  2  0
  6  7  1  0
  7  8  1  0
  7  9  1  0
  9 10  2  0
 10 11  1  0
 11 12  2  0
 12 13  1  0
 13 14  2  0
  6 15  1  0
 15  3  1  0
 14  9  1  0
  4 16  1  0
  7 17  1  0
  8 18  1  0
  8 19  1  0
 10 20  1  0
 11 21  1  0
 12 22  1  0
 13 23  1  0
 14 24  1  0
 15 25  1  0
M  END
>  <Energy>  (410) 
29.865505541536912

>  <compound_id>  (410) 
689

>  <target_id>  (410) 
1

>  <reference_id>  (410) 
62

>  <inspiration_ids>  (410) 
[62, 47]

>  <energy_score>  (410) 
-8.291056998945027

>  <distance_score>  (410) 
1.5986087310950663

>  <path>  (410) 
/opt/xchem-fragalysis-2/maxwin/BulkDock/SCRATCH/505733/C689-P62/C689-P62.minimised.mol

>  <scratch_subdir>  (410) 
/opt/xchem-fragalysis-2/maxwin/BulkDock/SCRATCH/505733/C689-P62

>  <fragmenstein_runtime>  (410) 
1.1109707355499268

>  <fragmenstein_outcome>  (410) 
too moved

>  <fragmenstein_mode>  (410) 
expansion

>  <fragmenstein_error>  (410) 


$$$$
C689-P47
     RDKit          3D

 25 26  0  0  0  0  0  0  0  0999 V2000
  -10.3755  -25.8034   33.2109 N   0  0  0  0  0  0  0  0  0  0  0  0
  -10.8779  -25.2505   32.3286 C   0  0  0  0  0  0  0  0  0  0  0  0
  -11.4131  -24.5661   31.2294 C   0  0  0  0  0  0  0  0  0  0  0  0
  -12.0381  -23.3485   31.1572 C   0  0  0  0  0  0  0  0  0  0  0  0
  -12.1840  -22.9734   29.8456 N   0  0  0  0  0  0  0  0  0  0  0  0
  -11.6879  -23.9782   29.1401 C   0  0  0  0  0  0  0  0  0  0  0  0
  -11.3982  -24.0302   27.6779 C   0  0  0  0  0  0  0  0  0  0  0  0
  -10.0976  -24.6382   27.4119 N   0  0  0  0  0  0  0  0  0  0  0  0
  -12.4647  -24.7295   26.8829 C   0  0  0  0  0  0  0  0  0  0  0  0
  -12.9492  -26.0089   27.1847 C   0  0  0  0  0  0  0  0  0  0  0  0
  -14.0301  -26.5399   26.4810 C   0  0  0  0  0  0  0  0  0  0  0  0
  -14.6254  -25.8158   25.4623 C   0  0  0  0  0  0  0  0  0  0  0  0
  -14.1104  -24.5774   25.1147 C   0  0  0  0  0  0  0  0  0  0  0  0
  -13.0221  -24.0510   25.7994 C   0  0  0  0  0  0  0  0  0  0  0  0
  -11.3201  -25.0161   29.9532 N   0  0  0  0  0  0  0  0  0  0  0  0
  -12.3285  -22.6948   31.9701 H   0  0  0  0  0  0  0  0  0  0  0  0
  -11.3320  -22.9855   27.3486 H   0  0  0  0  0  0  0  0  0  0  0  0
  -10.1325  -25.6461   27.5148 H   0  0  0  0  0  0  0  0  0  0  0  0
   -9.4152  -24.2465   28.0503 H   0  0  0  0  0  0  0  0  0  0  0  0
  -12.5146  -26.5972   27.9849 H   0  0  0  0  0  0  0  0  0  0  0  0
  -14.4200  -27.5193   26.7303 H   0  0  0  0  0  0  0  0  0  0  0  0
  -15.4817  -26.2104   24.9247 H   0  0  0  0  0  0  0  0  0  0  0  0
  -14.5747  -23.9927   24.3238 H   0  0  0  0  0  0  0  0  0  0  0  0
  -12.6569  -23.0683   25.5078 H   0  0  0  0  0  0  0  0  0  0  0  0
  -10.8796  -25.8751   29.6546 H   0  0  0  0  0  0  0  0  0  0  0  0
  1  2  3  0
  2  3  1  0
  3  4  2  0
  4  5  1  0
  5  6  2  0
  6  7  1  0
  7  8  1  0
  7  9  1  0
  9 10  2  0
 10 11  1  0
 11 12  2  0
 12 13  1  0
 13 14  2  0
  6 15  1  0
 15  3  1  0
 14  9  1  0
  4 16  1  0
  7 17  1  0
  8 18  1  0
  8 19  1  0
 10 20  1  0
 11 21  1  0
 12 22  1  0
 13 23  1  0
 14 24  1  0
 15 25  1  0
M  END
>  <Energy>  (411) 
34.078083964901346

>  <compound_id>  (411) 
689

>  <target_id>  (411) 
1

>  <reference_id>  (411) 
47

>  <inspiration_ids>  (411) 
[62, 47]

>  <energy_score>  (411) 
-4.078478575580505

>  <distance_score>  (411) 
1.466127899130543

>  <path>  (411) 
/opt/xchem-fragalysis-2/maxwin/BulkDock/SCRATCH/505733/C689-P47/C689-P47.minimised.mol

>  <scratch_subdir>  (411) 
/opt/xchem-fragalysis-2/maxwin/BulkDock/SCRATCH/505733/C689-P47

>  <fragmenstein_runtime>  (411) 
1.3972408771514893

>  <fragmenstein_outcome>  (411) 
too moved

>  <fragmenstein_mode>  (411) 
expansion

>  <fragmenstein_error>  (411) 


$$$$
C691-P62
     RDKit          3D

 24 24  0  0  0  0  0  0  0  0999 V2000
  -12.7532  -23.6954   25.6008 C   0  0  0  0  0  0  0  0  0  0  0  0
  -12.4355  -23.8376   27.5373 N   0  0  0  0  0  0  0  0  0  0  0  0
  -12.2831  -23.7779   26.2596 C   0  0  0  0  0  0  0  0  0  0  0  0
  -13.3100  -24.6516   28.4756 C   0  0  0  0  0  0  0  0  0  0  0  0
  -14.1804  -25.3871   28.2852 O   0  0  0  0  0  0  0  0  0  0  0  0
  -12.8479  -24.1982   29.8817 C   0  0  0  0  0  0  0  0  0  0  0  0
  -11.4438  -23.9953   29.9714 O   0  0  0  0  0  0  0  0  0  0  0  0
  -10.9019  -25.0063   30.7410 N   0  0  0  0  0  0  0  0  0  0  0  0
  -10.3438  -24.8077   31.9638 C   0  0  0  0  0  0  0  0  0  0  0  0
   -9.8794  -25.9302   32.4567 N   0  0  0  0  0  0  0  0  0  0  0  0
  -10.1912  -26.8726   31.5035 C   0  0  0  0  0  0  0  0  0  0  0  0
   -9.9317  -28.1749   31.6461 F   0  0  0  0  0  0  0  0  0  0  0  0
  -10.7878  -26.3148   30.4059 C   0  0  0  0  0  0  0  0  0  0  0  0
  -11.2668  -26.8940   29.2209 C   0  0  0  0  0  0  0  0  0  0  0  0
  -11.7252  -27.3329   28.2514 N   0  0  0  0  0  0  0  0  0  0  0  0
  -13.2203  -24.6525   25.0253 H   0  0  0  0  0  0  0  0  0  0  0  0
  -12.4111  -22.7772   24.8272 H   0  0  0  0  0  0  0  0  0  0  0  0
  -13.9160  -23.2986   25.6436 H   0  0  0  0  0  0  0  0  0  0  0  0
  -11.6911  -22.7402   26.6270 H   0  0  0  0  0  0  0  0  0  0  0  0
  -11.9281  -24.9536   26.4972 H   0  0  0  0  0  0  0  0  0  0  0  0
  -11.0391  -23.9317   25.9502 H   0  0  0  0  0  0  0  0  0  0  0  0
  -13.3252  -23.2352   30.0900 H   0  0  0  0  0  0  0  0  0  0  0  0
  -13.2030  -24.8919   30.6463 H   0  0  0  0  0  0  0  0  0  0  0  0
  -10.3083  -23.8323   32.4238 H   0  0  0  0  0  0  0  0  0  0  0  0
  1  2  1  0
  2  3  1  0
  2  4  1  0
  4  5  2  0
  4  6  1  0
  6  7  1  0
  7  8  1  0
  8  9  1  0
  9 10  2  0
 10 11  1  0
 11 12  1  0
 11 13  2  0
 13 14  1  0
 14 15  3  0
 13  8  1  0
  1 16  1  0
  1 17  1  0
  1 18  1  0
  3 19  1  0
  3 20  1  0
  3 21  1  0
  6 22  1  0
  6 23  1  0
  9 24  1  0
M  END
>  <Energy>  (412) 
744.66160885130853

>  <compound_id>  (412) 
691

>  <target_id>  (412) 
1

>  <reference_id>  (412) 
62

>  <inspiration_ids>  (412) 
[62, 64]

>  <energy_score>  (412) 
734.908717754285

>  <distance_score>  (412) 
3.9241702463168346

>  <path>  (412) 
/opt/xchem-fragalysis-2/maxwin/BulkDock/SCRATCH/505733/C691-P62/C691-P62.minimised.mol

>  <scratch_subdir>  (412) 
/opt/xchem-fragalysis-2/maxwin/BulkDock/SCRATCH/505733/C691-P62

>  <fragmenstein_runtime>  (412) 
5.533070087432861

>  <fragmenstein_outcome>  (412) 
too moved

>  <fragmenstein_mode>  (412) 
expansion

>  <fragmenstein_error>  (412) 


$$$$
C691-P64
     RDKit          3D

 24 24  0  0  0  0  0  0  0  0999 V2000
  -11.6092  -22.6873   30.9855 C   0  0  0  0  0  0  0  0  0  0  0  0
  -11.1822  -23.7410   30.3962 N   0  0  0  0  0  0  0  0  0  0  0  0
  -11.4229  -22.0507   31.4194 C   0  0  0  0  0  0  0  0  0  0  0  0
  -10.7693  -23.9515   29.0353 C   0  0  0  0  0  0  0  0  0  0  0  0
  -10.5943  -23.1803   28.1419 O   0  0  0  0  0  0  0  0  0  0  0  0
  -10.4269  -25.4249   28.8128 C   0  0  0  0  0  0  0  0  0  0  0  0
  -11.2790  -26.2430   28.0523 O   0  0  0  0  0  0  0  0  0  0  0  0
  -11.9396  -25.5638   27.0163 N   0  0  0  0  0  0  0  0  0  0  0  0
  -12.9198  -24.6260   27.1497 C   0  0  0  0  0  0  0  0  0  0  0  0
  -13.8422  -24.7235   26.2186 N   0  0  0  0  0  0  0  0  0  0  0  0
  -13.3888  -25.7116   25.4167 C   0  0  0  0  0  0  0  0  0  0  0  0
  -14.0749  -26.1546   24.3590 F   0  0  0  0  0  0  0  0  0  0  0  0
  -12.1750  -26.1689   25.8340 C   0  0  0  0  0  0  0  0  0  0  0  0
  -11.3165  -27.1200   25.3130 C   0  0  0  0  0  0  0  0  0  0  0  0
  -10.5180  -27.8701   24.9552 N   0  0  0  0  0  0  0  0  0  0  0  0
  -12.9146  -22.7479   30.8722 H   0  0  0  0  0  0  0  0  0  0  0  0
  -12.0020  -22.3118   29.8151 H   0  0  0  0  0  0  0  0  0  0  0  0
  -11.9629  -23.6128   31.8301 H   0  0  0  0  0  0  0  0  0  0  0  0
  -10.4064  -22.0299   32.0987 H   0  0  0  0  0  0  0  0  0  0  0  0
  -12.2061  -21.8177   32.3841 H   0  0  0  0  0  0  0  0  0  0  0  0
  -11.1282  -21.0054   30.8319 H   0  0  0  0  0  0  0  0  0  0  0  0
   -9.4357  -25.4509   28.3486 H   0  0  0  0  0  0  0  0  0  0  0  0
  -10.2961  -25.9115   29.7865 H   0  0  0  0  0  0  0  0  0  0  0  0
  -12.9593  -23.9548   27.9906 H   0  0  0  0  0  0  0  0  0  0  0  0
  1  2  1  0
  2  3  1  0
  2  4  1  0
  4  5  2  0
  4  6  1  0
  6  7  1  0
  7  8  1  0
  8  9  1  0
  9 10  2  0
 10 11  1  0
 11 12  1  0
 11 13  2  0
 13 14  1  0
 14 15  3  0
 13  8  1  0
  1 16  1  0
  1 17  1  0
  1 18  1  0
  3 19  1  0
  3 20  1  0
  3 21  1  0
  6 22  1  0
  6 23  1  0
  9 24  1  0
M  END
>  <Energy>  (413) 
804.13773010535567

>  <compound_id>  (413) 
691

>  <target_id>  (413) 
1

>  <reference_id>  (413) 
64

>  <inspiration_ids>  (413) 
[62, 64]

>  <energy_score>  (413) 
794.3848390083306

>  <distance_score>  (413) 
2.158799089136174

>  <path>  (413) 
/opt/xchem-fragalysis-2/maxwin/BulkDock/SCRATCH/505733/C691-P64/C691-P64.minimised.mol

>  <scratch_subdir>  (413) 
/opt/xchem-fragalysis-2/maxwin/BulkDock/SCRATCH/505733/C691-P64

>  <fragmenstein_runtime>  (413) 
4.563485860824585

>  <fragmenstein_outcome>  (413) 
too moved

>  <fragmenstein_mode>  (413) 
expansion

>  <fragmenstein_error>  (413) 


$$$$
C693-P62
     RDKit          3D

 33 34  0  0  0  0  0  0  0  0999 V2000
  -12.1759  -24.1956   33.7335 C   0  0  0  0  0  0  0  0  0  0  0  0
  -12.4665  -25.0813   32.6109 C   0  0  0  0  0  0  0  0  0  0  0  0
  -13.5241  -24.9420   32.0304 O   0  0  0  0  0  0  0  0  0  0  0  0
  -11.4826  -25.9455   32.2275 N   0  0  0  0  0  0  0  0  0  0  0  0
  -10.3668  -25.9037   31.3910 C   0  0  0  0  0  0  0  0  0  0  0  0
  -10.7775  -26.3548   29.9059 C   0  0  0  0  0  0  0  0  0  0  0  0
  -12.0524  -27.0558   29.6549 C   0  0  0  0  0  0  0  0  0  0  0  0
  -12.0844  -27.5485   28.3204 O   0  0  0  0  0  0  0  0  0  0  0  0
  -10.7954  -24.9343   29.5958 C   0  0  0  0  0  0  0  0  0  0  0  0
  -10.0321  -24.8910   28.2993 C   0  0  0  0  0  0  0  0  0  0  0  0
  -11.0338  -24.6910   27.2448 N   0  0  0  0  0  0  0  0  0  0  0  0
  -12.2904  -24.2438   27.8486 C   0  0  0  0  0  0  0  0  0  0  0  0
  -11.8107  -23.8568   29.2184 C   0  0  0  0  0  0  0  0  0  0  0  0
  -12.7017  -23.2098   30.1576 C   0  0  0  0  0  0  0  0  0  0  0  0
  -13.1522  -22.4501   30.9103 N   0  0  0  0  0  0  0  0  0  0  0  0
  -10.3359  -24.9977   31.0858 C   0  0  0  0  0  0  0  0  0  0  0  0
  -11.5662  -24.7467   34.4465 H   0  0  0  0  0  0  0  0  0  0  0  0
  -13.1219  -23.8904   34.1770 H   0  0  0  0  0  0  0  0  0  0  0  0
  -11.6980  -23.3008   33.3364 H   0  0  0  0  0  0  0  0  0  0  0  0
   -9.2901  -26.2027   31.8934 H   0  0  0  0  0  0  0  0  0  0  0  0
  -10.3328  -27.0480   31.5891 H   0  0  0  0  0  0  0  0  0  0  0  0
   -9.9424  -26.9489   29.5143 H   0  0  0  0  0  0  0  0  0  0  0  0
  -12.8474  -26.3317   29.7759 H   0  0  0  0  0  0  0  0  0  0  0  0
  -12.1652  -27.9063   30.3292 H   0  0  0  0  0  0  0  0  0  0  0  0
  -11.8694  -26.8206   27.7116 H   0  0  0  0  0  0  0  0  0  0  0  0
   -9.4735  -25.7997   28.0831 H   0  0  0  0  0  0  0  0  0  0  0  0
   -9.3760  -24.0241   28.2905 H   0  0  0  0  0  0  0  0  0  0  0  0
  -11.1314  -25.4059   26.5163 H   0  0  0  0  0  0  0  0  0  0  0  0
  -12.6890  -23.4075   27.2790 H   0  0  0  0  0  0  0  0  0  0  0  0
  -13.0469  -25.0324   27.8717 H   0  0  0  0  0  0  0  0  0  0  0  0
  -11.1871  -22.9628   29.0136 H   0  0  0  0  0  0  0  0  0  0  0  0
  -10.7571  -23.9687   31.4003 H   0  0  0  0  0  0  0  0  0  0  0  0
   -9.2785  -24.4946   31.4146 H   0  0  0  0  0  0  0  0  0  0  0  0
  1  2  1  0
  2  3  2  0
  2  4  1  0
  4  5  1  0
  5  6  1  0
  6  7  1  0
  7  8  1  0
  6  9  1  0
  9 10  1  0
 10 11  1  0
 11 12  1  0
 12 13  1  0
 13 14  1  0
 14 15  3  0
  9 16  1  0
 16  4  1  0
 13  9  1  0
  1 17  1  0
  1 18  1  0
  1 19  1  0
  5 20  1  0
  5 21  1  0
  6 22  1  0
  7 23  1  0
  7 24  1  0
  8 25  1  0
 10 26  1  0
 10 27  1  0
 11 28  1  0
 12 29  1  0
 12 30  1  0
 13 31  1  0
 16 32  1  0
 16 33  1  0
M  END
>  <Energy>  (414) 
610.59180042924834

>  <compound_id>  (414) 
693

>  <target_id>  (414) 
1

>  <reference_id>  (414) 
62

>  <inspiration_ids>  (414) 
[62, 82]

>  <energy_score>  (414) 
572.0011592402367

>  <distance_score>  (414) 
1.1114653715669949

>  <path>  (414) 
/opt/xchem-fragalysis-2/maxwin/BulkDock/SCRATCH/505733/C693-P62/C693-P62.minimised.mol

>  <scratch_subdir>  (414) 
/opt/xchem-fragalysis-2/maxwin/BulkDock/SCRATCH/505733/C693-P62

>  <fragmenstein_runtime>  (414) 
5.106579780578613

>  <fragmenstein_outcome>  (414) 
too moved

>  <fragmenstein_mode>  (414) 
expansion

>  <fragmenstein_error>  (414) 


$$$$
C693-P82
     RDKit          3D

 33 34  0  0  0  0  0  0  0  0999 V2000
   -9.2420  -24.9533   31.8642 C   0  0  0  0  0  0  0  0  0  0  0  0
  -10.3189  -25.9271   32.0047 C   0  0  0  0  0  0  0  0  0  0  0  0
  -10.8769  -26.0575   33.0864 O   0  0  0  0  0  0  0  0  0  0  0  0
  -10.5404  -26.7013   30.8691 N   0  0  0  0  0  0  0  0  0  0  0  0
  -11.6583  -26.6519   29.4226 C   0  0  0  0  0  0  0  0  0  0  0  0
  -12.5086  -25.6242   28.5265 C   0  0  0  0  0  0  0  0  0  0  0  0
  -12.7845  -26.1124   27.1117 C   0  0  0  0  0  0  0  0  0  0  0  0
  -14.0812  -26.7249   27.1010 O   0  0  0  0  0  0  0  0  0  0  0  0
  -11.3920  -24.8627   28.9888 C   0  0  0  0  0  0  0  0  0  0  0  0
  -10.3214  -24.8301   27.9473 C   0  0  0  0  0  0  0  0  0  0  0  0
  -10.7400  -23.6969   27.1352 N   0  0  0  0  0  0  0  0  0  0  0  0
  -11.7368  -22.8760   27.8590 C   0  0  0  0  0  0  0  0  0  0  0  0
  -11.6374  -23.3958   29.2640 C   0  0  0  0  0  0  0  0  0  0  0  0
  -12.5598  -22.8976   30.2760 C   0  0  0  0  0  0  0  0  0  0  0  0
  -13.1488  -22.3913   31.1389 N   0  0  0  0  0  0  0  0  0  0  0  0
  -11.5882  -26.0345   30.1003 C   0  0  0  0  0  0  0  0  0  0  0  0
   -8.3574  -25.3380   32.3722 H   0  0  0  0  0  0  0  0  0  0  0  0
   -9.5586  -24.0093   32.3106 H   0  0  0  0  0  0  0  0  0  0  0  0
   -9.0542  -24.8408   30.7996 H   0  0  0  0  0  0  0  0  0  0  0  0
  -10.8987  -27.1033   28.6658 H   0  0  0  0  0  0  0  0  0  0  0  0
  -12.1783  -27.6977   29.4462 H   0  0  0  0  0  0  0  0  0  0  0  0
  -13.4236  -25.2700   28.9753 H   0  0  0  0  0  0  0  0  0  0  0  0
  -12.0653  -26.8559   26.7577 H   0  0  0  0  0  0  0  0  0  0  0  0
  -12.8302  -25.2835   26.4023 H   0  0  0  0  0  0  0  0  0  0  0  0
  -14.2508  -26.9951   26.1774 H   0  0  0  0  0  0  0  0  0  0  0  0
  -10.2048  -25.7174   27.3231 H   0  0  0  0  0  0  0  0  0  0  0  0
   -9.3738  -24.6680   28.4495 H   0  0  0  0  0  0  0  0  0  0  0  0
  -11.0788  -23.9439   26.2070 H   0  0  0  0  0  0  0  0  0  0  0  0
  -11.4944  -21.8186   27.7858 H   0  0  0  0  0  0  0  0  0  0  0  0
  -12.7268  -23.0353   27.4259 H   0  0  0  0  0  0  0  0  0  0  0  0
  -10.7122  -23.0158   29.6476 H   0  0  0  0  0  0  0  0  0  0  0  0
  -11.5011  -25.0877   30.7479 H   0  0  0  0  0  0  0  0  0  0  0  0
  -12.5622  -25.9526   30.7923 H   0  0  0  0  0  0  0  0  0  0  0  0
  1  2  1  0
  2  3  2  0
  2  4  1  0
  4  5  1  0
  5  6  1  0
  6  7  1  0
  7  8  1  0
  6  9  1  0
  9 10  1  0
 10 11  1  0
 11 12  1  0
 12 13  1  0
 13 14  1  0
 14 15  3  0
  9 16  1  0
 16  4  1  0
 13  9  1  0
  1 17  1  0
  1 18  1  0
  1 19  1  0
  5 20  1  0
  5 21  1  0
  6 22  1  0
  7 23  1  0
  7 24  1  0
  8 25  1  0
 10 26  1  0
 10 27  1  0
 11 28  1  0
 12 29  1  0
 12 30  1  0
 13 31  1  0
 16 32  1  0
 16 33  1  0
M  END
>  <Energy>  (415) 
615.35653385814851

>  <compound_id>  (415) 
693

>  <target_id>  (415) 
1

>  <reference_id>  (415) 
82

>  <inspiration_ids>  (415) 
[62, 82]

>  <energy_score>  (415) 
576.7658926691322

>  <distance_score>  (415) 
1.9753098527586164

>  <path>  (415) 
/opt/xchem-fragalysis-2/maxwin/BulkDock/SCRATCH/505733/C693-P82/C693-P82.minimised.mol

>  <scratch_subdir>  (415) 
/opt/xchem-fragalysis-2/maxwin/BulkDock/SCRATCH/505733/C693-P82

>  <fragmenstein_runtime>  (415) 
5.512617349624634

>  <fragmenstein_outcome>  (415) 
too moved

>  <fragmenstein_mode>  (415) 
expansion

>  <fragmenstein_error>  (415) 


$$$$
C694-P62
     RDKit          3D

 14 15  0  0  0  0  0  0  0  0999 V2000
  -10.3188  -26.2818   31.3481 C   0  0  0  0  0  0  0  0  0  0  0  0
  -10.4502  -26.3526   30.0128 C   0  0  0  0  0  0  0  0  0  0  0  0
  -11.1341  -25.3219   29.3597 C   0  0  0  0  0  0  0  0  0  0  0  0
  -11.4620  -24.9696   28.0772 C   0  0  0  0  0  0  0  0  0  0  0  0
  -12.1745  -23.8039   28.0879 N   0  0  0  0  0  0  0  0  0  0  0  0
  -12.2662  -23.4555   29.3557 C   0  0  0  0  0  0  0  0  0  0  0  0
  -11.6599  -24.3532   30.1725 N   0  0  0  0  0  0  0  0  0  0  0  0
  -11.4974  -24.3381   31.5525 C   0  0  0  0  0  0  0  0  0  0  0  0
  -10.8049  -25.2671   32.1512 N   0  0  0  0  0  0  0  0  0  0  0  0
   -9.8049  -27.0862   31.8722 H   0  0  0  0  0  0  0  0  0  0  0  0
  -10.0449  -27.1800   29.4515 H   0  0  0  0  0  0  0  0  0  0  0  0
  -11.2263  -25.4813   27.1540 H   0  0  0  0  0  0  0  0  0  0  0  0
  -12.7401  -22.5658   29.7385 H   0  0  0  0  0  0  0  0  0  0  0  0
  -11.9449  -23.5120   32.1277 H   0  0  0  0  0  0  0  0  0  0  0  0
  1  2  2  0
  2  3  1  0
  3  4  2  0
  4  5  1  0
  5  6  2  0
  6  7  1  0
  7  8  1  0
  8  9  2  0
  9  1  1  0
  7  3  1  0
  1 10  1  0
  2 11  1  0
  4 12  1  0
  6 13  1  0
  8 14  1  0
M  END
>  <Energy>  (416) 
39.478378599549586

>  <compound_id>  (416) 
694

>  <target_id>  (416) 
1

>  <reference_id>  (416) 
62

>  <inspiration_ids>  (416) 
[62, 94]

>  <energy_score>  (416) 
-12.122184664390701

>  <distance_score>  (416) 
1.8995016437442735

>  <path>  (416) 
/opt/xchem-fragalysis-2/maxwin/BulkDock/SCRATCH/505733/C694-P62/C694-P62.minimised.mol

>  <scratch_subdir>  (416) 
/opt/xchem-fragalysis-2/maxwin/BulkDock/SCRATCH/505733/C694-P62

>  <fragmenstein_runtime>  (416) 
1.8688976764678955

>  <fragmenstein_outcome>  (416) 
too moved

>  <fragmenstein_mode>  (416) 
expansion

>  <fragmenstein_error>  (416) 


$$$$
C694-P94
     RDKit          3D

 14 15  0  0  0  0  0  0  0  0999 V2000
   -9.7350  -25.3630   30.5438 C   0  0  0  0  0  0  0  0  0  0  0  0
   -9.4450  -25.4181   29.2303 C   0  0  0  0  0  0  0  0  0  0  0  0
  -10.4127  -25.0311   28.3137 C   0  0  0  0  0  0  0  0  0  0  0  0
  -10.5934  -24.6837   27.0067 C   0  0  0  0  0  0  0  0  0  0  0  0
  -11.8664  -24.9460   26.6352 N   0  0  0  0  0  0  0  0  0  0  0  0
  -12.4545  -25.1808   27.7845 C   0  0  0  0  0  0  0  0  0  0  0  0
  -11.6465  -24.8641   28.8370 N   0  0  0  0  0  0  0  0  0  0  0  0
  -11.7996  -24.5239   30.1745 C   0  0  0  0  0  0  0  0  0  0  0  0
  -10.8671  -24.7699   31.0481 N   0  0  0  0  0  0  0  0  0  0  0  0
   -9.0388  -25.7247   31.2974 H   0  0  0  0  0  0  0  0  0  0  0  0
   -8.5521  -25.8461   28.8269 H   0  0  0  0  0  0  0  0  0  0  0  0
   -9.8825  -24.3555   26.2841 H   0  0  0  0  0  0  0  0  0  0  0  0
  -13.4511  -25.5765   27.8440 H   0  0  0  0  0  0  0  0  0  0  0  0
  -12.6874  -23.9946   30.4847 H   0  0  0  0  0  0  0  0  0  0  0  0
  1  2  2  0
  2  3  1  0
  3  4  2  0
  4  5  1  0
  5  6  2  0
  6  7  1  0
  7  8  1  0
  8  9  2  0
  9  1  1  0
  7  3  1  0
  1 10  1  0
  2 11  1  0
  4 12  1  0
  6 13  1  0
  8 14  1  0
M  END
>  <Energy>  (417) 
64.939225522070686

>  <compound_id>  (417) 
694

>  <target_id>  (417) 
1

>  <reference_id>  (417) 
94

>  <inspiration_ids>  (417) 
[62, 94]

>  <energy_score>  (417) 
13.338662258130938

>  <distance_score>  (417) 
1.9490195292915797

>  <path>  (417) 
/opt/xchem-fragalysis-2/maxwin/BulkDock/SCRATCH/505733/C694-P94/C694-P94.minimised.mol

>  <scratch_subdir>  (417) 
/opt/xchem-fragalysis-2/maxwin/BulkDock/SCRATCH/505733/C694-P94

>  <fragmenstein_runtime>  (417) 
1.8266997337341309

>  <fragmenstein_outcome>  (417) 
too moved

>  <fragmenstein_mode>  (417) 
expansion

>  <fragmenstein_error>  (417) 


$$$$
C696-P62
     RDKit          3D

 33 35  0  0  0  0  0  0  0  0999 V2000
  -14.7429  -24.2811   32.9457 N   0  0  0  0  0  0  0  0  0  0  0  0
  -13.6591  -24.5937   32.6742 C   0  0  0  0  0  0  0  0  0  0  0  0
  -12.2942  -24.9127   32.5505 C   0  0  0  0  0  0  0  0  0  0  0  0
  -11.5430  -25.5863   33.4881 C   0  0  0  0  0  0  0  0  0  0  0  0
  -10.2159  -25.3236   33.3335 N   0  0  0  0  0  0  0  0  0  0  0  0
  -10.1860  -24.5124   32.3027 C   0  0  0  0  0  0  0  0  0  0  0  0
  -11.4000  -24.4769   31.6102 N   0  0  0  0  0  0  0  0  0  0  0  0
  -11.3327  -24.8495   30.1664 C   0  0  0  0  0  0  0  0  0  0  0  0
  -12.1411  -24.2438   29.0179 C   0  0  0  0  0  0  0  0  0  0  0  0
  -13.2848  -24.9388   28.6467 C   0  0  0  0  0  0  0  0  0  0  0  0
  -13.8356  -25.0130   27.3666 C   0  0  0  0  0  0  0  0  0  0  0  0
  -13.2237  -24.3172   26.3672 C   0  0  0  0  0  0  0  0  0  0  0  0
  -12.0831  -23.5997   26.6884 C   0  0  0  0  0  0  0  0  0  0  0  0
  -11.5583  -23.5125   27.9920 C   0  0  0  0  0  0  0  0  0  0  0  0
  -11.4329  -26.3491   30.1257 N   0  0  0  0  0  0  0  0  0  0  0  0
  -11.2143  -26.8724   28.7176 C   0  0  0  0  0  0  0  0  0  0  0  0
   -9.7351  -26.6504   28.9520 C   0  0  0  0  0  0  0  0  0  0  0  0
   -9.2375  -25.3337   28.6740 O   0  0  0  0  0  0  0  0  0  0  0  0
  -10.1153  -26.9611   30.4289 C   0  0  0  0  0  0  0  0  0  0  0  0
  -11.9054  -26.1425   34.3390 H   0  0  0  0  0  0  0  0  0  0  0  0
   -9.2772  -24.1055   31.9030 H   0  0  0  0  0  0  0  0  0  0  0  0
  -10.3492  -24.4521   29.9841 H   0  0  0  0  0  0  0  0  0  0  0  0
  -13.6097  -25.6178   29.3964 H   0  0  0  0  0  0  0  0  0  0  0  0
  -14.7313  -25.5884   27.1776 H   0  0  0  0  0  0  0  0  0  0  0  0
  -13.6066  -24.3175   25.3536 H   0  0  0  0  0  0  0  0  0  0  0  0
  -11.6230  -23.0969   25.8634 H   0  0  0  0  0  0  0  0  0  0  0  0
  -10.6197  -22.9950   28.1429 H   0  0  0  0  0  0  0  0  0  0  0  0
  -11.5590  -26.3606   27.8231 H   0  0  0  0  0  0  0  0  0  0  0  0
  -11.5926  -27.8885   28.6110 H   0  0  0  0  0  0  0  0  0  0  0  0
   -9.0488  -27.3001   28.4604 H   0  0  0  0  0  0  0  0  0  0  0  0
   -8.4607  -25.2432   29.2356 H   0  0  0  0  0  0  0  0  0  0  0  0
  -10.1990  -28.0111   30.7181 H   0  0  0  0  0  0  0  0  0  0  0  0
   -9.4900  -26.5039   31.1910 H   0  0  0  0  0  0  0  0  0  0  0  0
  1  2  3  0
  2  3  1  0
  3  4  2  0
  4  5  1  0
  5  6  2  0
  6  7  1  0
  7  8  1  0
  8  9  1  0
  9 10  2  0
 10 11  1  0
 11 12  2  0
 12 13  1  0
 13 14  2  0
  8 15  1  0
 15 16  1  0
 16 17  1  0
 17 18  1  0
 17 19  1  0
  7  3  1  0
 14  9  1  0
 19 15  1  0
  4 20  1  0
  6 21  1  0
  8 22  1  0
 10 23  1  0
 11 24  1  0
 12 25  1  0
 13 26  1  0
 14 27  1  0
 16 28  1  0
 16 29  1  0
 17 30  1  0
 18 31  1  0
 19 32  1  0
 19 33  1  0
M  END
>  <Energy>  (418) 
150.67442767900144

>  <compound_id>  (418) 
696

>  <target_id>  (418) 
1

>  <reference_id>  (418) 
62

>  <inspiration_ids>  (418) 
[62, 104]

>  <energy_score>  (418) 
51.92150730506506

>  <distance_score>  (418) 
2.102910388744807

>  <path>  (418) 
/opt/xchem-fragalysis-2/maxwin/BulkDock/SCRATCH/505733/C696-P62/C696-P62.minimised.mol

>  <scratch_subdir>  (418) 
/opt/xchem-fragalysis-2/maxwin/BulkDock/SCRATCH/505733/C696-P62

>  <fragmenstein_runtime>  (418) 
6.9454734325408936

>  <fragmenstein_outcome>  (418) 
too moved

>  <fragmenstein_mode>  (418) 
expansion

>  <fragmenstein_error>  (418) 


$$$$
C696-P104
     RDKit          3D

 33 35  0  0  0  0  0  0  0  0999 V2000
  -11.6730  -22.1364   31.9007 N   0  0  0  0  0  0  0  0  0  0  0  0
  -11.1891  -23.1687   31.6850 C   0  0  0  0  0  0  0  0  0  0  0  0
  -10.4557  -24.3553   31.4256 C   0  0  0  0  0  0  0  0  0  0  0  0
   -9.5516  -24.9279   32.2639 C   0  0  0  0  0  0  0  0  0  0  0  0
   -8.8524  -25.8787   31.6053 N   0  0  0  0  0  0  0  0  0  0  0  0
   -9.5527  -26.1616   30.5430 C   0  0  0  0  0  0  0  0  0  0  0  0
  -10.4078  -25.1490   30.2720 N   0  0  0  0  0  0  0  0  0  0  0  0
  -10.8978  -24.7544   28.9470 C   0  0  0  0  0  0  0  0  0  0  0  0
  -11.5260  -25.5790   27.7841 C   0  0  0  0  0  0  0  0  0  0  0  0
  -11.2082  -26.9072   27.4475 C   0  0  0  0  0  0  0  0  0  0  0  0
  -11.8204  -27.5441   26.3577 C   0  0  0  0  0  0  0  0  0  0  0  0
  -12.7420  -26.8708   25.5627 C   0  0  0  0  0  0  0  0  0  0  0  0
  -13.0659  -25.5551   25.8498 C   0  0  0  0  0  0  0  0  0  0  0  0
  -12.4711  -24.9241   26.9431 C   0  0  0  0  0  0  0  0  0  0  0  0
   -9.7060  -24.1643   28.5679 N   0  0  0  0  0  0  0  0  0  0  0  0
   -9.9465  -23.0838   27.7028 C   0  0  0  0  0  0  0  0  0  0  0  0
   -8.8027  -23.6843   26.9192 C   0  0  0  0  0  0  0  0  0  0  0  0
   -7.5566  -22.9593   26.8301 O   0  0  0  0  0  0  0  0  0  0  0  0
   -8.8470  -24.9306   27.7497 C   0  0  0  0  0  0  0  0  0  0  0  0
   -9.3338  -24.6566   33.2793 H   0  0  0  0  0  0  0  0  0  0  0  0
   -9.4480  -27.0340   29.9212 H   0  0  0  0  0  0  0  0  0  0  0  0
  -11.5590  -23.8982   29.1169 H   0  0  0  0  0  0  0  0  0  0  0  0
  -10.4991  -27.4672   28.0482 H   0  0  0  0  0  0  0  0  0  0  0  0
  -11.5905  -28.5802   26.1211 H   0  0  0  0  0  0  0  0  0  0  0  0
  -13.2045  -27.3882   24.7273 H   0  0  0  0  0  0  0  0  0  0  0  0
  -13.7849  -25.0192   25.2355 H   0  0  0  0  0  0  0  0  0  0  0  0
  -12.7710  -23.8966   27.1456 H   0  0  0  0  0  0  0  0  0  0  0  0
   -9.8351  -22.0955   28.1406 H   0  0  0  0  0  0  0  0  0  0  0  0
  -10.8824  -23.0293   27.1415 H   0  0  0  0  0  0  0  0  0  0  0  0
   -9.2613  -23.9793   25.9636 H   0  0  0  0  0  0  0  0  0  0  0  0
   -7.5801  -22.2867   27.5299 H   0  0  0  0  0  0  0  0  0  0  0  0
   -9.1948  -25.7944   27.1908 H   0  0  0  0  0  0  0  0  0  0  0  0
   -7.9266  -25.2563   28.2035 H   0  0  0  0  0  0  0  0  0  0  0  0
  1  2  3  0
  2  3  1  0
  3  4  2  0
  4  5  1  0
  5  6  2  0
  6  7  1  0
  7  8  1  0
  8  9  1  0
  9 10  2  0
 10 11  1  0
 11 12  2  0
 12 13  1  0
 13 14  2  0
  8 15  1  0
 15 16  1  0
 16 17  1  0
 17 18  1  0
 17 19  1  0
  7  3  1  0
 14  9  1  0
 19 15  1  0
  4 20  1  0
  6 21  1  0
  8 22  1  0
 10 23  1  0
 11 24  1  0
 12 25  1  0
 13 26  1  0
 14 27  1  0
 16 28  1  0
 16 29  1  0
 17 30  1  0
 18 31  1  0
 19 32  1  0
 19 33  1  0
M  END
>  <Energy>  (419) 
134.40682450847297

>  <compound_id>  (419) 
696

>  <target_id>  (419) 
1

>  <reference_id>  (419) 
104

>  <inspiration_ids>  (419) 
[62, 104]

>  <energy_score>  (419) 
18.875431171857656

>  <distance_score>  (419) 
1.6570639552971935

>  <path>  (419) 
/opt/xchem-fragalysis-2/maxwin/BulkDock/SCRATCH/505733/C696-P104/C696-P104.minimised.mol

>  <scratch_subdir>  (419) 
/opt/xchem-fragalysis-2/maxwin/BulkDock/SCRATCH/505733/C696-P104

>  <fragmenstein_runtime>  (419) 
10.365354776382446

>  <fragmenstein_outcome>  (419) 
too moved

>  <fragmenstein_mode>  (419) 
expansion

>  <fragmenstein_error>  (419) 


$$$$
C698-P62
     RDKit          3D

 30 31  0  0  0  0  0  0  0  0999 V2000
  -10.9521  -24.5396   26.1260 C   0  0  0  0  0  0  0  0  0  0  0  0
  -12.2877  -23.8429   26.0731 C   0  0  0  0  0  0  0  0  0  0  0  0
  -13.5121  -24.5765   26.1946 N   0  0  0  0  0  0  0  0  0  0  0  0
  -14.6158  -24.3229   25.4233 C   0  0  0  0  0  0  0  0  0  0  0  0
  -15.6890  -24.8954   25.9078 N   0  0  0  0  0  0  0  0  0  0  0  0
  -15.2519  -25.5454   27.0326 C   0  0  0  0  0  0  0  0  0  0  0  0
  -13.8763  -25.4249   27.2067 C   0  0  0  0  0  0  0  0  0  0  0  0
  -12.9895  -26.0656   28.1435 C   0  0  0  0  0  0  0  0  0  0  0  0
  -12.2689  -26.4518   29.0375 C   0  0  0  0  0  0  0  0  0  0  0  0
  -11.3892  -26.3622   30.2499 N   0  0  0  0  0  0  0  0  0  0  0  0
  -11.2432  -24.9416   30.3557 C   0  0  0  0  0  0  0  0  0  0  0  0
  -10.6892  -24.2898   29.2601 C   0  0  0  0  0  0  0  0  0  0  0  0
  -11.1005  -22.9944   28.9507 C   0  0  0  0  0  0  0  0  0  0  0  0
  -11.9048  -22.2768   29.8126 C   0  0  0  0  0  0  0  0  0  0  0  0
  -12.3665  -22.8750   30.9668 C   0  0  0  0  0  0  0  0  0  0  0  0
  -12.0644  -24.2044   31.2053 C   0  0  0  0  0  0  0  0  0  0  0  0
  -12.6724  -24.7975   32.2606 O   0  0  0  0  0  0  0  0  0  0  0  0
  -10.5673  -24.6407   25.1110 H   0  0  0  0  0  0  0  0  0  0  0  0
  -10.2132  -23.9458   26.6419 H   0  0  0  0  0  0  0  0  0  0  0  0
  -10.9401  -25.4987   26.6424 H   0  0  0  0  0  0  0  0  0  0  0  0
  -12.3418  -23.2430   25.1579 H   0  0  0  0  0  0  0  0  0  0  0  0
  -12.3305  -23.1322   26.8876 H   0  0  0  0  0  0  0  0  0  0  0  0
  -14.5818  -23.6762   24.5564 H   0  0  0  0  0  0  0  0  0  0  0  0
  -15.9641  -26.1375   27.5909 H   0  0  0  0  0  0  0  0  0  0  0  0
  -10.4752  -26.7547   30.0203 H   0  0  0  0  0  0  0  0  0  0  0  0
  -10.0150  -24.8239   28.6032 H   0  0  0  0  0  0  0  0  0  0  0  0
  -10.6997  -22.4591   28.1042 H   0  0  0  0  0  0  0  0  0  0  0  0
  -12.1036  -21.2307   29.6088 H   0  0  0  0  0  0  0  0  0  0  0  0
  -13.0052  -22.3373   31.6602 H   0  0  0  0  0  0  0  0  0  0  0  0
  -12.8489  -25.7129   31.9641 H   0  0  0  0  0  0  0  0  0  0  0  0
  1  2  1  0
  2  3  1  0
  3  4  1  0
  4  5  2  0
  5  6  1  0
  6  7  2  0
  7  8  1  0
  8  9  3  0
  9 10  1  0
 10 11  1  0
 11 12  2  0
 12 13  1  0
 13 14  2  0
 14 15  1  0
 15 16  2  0
 16 17  1  0
  7  3  1  0
 16 11  1  0
  1 18  1  0
  1 19  1  0
  1 20  1  0
  2 21  1  0
  2 22  1  0
  4 23  1  0
  6 24  1  0
 10 25  1  0
 12 26  1  0
 13 27  1  0
 14 28  1  0
 15 29  1  0
 17 30  1  0
M  END
>  <Energy>  (420) 
63.233436197678877

>  <compound_id>  (420) 
698

>  <target_id>  (420) 
1

>  <reference_id>  (420) 
62

>  <inspiration_ids>  (420) 
[62, 110]

>  <energy_score>  (420) 
10.224203578123166

>  <distance_score>  (420) 
2.532074613419575

>  <path>  (420) 
/opt/xchem-fragalysis-2/maxwin/BulkDock/SCRATCH/505733/C698-P62/C698-P62.minimised.mol

>  <scratch_subdir>  (420) 
/opt/xchem-fragalysis-2/maxwin/BulkDock/SCRATCH/505733/C698-P62

>  <fragmenstein_runtime>  (420) 
3.7274646759033203

>  <fragmenstein_outcome>  (420) 
too moved

>  <fragmenstein_mode>  (420) 
expansion

>  <fragmenstein_error>  (420) 


$$$$
C698-P110
     RDKit          3D

 30 31  0  0  0  0  0  0  0  0999 V2000
  -11.7612  -26.3618   25.5087 C   0  0  0  0  0  0  0  0  0  0  0  0
  -12.9786  -25.8975   26.2712 C   0  0  0  0  0  0  0  0  0  0  0  0
  -13.7401  -26.9929   26.8164 N   0  0  0  0  0  0  0  0  0  0  0  0
  -15.0062  -27.3230   26.4217 C   0  0  0  0  0  0  0  0  0  0  0  0
  -15.4482  -28.3785   27.0690 N   0  0  0  0  0  0  0  0  0  0  0  0
  -14.4587  -28.6923   27.9674 C   0  0  0  0  0  0  0  0  0  0  0  0
  -13.3732  -27.8483   27.8302 C   0  0  0  0  0  0  0  0  0  0  0  0
  -12.2189  -27.7776   28.6788 C   0  0  0  0  0  0  0  0  0  0  0  0
  -11.4380  -27.4320   29.5351 C   0  0  0  0  0  0  0  0  0  0  0  0
  -10.6266  -26.5861   30.4474 N   0  0  0  0  0  0  0  0  0  0  0  0
  -10.5452  -25.3070   29.8326 C   0  0  0  0  0  0  0  0  0  0  0  0
  -10.1093  -25.2567   28.5043 C   0  0  0  0  0  0  0  0  0  0  0  0
  -10.4560  -24.1842   27.7044 C   0  0  0  0  0  0  0  0  0  0  0  0
  -11.1938  -23.1281   28.2238 C   0  0  0  0  0  0  0  0  0  0  0  0
  -11.5026  -23.0973   29.5734 C   0  0  0  0  0  0  0  0  0  0  0  0
  -11.1287  -24.1653   30.3824 C   0  0  0  0  0  0  0  0  0  0  0  0
  -11.3131  -24.0076   31.7215 O   0  0  0  0  0  0  0  0  0  0  0  0
  -12.0646  -26.9859   24.6662 H   0  0  0  0  0  0  0  0  0  0  0  0
  -11.2153  -25.5010   25.1188 H   0  0  0  0  0  0  0  0  0  0  0  0
  -11.0761  -26.9495   26.1253 H   0  0  0  0  0  0  0  0  0  0  0  0
  -12.7348  -25.2448   27.1073 H   0  0  0  0  0  0  0  0  0  0  0  0
  -13.6325  -25.3240   25.6040 H   0  0  0  0  0  0  0  0  0  0  0  0
  -15.5494  -26.7806   25.6581 H   0  0  0  0  0  0  0  0  0  0  0  0
  -14.5877  -29.5002   28.6763 H   0  0  0  0  0  0  0  0  0  0  0  0
  -11.0076  -26.5175   31.3878 H   0  0  0  0  0  0  0  0  0  0  0  0
   -9.5915  -26.1069   28.0667 H   0  0  0  0  0  0  0  0  0  0  0  0
  -10.1828  -24.1821   26.6591 H   0  0  0  0  0  0  0  0  0  0  0  0
  -11.4562  -22.2839   27.5961 H   0  0  0  0  0  0  0  0  0  0  0  0
  -11.9744  -22.2234   30.0138 H   0  0  0  0  0  0  0  0  0  0  0  0
  -10.7739  -24.6691   32.1814 H   0  0  0  0  0  0  0  0  0  0  0  0
  1  2  1  0
  2  3  1  0
  3  4  1  0
  4  5  2  0
  5  6  1  0
  6  7  2  0
  7  8  1  0
  8  9  3  0
  9 10  1  0
 10 11  1  0
 11 12  2  0
 12 13  1  0
 13 14  2  0
 14 15  1  0
 15 16  2  0
 16 17  1  0
  7  3  1  0
 16 11  1  0
  1 18  1  0
  1 19  1  0
  1 20  1  0
  2 21  1  0
  2 22  1  0
  4 23  1  0
  6 24  1  0
 10 25  1  0
 12 26  1  0
 13 27  1  0
 14 28  1  0
 15 29  1  0
 17 30  1  0
M  END
>  <Energy>  (421) 
41.101521189320515

>  <compound_id>  (421) 
698

>  <target_id>  (421) 
1

>  <reference_id>  (421) 
110

>  <inspiration_ids>  (421) 
[62, 110]

>  <energy_score>  (421) 
-11.907711430235395

>  <distance_score>  (421) 
1.9358851282932905

>  <path>  (421) 
/opt/xchem-fragalysis-2/maxwin/BulkDock/SCRATCH/505733/C698-P110/C698-P110.minimised.mol

>  <scratch_subdir>  (421) 
/opt/xchem-fragalysis-2/maxwin/BulkDock/SCRATCH/505733/C698-P110

>  <fragmenstein_runtime>  (421) 
3.450134754180908

>  <fragmenstein_outcome>  (421) 
too moved

>  <fragmenstein_mode>  (421) 
expansion

>  <fragmenstein_error>  (421) 


$$$$
C699-P62
     RDKit          3D

 36 37  0  0  0  0  0  0  0  0999 V2000
  -11.5049  -21.5833   30.2017 C   0  0  0  0  0  0  0  0  0  0  0  0
  -11.4413  -21.6343   31.7051 C   0  0  0  0  0  0  0  0  0  0  0  0
  -11.4845  -20.6288   32.3834 O   0  0  0  0  0  0  0  0  0  0  0  0
  -11.3424  -22.8845   32.2148 N   0  0  0  0  0  0  0  0  0  0  0  0
  -12.3010  -23.9794   32.6717 C   0  0  0  0  0  0  0  0  0  0  0  0
  -12.3623  -25.3588   31.5271 C   0  0  0  0  0  0  0  0  0  0  0  0
  -12.7500  -24.6495   30.2999 N   0  0  0  0  0  0  0  0  0  0  0  0
  -13.0378  -25.2989   29.1211 C   0  0  0  0  0  0  0  0  0  0  0  0
  -13.1400  -24.9656   27.8237 C   0  0  0  0  0  0  0  0  0  0  0  0
  -12.0400  -24.1825   27.1507 C   0  0  0  0  0  0  0  0  0  0  0  0
  -10.7711  -24.8808   27.5473 C   0  0  0  0  0  0  0  0  0  0  0  0
  -10.5555  -26.1866   27.5488 N   0  0  0  0  0  0  0  0  0  0  0  0
  -10.0442  -26.4257   28.7900 C   0  0  0  0  0  0  0  0  0  0  0  0
   -9.7588  -25.2664   29.4534 C   0  0  0  0  0  0  0  0  0  0  0  0
   -9.3828  -25.1503   30.8178 C   0  0  0  0  0  0  0  0  0  0  0  0
   -9.0642  -25.1305   31.9343 N   0  0  0  0  0  0  0  0  0  0  0  0
  -10.0180  -24.2986   28.5235 N   0  0  0  0  0  0  0  0  0  0  0  0
  -13.6687  -23.6767   30.8857 C   0  0  0  0  0  0  0  0  0  0  0  0
  -12.9989  -23.4757   32.4348 C   0  0  0  0  0  0  0  0  0  0  0  0
  -10.6663  -21.0362   29.8022 H   0  0  0  0  0  0  0  0  0  0  0  0
  -11.5089  -22.5705   29.7638 H   0  0  0  0  0  0  0  0  0  0  0  0
  -12.3965  -21.0874   29.8537 H   0  0  0  0  0  0  0  0  0  0  0  0
  -12.3393  -24.2873   33.8732 H   0  0  0  0  0  0  0  0  0  0  0  0
  -11.3139  -24.5140   32.9698 H   0  0  0  0  0  0  0  0  0  0  0  0
  -13.1225  -25.9965   31.9463 H   0  0  0  0  0  0  0  0  0  0  0  0
  -11.4470  -25.9321   31.4741 H   0  0  0  0  0  0  0  0  0  0  0  0
  -12.9446  -26.3650   29.2809 H   0  0  0  0  0  0  0  0  0  0  0  0
  -13.4496  -25.7642   27.1551 H   0  0  0  0  0  0  0  0  0  0  0  0
  -12.1593  -24.1889   26.0645 H   0  0  0  0  0  0  0  0  0  0  0  0
  -12.0552  -23.1398   27.4784 H   0  0  0  0  0  0  0  0  0  0  0  0
   -9.9723  -27.4061   29.2162 H   0  0  0  0  0  0  0  0  0  0  0  0
  -10.0522  -23.3076   28.6522 H   0  0  0  0  0  0  0  0  0  0  0  0
  -13.6932  -22.7509   30.3305 H   0  0  0  0  0  0  0  0  0  0  0  0
  -14.6653  -24.0112   31.1192 H   0  0  0  0  0  0  0  0  0  0  0  0
  -13.8182  -23.3596   33.3610 H   0  0  0  0  0  0  0  0  0  0  0  0
  -13.4030  -22.3701   32.3823 H   0  0  0  0  0  0  0  0  0  0  0  0
  1  2  1  0
  2  3  2  0
  2  4  1  0
  4  5  1  0
  5  6  1  0
  6  7  1  0
  7  8  1  0
  8  9  2  3
  9 10  1  0
 10 11  1  0
 11 12  2  0
 12 13  1  0
 13 14  2  0
 14 15  1  0
 15 16  3  0
 14 17  1  0
  7 18  1  0
 18 19  1  0
 19  4  1  0
 17 11  1  0
  1 20  1  0
  1 21  1  0
  1 22  1  0
  5 23  1  0
  5 24  1  0
  6 25  1  0
  6 26  1  0
  8 27  1  0
  9 28  1  0
 10 29  1  0
 10 30  1  0
 13 31  1  0
 17 32  1  0
 18 33  1  0
 18 34  1  0
 19 35  1  0
 19 36  1  0
M  END
>  <Energy>  (422) 
684.15963943852239

>  <compound_id>  (422) 
699

>  <target_id>  (422) 
1

>  <reference_id>  (422) 
62

>  <inspiration_ids>  (422) 
[62, 119]

>  <energy_score>  (422) 
588.1082651896132

>  <distance_score>  (422) 
2.3342850019481545

>  <path>  (422) 
/opt/xchem-fragalysis-2/maxwin/BulkDock/SCRATCH/505733/C699-P62/C699-P62.minimised.mol

>  <scratch_subdir>  (422) 
/opt/xchem-fragalysis-2/maxwin/BulkDock/SCRATCH/505733/C699-P62

>  <fragmenstein_runtime>  (422) 
47.471009254455566

>  <fragmenstein_outcome>  (422) 
too moved

>  <fragmenstein_mode>  (422) 
expansion

>  <fragmenstein_error>  (422) 


$$$$
C699-P119
     RDKit          3D

 36 37  0  0  0  0  0  0  0  0999 V2000
  -11.4763  -21.0960   28.5363 C   0  0  0  0  0  0  0  0  0  0  0  0
  -12.2888  -22.0824   29.3275 C   0  0  0  0  0  0  0  0  0  0  0  0
  -13.0258  -21.6176   30.1837 O   0  0  0  0  0  0  0  0  0  0  0  0
  -12.0640  -23.4250   29.0929 N   0  0  0  0  0  0  0  0  0  0  0  0
  -12.6220  -24.3864   28.3240 C   0  0  0  0  0  0  0  0  0  0  0  0
  -12.2014  -26.0968   28.0488 C   0  0  0  0  0  0  0  0  0  0  0  0
  -12.2448  -26.0351   26.6205 N   0  0  0  0  0  0  0  0  0  0  0  0
  -11.1543  -25.5295   25.9635 C   0  0  0  0  0  0  0  0  0  0  0  0
  -10.3542  -24.4753   26.1237 C   0  0  0  0  0  0  0  0  0  0  0  0
   -9.8684  -23.5934   27.2539 C   0  0  0  0  0  0  0  0  0  0  0  0
   -9.4695  -24.1045   28.6337 C   0  0  0  0  0  0  0  0  0  0  0  0
   -9.7185  -25.2467   29.2304 N   0  0  0  0  0  0  0  0  0  0  0  0
   -9.6826  -24.9892   30.5850 C   0  0  0  0  0  0  0  0  0  0  0  0
   -9.2380  -23.7236   30.8267 C   0  0  0  0  0  0  0  0  0  0  0  0
   -9.0925  -23.0597   32.0702 C   0  0  0  0  0  0  0  0  0  0  0  0
   -8.9550  -22.4894   33.0719 N   0  0  0  0  0  0  0  0  0  0  0  0
   -8.9908  -23.2346   29.5766 N   0  0  0  0  0  0  0  0  0  0  0  0
  -13.4356  -25.2001   26.4568 C   0  0  0  0  0  0  0  0  0  0  0  0
  -13.3526  -24.0068   27.7795 C   0  0  0  0  0  0  0  0  0  0  0  0
  -10.4171  -21.2029   28.7500 H   0  0  0  0  0  0  0  0  0  0  0  0
  -11.6557  -21.1854   27.4704 H   0  0  0  0  0  0  0  0  0  0  0  0
  -11.7348  -20.0859   28.8617 H   0  0  0  0  0  0  0  0  0  0  0  0
  -11.6076  -24.3315   27.8983 H   0  0  0  0  0  0  0  0  0  0  0  0
  -12.5675  -24.8340   29.3273 H   0  0  0  0  0  0  0  0  0  0  0  0
  -12.9938  -26.7852   28.3589 H   0  0  0  0  0  0  0  0  0  0  0  0
  -11.2618  -26.4579   28.4513 H   0  0  0  0  0  0  0  0  0  0  0  0
  -11.2111  -26.0101   25.0135 H   0  0  0  0  0  0  0  0  0  0  0  0
   -9.9573  -24.0948   25.1829 H   0  0  0  0  0  0  0  0  0  0  0  0
   -9.0445  -22.9996   26.9004 H   0  0  0  0  0  0  0  0  0  0  0  0
  -10.5968  -22.8038   27.2963 H   0  0  0  0  0  0  0  0  0  0  0  0
   -9.9938  -25.7183   31.3156 H   0  0  0  0  0  0  0  0  0  0  0  0
   -8.7028  -22.3135   29.3256 H   0  0  0  0  0  0  0  0  0  0  0  0
  -14.3564  -25.7804   26.6035 H   0  0  0  0  0  0  0  0  0  0  0  0
  -13.5078  -24.6638   25.5041 H   0  0  0  0  0  0  0  0  0  0  0  0
  -14.4427  -23.9403   28.1645 H   0  0  0  0  0  0  0  0  0  0  0  0
  -13.2867  -23.1017   27.0543 H   0  0  0  0  0  0  0  0  0  0  0  0
  1  2  1  0
  2  3  2  0
  2  4  1  0
  4  5  1  0
  5  6  1  0
  6  7  1  0
  7  8  1  0
  8  9  2  3
  9 10  1  0
 10 11  1  0
 11 12  2  0
 12 13  1  0
 13 14  2  0
 14 15  1  0
 15 16  3  0
 14 17  1  0
  7 18  1  0
 18 19  1  0
 19  4  1  0
 17 11  1  0
  1 20  1  0
  1 21  1  0
  1 22  1  0
  5 23  1  0
  5 24  1  0
  6 25  1  0
  6 26  1  0
  8 27  1  0
  9 28  1  0
 10 29  1  0
 10 30  1  0
 13 31  1  0
 17 32  1  0
 18 33  1  0
 18 34  1  0
 19 35  1  0
 19 36  1  0
M  END
>  <Energy>  (423) 
755.92758425946499

>  <compound_id>  (423) 
699

>  <target_id>  (423) 
1

>  <reference_id>  (423) 
119

>  <inspiration_ids>  (423) 
[62, 119]

>  <energy_score>  (423) 
659.8762100105513

>  <distance_score>  (423) 
2.273619287114139

>  <path>  (423) 
/opt/xchem-fragalysis-2/maxwin/BulkDock/SCRATCH/505733/C699-P119/C699-P119.minimised.mol

>  <scratch_subdir>  (423) 
/opt/xchem-fragalysis-2/maxwin/BulkDock/SCRATCH/505733/C699-P119

>  <fragmenstein_runtime>  (423) 
46.21558618545532

>  <fragmenstein_outcome>  (423) 
too moved

>  <fragmenstein_mode>  (423) 
expansion

>  <fragmenstein_error>  (423) 


$$$$
C705-P63
     RDKit          3D

 16 16  0  0  0  0  0  0  0  0999 V2000
   13.2466   -0.3684   16.0850 C   0  0  0  0  0  0  0  0  0  0  0  0
   13.3042    1.0988   16.2410 C   0  0  0  0  0  0  0  0  0  0  0  0
   12.2527    1.8900   16.1309 N   0  0  0  0  0  0  0  0  0  0  0  0
   12.7176    3.1509   16.3544 C   0  0  0  0  0  0  0  0  0  0  0  0
   14.0700    3.1346   16.5879 C   0  0  0  0  0  0  0  0  0  0  0  0
   14.9019    4.2509   16.8463 C   0  0  0  0  0  0  0  0  0  0  0  0
   15.5445    5.1957   17.0449 N   0  0  0  0  0  0  0  0  0  0  0  0
   14.4669    1.8119   16.5263 N   0  0  0  0  0  0  0  0  0  0  0  0
   15.7760    1.3435   16.7186 C   0  0  0  0  0  0  0  0  0  0  0  0
   16.7184    2.0783   16.9514 O   0  0  0  0  0  0  0  0  0  0  0  0
   15.8876    0.0079   16.6221 O   0  0  0  0  0  0  0  0  0  0  0  0
   12.2205   -0.6837   15.8649 H   0  0  0  0  0  0  0  0  0  0  0  0
   13.8714   -0.7065   15.2529 H   0  0  0  0  0  0  0  0  0  0  0  0
   13.5467   -0.8793   17.0047 H   0  0  0  0  0  0  0  0  0  0  0  0
   12.0544    4.0075   16.3368 H   0  0  0  0  0  0  0  0  0  0  0  0
   16.8389   -0.1777   16.7793 H   0  0  0  0  0  0  0  0  0  0  0  0
  1  2  1  0
  2  3  2  0
  3  4  1  0
  4  5  2  0
  5  6  1  0
  6  7  3  0
  5  8  1  0
  8  9  1  0
  9 10  2  0
  9 11  1  0
  8  2  1  0
  1 12  1  0
  1 13  1  0
  1 14  1  0
  4 15  1  0
 11 16  1  0
M  END
>  <Energy>  (424) 
-8.8874005201327222

>  <compound_id>  (424) 
705

>  <target_id>  (424) 
1

>  <reference_id>  (424) 
63

>  <inspiration_ids>  (424) 
[63, 5]

>  <energy_score>  (424) 
-25.655218146073636

>  <distance_score>  (424) 
3.4158423054052203

>  <path>  (424) 
/opt/xchem-fragalysis-2/maxwin/BulkDock/SCRATCH/505733/C705-P63/C705-P63.minimised.mol

>  <scratch_subdir>  (424) 
/opt/xchem-fragalysis-2/maxwin/BulkDock/SCRATCH/505733/C705-P63

>  <fragmenstein_runtime>  (424) 
0.66683030128479

>  <fragmenstein_outcome>  (424) 
too moved

>  <fragmenstein_mode>  (424) 
expansion

>  <fragmenstein_error>  (424) 


$$$$
C705-P5
     RDKit          3D

 16 16  0  0  0  0  0  0  0  0999 V2000
   13.2992   -0.3763   16.0774 C   0  0  0  0  0  0  0  0  0  0  0  0
   13.3275    1.0918   16.2318 C   0  0  0  0  0  0  0  0  0  0  0  0
   12.2641    1.8634   16.1009 N   0  0  0  0  0  0  0  0  0  0  0  0
   12.7024    3.1331   16.3311 C   0  0  0  0  0  0  0  0  0  0  0  0
   14.0507    3.1416   16.5877 C   0  0  0  0  0  0  0  0  0  0  0  0
   14.8590    4.2725   16.8564 C   0  0  0  0  0  0  0  0  0  0  0  0
   15.4842    5.2277   17.0609 N   0  0  0  0  0  0  0  0  0  0  0  0
   14.4716    1.8261   16.5375 N   0  0  0  0  0  0  0  0  0  0  0  0
   15.7849    1.3815   16.7556 C   0  0  0  0  0  0  0  0  0  0  0  0
   16.7104    2.1329   17.0027 O   0  0  0  0  0  0  0  0  0  0  0  0
   15.9227    0.0475   16.6663 O   0  0  0  0  0  0  0  0  0  0  0  0
   12.2836   -0.7102   15.8370 H   0  0  0  0  0  0  0  0  0  0  0  0
   13.9468   -0.7045   15.2589 H   0  0  0  0  0  0  0  0  0  0  0  0
   13.5896   -0.8803   17.0040 H   0  0  0  0  0  0  0  0  0  0  0  0
   12.0243    3.9776   16.3011 H   0  0  0  0  0  0  0  0  0  0  0  0
   16.8750   -0.1160   16.8416 H   0  0  0  0  0  0  0  0  0  0  0  0
  1  2  1  0
  2  3  2  0
  3  4  1  0
  4  5  2  0
  5  6  1  0
  6  7  3  0
  5  8  1  0
  8  9  1  0
  9 10  2  0
  9 11  1  0
  8  2  1  0
  1 12  1  0
  1 13  1  0
  1 14  1  0
  4 15  1  0
 11 16  1  0
M  END
>  <Energy>  (425) 
-8.878556326918174

>  <compound_id>  (425) 
705

>  <target_id>  (425) 
1

>  <reference_id>  (425) 
5

>  <inspiration_ids>  (425) 
[63, 5]

>  <energy_score>  (425) 
-25.64637395285895

>  <distance_score>  (425) 
3.443283068574883

>  <path>  (425) 
/opt/xchem-fragalysis-2/maxwin/BulkDock/SCRATCH/505733/C705-P5/C705-P5.minimised.mol

>  <scratch_subdir>  (425) 
/opt/xchem-fragalysis-2/maxwin/BulkDock/SCRATCH/505733/C705-P5

>  <fragmenstein_runtime>  (425) 
0.7727253437042236

>  <fragmenstein_outcome>  (425) 
too moved

>  <fragmenstein_mode>  (425) 
expansion

>  <fragmenstein_error>  (425) 


$$$$
C706-P63
     RDKit          3D

 28 29  0  0  0  0  0  0  0  0999 V2000
   14.3893   -3.9999   17.2279 N   0  0  0  0  0  0  0  0  0  0  0  0
   13.6865   -3.2634   16.6720 C   0  0  0  0  0  0  0  0  0  0  0  0
   12.6925   -2.4920   16.0245 C   0  0  0  0  0  0  0  0  0  0  0  0
   11.4600   -2.9789   15.6721 C   0  0  0  0  0  0  0  0  0  0  0  0
   10.6428   -1.9818   15.2527 N   0  0  0  0  0  0  0  0  0  0  0  0
   11.4177   -0.9321   15.1656 C   0  0  0  0  0  0  0  0  0  0  0  0
   12.6780   -1.1506   15.6839 N   0  0  0  0  0  0  0  0  0  0  0  0
   13.7243   -0.2126   15.7583 C   0  0  0  0  0  0  0  0  0  0  0  0
   14.8276   -0.5854   15.7831 O   0  0  0  0  0  0  0  0  0  0  0  0
   13.1520    1.2236   15.7346 N   0  0  0  0  0  0  0  0  0  0  0  0
   13.8275    2.5079   15.6400 C   0  0  0  0  0  0  0  0  0  0  0  0
   15.2653    2.5092   16.1316 C   0  0  0  0  0  0  0  0  0  0  0  0
   15.3638    2.2473   17.6290 C   0  0  0  0  0  0  0  0  0  0  0  0
   14.2871    2.8796   18.4895 C   0  0  0  0  0  0  0  0  0  0  0  0
   14.3983    2.9654   19.7092 O   0  0  0  0  0  0  0  0  0  0  0  0
   13.1309    3.2668   17.8722 N   0  0  0  0  0  0  0  0  0  0  0  0
   13.0587    3.5566   16.4584 C   0  0  0  0  0  0  0  0  0  0  0  0
   11.1088   -3.9968   15.7678 H   0  0  0  0  0  0  0  0  0  0  0  0
   11.1060   -0.0115   14.6909 H   0  0  0  0  0  0  0  0  0  0  0  0
   12.1456    1.1868   15.7986 H   0  0  0  0  0  0  0  0  0  0  0  0
   13.8002    2.7844   14.5803 H   0  0  0  0  0  0  0  0  0  0  0  0
   15.8766    1.7835   15.5844 H   0  0  0  0  0  0  0  0  0  0  0  0
   15.7056    3.4935   15.9226 H   0  0  0  0  0  0  0  0  0  0  0  0
   16.3369    2.6002   17.9894 H   0  0  0  0  0  0  0  0  0  0  0  0
   15.3195    1.1691   17.8204 H   0  0  0  0  0  0  0  0  0  0  0  0
   12.4325    3.6487   18.5131 H   0  0  0  0  0  0  0  0  0  0  0  0
   13.4780    4.5570   16.3032 H   0  0  0  0  0  0  0  0  0  0  0  0
   11.9993    3.5804   16.1819 H   0  0  0  0  0  0  0  0  0  0  0  0
  1  2  3  0
  2  3  1  0
  3  4  2  0
  4  5  1  0
  5  6  2  0
  6  7  1  0
  7  8  1  0
  8  9  2  0
  8 10  1  0
 10 11  1  0
 11 12  1  0
 12 13  1  0
 13 14  1  0
 14 15  2  0
 14 16  1  0
 16 17  1  0
  7  3  1  0
 17 11  1  0
  4 18  1  0
  6 19  1  0
 10 20  1  0
 11 21  1  0
 12 22  1  0
 12 23  1  0
 13 24  1  0
 13 25  1  0
 16 26  1  0
 17 27  1  0
 17 28  1  0
M  END
>  <Energy>  (426) 
12.592970648940085

>  <compound_id>  (426) 
706

>  <target_id>  (426) 
1

>  <reference_id>  (426) 
63

>  <inspiration_ids>  (426) 
[63, 6]

>  <energy_score>  (426) 
-2.702312893124269

>  <distance_score>  (426) 
1.4218940900645698

>  <path>  (426) 
/opt/xchem-fragalysis-2/maxwin/BulkDock/SCRATCH/505733/C706-P63/C706-P63.minimised.mol

>  <scratch_subdir>  (426) 
/opt/xchem-fragalysis-2/maxwin/BulkDock/SCRATCH/505733/C706-P63

>  <fragmenstein_runtime>  (426) 
0.9715695381164551

>  <fragmenstein_outcome>  (426) 
too moved

>  <fragmenstein_mode>  (426) 
expansion

>  <fragmenstein_error>  (426) 


$$$$
C706-P6
     RDKit          3D

 28 29  0  0  0  0  0  0  0  0999 V2000
   14.2993   -3.8437   17.3491 N   0  0  0  0  0  0  0  0  0  0  0  0
   13.5515   -3.1732   16.7733 C   0  0  0  0  0  0  0  0  0  0  0  0
   12.6169   -2.3408   16.1186 C   0  0  0  0  0  0  0  0  0  0  0  0
   11.4415   -2.7294   15.5290 C   0  0  0  0  0  0  0  0  0  0  0  0
   10.7210   -1.6394   15.1480 N   0  0  0  0  0  0  0  0  0  0  0  0
   11.5087   -0.6139   15.3561 C   0  0  0  0  0  0  0  0  0  0  0  0
   12.6612   -0.9607   16.0248 N   0  0  0  0  0  0  0  0  0  0  0  0
   13.6878   -0.1129   16.4878 C   0  0  0  0  0  0  0  0  0  0  0  0
   14.7367   -0.5672   16.6985 O   0  0  0  0  0  0  0  0  0  0  0  0
   13.1812    1.3335   16.6257 N   0  0  0  0  0  0  0  0  0  0  0  0
   13.8871    2.5449   16.9624 C   0  0  0  0  0  0  0  0  0  0  0  0
   14.7986    2.9513   15.8101 C   0  0  0  0  0  0  0  0  0  0  0  0
   15.4613    4.2810   16.1253 C   0  0  0  0  0  0  0  0  0  0  0  0
   16.1007    4.3453   17.4978 C   0  0  0  0  0  0  0  0  0  0  0  0
   17.0325    5.1031   17.7509 O   0  0  0  0  0  0  0  0  0  0  0  0
   15.5178    3.6077   18.4917 N   0  0  0  0  0  0  0  0  0  0  0  0
   14.7319    2.4197   18.2353 C   0  0  0  0  0  0  0  0  0  0  0  0
   11.0523   -3.7336   15.4081 H   0  0  0  0  0  0  0  0  0  0  0  0
   11.2819    0.3866   15.0140 H   0  0  0  0  0  0  0  0  0  0  0  0
   12.1908    1.3631   16.4369 H   0  0  0  0  0  0  0  0  0  0  0  0
   13.1215    3.3170   17.1093 H   0  0  0  0  0  0  0  0  0  0  0  0
   15.5667    2.1844   15.6449 H   0  0  0  0  0  0  0  0  0  0  0  0
   14.2302    3.0336   14.8759 H   0  0  0  0  0  0  0  0  0  0  0  0
   14.7240    5.0908   16.0722 H   0  0  0  0  0  0  0  0  0  0  0  0
   16.2351    4.4836   15.3764 H   0  0  0  0  0  0  0  0  0  0  0  0
   16.0185    3.6659   19.3720 H   0  0  0  0  0  0  0  0  0  0  0  0
   14.0970    2.2419   19.1096 H   0  0  0  0  0  0  0  0  0  0  0  0
   15.4366    1.5838   18.1632 H   0  0  0  0  0  0  0  0  0  0  0  0
  1  2  3  0
  2  3  1  0
  3  4  2  0
  4  5  1  0
  5  6  2  0
  6  7  1  0
  7  8  1  0
  8  9  2  0
  8 10  1  0
 10 11  1  0
 11 12  1  0
 12 13  1  0
 13 14  1  0
 14 15  2  0
 14 16  1  0
 16 17  1  0
  7  3  1  0
 17 11  1  0
  4 18  1  0
  6 19  1  0
 10 20  1  0
 11 21  1  0
 12 22  1  0
 12 23  1  0
 13 24  1  0
 13 25  1  0
 16 26  1  0
 17 27  1  0
 17 28  1  0
M  END
>  <Energy>  (427) 
8.1002154686088463

>  <compound_id>  (427) 
706

>  <target_id>  (427) 
1

>  <reference_id>  (427) 
6

>  <inspiration_ids>  (427) 
[63, 6]

>  <energy_score>  (427) 
-7.195068073455097

>  <distance_score>  (427) 
1.4213424660283247

>  <path>  (427) 
/opt/xchem-fragalysis-2/maxwin/BulkDock/SCRATCH/505733/C706-P6/C706-P6.minimised.mol

>  <scratch_subdir>  (427) 
/opt/xchem-fragalysis-2/maxwin/BulkDock/SCRATCH/505733/C706-P6

>  <fragmenstein_runtime>  (427) 
1.3241264820098877

>  <fragmenstein_outcome>  (427) 
too moved

>  <fragmenstein_mode>  (427) 
expansion

>  <fragmenstein_error>  (427) 


$$$$
C707-P63
     RDKit          3D

 32 32  0  0  0  0  0  0  0  0999 V2000
   16.6327   -1.0523   17.7326 C   0  0  0  0  0  0  0  0  0  0  0  0
   15.5290   -1.4664   16.9017 N   0  0  0  0  0  0  0  0  0  0  0  0
   14.5277   -2.3145   17.2807 C   0  0  0  0  0  0  0  0  0  0  0  0
   13.6525   -2.4226   16.2252 C   0  0  0  0  0  0  0  0  0  0  0  0
   12.4235   -3.1307   16.1839 C   0  0  0  0  0  0  0  0  0  0  0  0
   11.3841   -3.6213   16.0670 N   0  0  0  0  0  0  0  0  0  0  0  0
   14.1115   -1.5678   15.1862 C   0  0  0  0  0  0  0  0  0  0  0  0
   13.3704   -1.2327   13.9234 C   0  0  0  0  0  0  0  0  0  0  0  0
   11.9731   -0.9848   14.2571 N   0  0  0  0  0  0  0  0  0  0  0  0
   11.5815    0.3305   14.7749 C   0  0  0  0  0  0  0  0  0  0  0  0
   10.1550    0.1371   15.3334 C   0  0  0  0  0  0  0  0  0  0  0  0
   12.4643    0.8261   15.9291 C   0  0  0  0  0  0  0  0  0  0  0  0
   11.4792    1.3964   13.6425 C   0  0  0  0  0  0  0  0  0  0  0  0
   12.7237    1.7283   13.0346 O   0  0  0  0  0  0  0  0  0  0  0  0
   15.3122   -1.0395   15.6215 C   0  0  0  0  0  0  0  0  0  0  0  0
   16.8144    0.0140   17.5749 H   0  0  0  0  0  0  0  0  0  0  0  0
   16.3847   -1.2298   18.7822 H   0  0  0  0  0  0  0  0  0  0  0  0
   17.5112   -1.6363   17.4476 H   0  0  0  0  0  0  0  0  0  0  0  0
   14.5061   -2.7627   18.2663 H   0  0  0  0  0  0  0  0  0  0  0  0
   13.4241   -2.1022   13.2585 H   0  0  0  0  0  0  0  0  0  0  0  0
   13.8375   -0.4034   13.3872 H   0  0  0  0  0  0  0  0  0  0  0  0
   11.3567   -1.2557   13.4825 H   0  0  0  0  0  0  0  0  0  0  0  0
    9.7851    1.0523   15.8103 H   0  0  0  0  0  0  0  0  0  0  0  0
   10.1284   -0.6602   16.0806 H   0  0  0  0  0  0  0  0  0  0  0  0
    9.4423   -0.1301   14.5464 H   0  0  0  0  0  0  0  0  0  0  0  0
   12.5143    0.1046   16.7479 H   0  0  0  0  0  0  0  0  0  0  0  0
   12.0546    1.7533   16.3489 H   0  0  0  0  0  0  0  0  0  0  0  0
   13.4810    1.0675   15.6089 H   0  0  0  0  0  0  0  0  0  0  0  0
   11.0444    2.3259   14.0288 H   0  0  0  0  0  0  0  0  0  0  0  0
   10.8165    1.0426   12.8453 H   0  0  0  0  0  0  0  0  0  0  0  0
   13.3072    2.0724   13.7309 H   0  0  0  0  0  0  0  0  0  0  0  0
   15.9889   -0.3442   15.1409 H   0  0  0  0  0  0  0  0  0  0  0  0
  1  2  1  0
  2  3  1  0
  3  4  2  0
  4  5  1  0
  5  6  3  0
  4  7  1  0
  7  8  1  0
  8  9  1  0
  9 10  1  0
 10 11  1  0
 10 12  1  0
 10 13  1  0
 13 14  1  0
  7 15  2  0
 15  2  1  0
  1 16  1  0
  1 17  1  0
  1 18  1  0
  3 19  1  0
  8 20  1  0
  8 21  1  0
  9 22  1  0
 11 23  1  0
 11 24  1  0
 11 25  1  0
 12 26  1  0
 12 27  1  0
 12 28  1  0
 13 29  1  0
 13 30  1  0
 14 31  1  0
 15 32  1  0
M  END
>  <Energy>  (428) 
53.923786422932899

>  <compound_id>  (428) 
707

>  <target_id>  (428) 
1

>  <reference_id>  (428) 
63

>  <inspiration_ids>  (428) 
[63, 8]

>  <energy_score>  (428) 
-23.974917729329235

>  <distance_score>  (428) 
2.5787070400715884

>  <path>  (428) 
/opt/xchem-fragalysis-2/maxwin/BulkDock/SCRATCH/505733/C707-P63/C707-P63.minimised.mol

>  <scratch_subdir>  (428) 
/opt/xchem-fragalysis-2/maxwin/BulkDock/SCRATCH/505733/C707-P63

>  <fragmenstein_runtime>  (428) 
1.8124077320098877

>  <fragmenstein_outcome>  (428) 
too moved

>  <fragmenstein_mode>  (428) 
expansion

>  <fragmenstein_error>  (428) 


$$$$
C707-P8
     RDKit          3D

 32 32  0  0  0  0  0  0  0  0999 V2000
   16.6393   -1.0411   17.6989 C   0  0  0  0  0  0  0  0  0  0  0  0
   15.5335   -1.4588   16.8724 N   0  0  0  0  0  0  0  0  0  0  0  0
   14.5481   -2.3248   17.2533 C   0  0  0  0  0  0  0  0  0  0  0  0
   13.6658   -2.4372   16.2042 C   0  0  0  0  0  0  0  0  0  0  0  0
   12.4483   -3.1637   16.1647 C   0  0  0  0  0  0  0  0  0  0  0  0
   11.4146   -3.6660   16.0483 N   0  0  0  0  0  0  0  0  0  0  0  0
   14.1010   -1.5660   15.1696 C   0  0  0  0  0  0  0  0  0  0  0  0
   13.3446   -1.2368   13.9148 C   0  0  0  0  0  0  0  0  0  0  0  0
   11.9477   -0.9908   14.2584 N   0  0  0  0  0  0  0  0  0  0  0  0
   11.5594    0.3244   14.7825 C   0  0  0  0  0  0  0  0  0  0  0  0
   10.1104    0.1451   15.2874 C   0  0  0  0  0  0  0  0  0  0  0  0
   12.4091    0.7778   15.9771 C   0  0  0  0  0  0  0  0  0  0  0  0
   11.5112    1.4170   13.6716 C   0  0  0  0  0  0  0  0  0  0  0  0
   12.7819    1.7560   13.1259 O   0  0  0  0  0  0  0  0  0  0  0  0
   15.2966   -1.0215   15.5995 C   0  0  0  0  0  0  0  0  0  0  0  0
   17.5121   -0.8641   17.0652 H   0  0  0  0  0  0  0  0  0  0  0  0
   16.3500   -0.1226   18.2156 H   0  0  0  0  0  0  0  0  0  0  0  0
   16.8663   -1.8289   18.4219 H   0  0  0  0  0  0  0  0  0  0  0  0
   14.5426   -2.7807   18.2355 H   0  0  0  0  0  0  0  0  0  0  0  0
   13.3929   -2.1117   13.2556 H   0  0  0  0  0  0  0  0  0  0  0  0
   13.8054   -0.4121   13.3668 H   0  0  0  0  0  0  0  0  0  0  0  0
   11.3332   -1.2483   13.4789 H   0  0  0  0  0  0  0  0  0  0  0  0
    9.7474    1.0488   15.7909 H   0  0  0  0  0  0  0  0  0  0  0  0
   10.0364   -0.6830   15.9967 H   0  0  0  0  0  0  0  0  0  0  0  0
    9.4187   -0.0688   14.4666 H   0  0  0  0  0  0  0  0  0  0  0  0
   12.4282    0.0282   16.7713 H   0  0  0  0  0  0  0  0  0  0  0  0
   11.9925    1.6942   16.4134 H   0  0  0  0  0  0  0  0  0  0  0  0
   13.4363    1.0226   15.6966 H   0  0  0  0  0  0  0  0  0  0  0  0
   11.0652    2.3398   14.0613 H   0  0  0  0  0  0  0  0  0  0  0  0
   10.8803    1.0867   12.8389 H   0  0  0  0  0  0  0  0  0  0  0  0
   13.3309    2.0971   13.8513 H   0  0  0  0  0  0  0  0  0  0  0  0
   15.9566   -0.3099   15.1193 H   0  0  0  0  0  0  0  0  0  0  0  0
  1  2  1  0
  2  3  1  0
  3  4  2  0
  4  5  1  0
  5  6  3  0
  4  7  1  0
  7  8  1  0
  8  9  1  0
  9 10  1  0
 10 11  1  0
 10 12  1  0
 10 13  1  0
 13 14  1  0
  7 15  2  0
 15  2  1  0
  1 16  1  0
  1 17  1  0
  1 18  1  0
  3 19  1  0
  8 20  1  0
  8 21  1  0
  9 22  1  0
 11 23  1  0
 11 24  1  0
 11 25  1  0
 12 26  1  0
 12 27  1  0
 12 28  1  0
 13 29  1  0
 13 30  1  0
 14 31  1  0
 15 32  1  0
M  END
>  <Energy>  (429) 
53.895251697764536

>  <compound_id>  (429) 
707

>  <target_id>  (429) 
1

>  <reference_id>  (429) 
8

>  <inspiration_ids>  (429) 
[63, 8]

>  <energy_score>  (429) 
-24.00345245449772

>  <distance_score>  (429) 
2.567116426501461

>  <path>  (429) 
/opt/xchem-fragalysis-2/maxwin/BulkDock/SCRATCH/505733/C707-P8/C707-P8.minimised.mol

>  <scratch_subdir>  (429) 
/opt/xchem-fragalysis-2/maxwin/BulkDock/SCRATCH/505733/C707-P8

>  <fragmenstein_runtime>  (429) 
1.8618743419647217

>  <fragmenstein_outcome>  (429) 
too moved

>  <fragmenstein_mode>  (429) 
expansion

>  <fragmenstein_error>  (429) 


$$$$
C711-P63
     RDKit          3D

 29 29  0  0  0  0  0  0  0  0999 V2000
   16.4793   -2.3459   14.8311 C   0  0  0  0  0  0  0  0  0  0  0  0
   17.6837   -2.6468   15.6953 C   0  0  0  0  0  0  0  0  0  0  0  0
   18.1727   -1.8655   16.4105 O   0  0  0  0  0  0  0  0  0  0  0  0
   18.0630   -4.1228   15.4097 N   0  0  0  0  0  0  0  0  0  0  0  0
   19.0652   -4.9687   16.0181 C   0  0  0  0  0  0  0  0  0  0  0  0
   18.4827   -6.0523   16.9321 C   0  0  0  0  0  0  0  0  0  0  0  0
   17.7259   -5.5169   18.1065 C   0  0  0  0  0  0  0  0  0  0  0  0
   18.1605   -5.3684   19.4043 C   0  0  0  0  0  0  0  0  0  0  0  0
   17.1533   -4.8239   20.1590 N   0  0  0  0  0  0  0  0  0  0  0  0
   16.0643   -4.5897   19.3583 C   0  0  0  0  0  0  0  0  0  0  0  0
   14.8323   -3.8837   19.8261 C   0  0  0  0  0  0  0  0  0  0  0  0
   13.8913   -4.8663   20.3741 N   0  0  0  0  0  0  0  0  0  0  0  0
   14.2578   -3.1271   18.6837 C   0  0  0  0  0  0  0  0  0  0  0  0
   13.8170   -2.5392   17.7825 N   0  0  0  0  0  0  0  0  0  0  0  0
   16.3979   -5.0399   18.0938 C   0  0  0  0  0  0  0  0  0  0  0  0
   15.6353   -2.9637   15.1473 H   0  0  0  0  0  0  0  0  0  0  0  0
   16.7133   -2.5327   13.7797 H   0  0  0  0  0  0  0  0  0  0  0  0
   16.2050   -1.2930   14.9444 H   0  0  0  0  0  0  0  0  0  0  0  0
   17.3720   -4.5373   14.7907 H   0  0  0  0  0  0  0  0  0  0  0  0
   19.7481   -4.3224   16.5798 H   0  0  0  0  0  0  0  0  0  0  0  0
   19.6240   -5.4368   15.2016 H   0  0  0  0  0  0  0  0  0  0  0  0
   17.8161   -6.6997   16.3481 H   0  0  0  0  0  0  0  0  0  0  0  0
   19.3012   -6.6891   17.2902 H   0  0  0  0  0  0  0  0  0  0  0  0
   19.1142   -5.5995   19.8605 H   0  0  0  0  0  0  0  0  0  0  0  0
   17.2285   -4.5919   21.1411 H   0  0  0  0  0  0  0  0  0  0  0  0
   15.0903   -3.1679   20.6162 H   0  0  0  0  0  0  0  0  0  0  0  0
   12.9999   -4.3943   20.5480 H   0  0  0  0  0  0  0  0  0  0  0  0
   14.2347   -5.1763   21.2785 H   0  0  0  0  0  0  0  0  0  0  0  0
   15.7649   -4.9631   17.2178 H   0  0  0  0  0  0  0  0  0  0  0  0
  1  2  1  0
  2  3  2  0
  2  4  1  0
  4  5  1  0
  5  6  1  0
  6  7  1  0
  7  8  2  0
  8  9  1  0
  9 10  1  0
 10 11  1  0
 11 12  1  0
 11 13  1  0
 13 14  3  0
 10 15  2  0
 15  7  1  0
  1 16  1  0
  1 17  1  0
  1 18  1  0
  4 19  1  0
  5 20  1  0
  5 21  1  0
  6 22  1  0
  6 23  1  0
  8 24  1  0
  9 25  1  0
 11 26  1  0
 12 27  1  0
 12 28  1  0
 15 29  1  0
M  END
>  <Energy>  (430) 
38.264070484328194

>  <compound_id>  (430) 
711

>  <target_id>  (430) 
1

>  <reference_id>  (430) 
63

>  <inspiration_ids>  (430) 
[63, 27]

>  <energy_score>  (430) 
4.1669669352353225

>  <distance_score>  (430) 
3.5342974827041402

>  <path>  (430) 
/opt/xchem-fragalysis-2/maxwin/BulkDock/SCRATCH/505733/C711-P63/C711-P63.minimised.mol

>  <scratch_subdir>  (430) 
/opt/xchem-fragalysis-2/maxwin/BulkDock/SCRATCH/505733/C711-P63

>  <fragmenstein_runtime>  (430) 
6.829706192016602

>  <fragmenstein_outcome>  (430) 
too moved

>  <fragmenstein_mode>  (430) 
expansion

>  <fragmenstein_error>  (430) 


$$$$
C711-P27
     RDKit          3D

 29 29  0  0  0  0  0  0  0  0999 V2000
   19.1706   -6.4098   14.7900 C   0  0  0  0  0  0  0  0  0  0  0  0
   18.1376   -7.0225   15.7124 C   0  0  0  0  0  0  0  0  0  0  0  0
   16.9880   -7.0503   15.3868 O   0  0  0  0  0  0  0  0  0  0  0  0
   18.7865   -7.4995   16.8962 N   0  0  0  0  0  0  0  0  0  0  0  0
   18.2456   -8.0768   18.1071 C   0  0  0  0  0  0  0  0  0  0  0  0
   18.3612   -7.1425   19.3154 C   0  0  0  0  0  0  0  0  0  0  0  0
   17.4828   -5.9336   19.2309 C   0  0  0  0  0  0  0  0  0  0  0  0
   17.8114   -4.6977   18.7145 C   0  0  0  0  0  0  0  0  0  0  0  0
   16.7145   -3.8845   18.8009 N   0  0  0  0  0  0  0  0  0  0  0  0
   15.6620   -4.5704   19.3730 C   0  0  0  0  0  0  0  0  0  0  0  0
   14.3148   -3.9268   19.5505 C   0  0  0  0  0  0  0  0  0  0  0  0
   13.3576   -4.8875   20.1156 N   0  0  0  0  0  0  0  0  0  0  0  0
   13.8472   -3.3513   18.2619 C   0  0  0  0  0  0  0  0  0  0  0  0
   13.4954   -2.8227   17.2882 N   0  0  0  0  0  0  0  0  0  0  0  0
   16.1334   -5.8386   19.6679 C   0  0  0  0  0  0  0  0  0  0  0  0
   19.6094   -5.5252   15.2602 H   0  0  0  0  0  0  0  0  0  0  0  0
   18.6929   -6.1080   13.8531 H   0  0  0  0  0  0  0  0  0  0  0  0
   19.9516   -7.1402   14.5604 H   0  0  0  0  0  0  0  0  0  0  0  0
   19.7622   -7.2312   16.8685 H   0  0  0  0  0  0  0  0  0  0  0  0
   18.8165   -8.9914   18.2975 H   0  0  0  0  0  0  0  0  0  0  0  0
   17.2024   -8.3529   17.9220 H   0  0  0  0  0  0  0  0  0  0  0  0
   18.0970   -7.7047   20.2199 H   0  0  0  0  0  0  0  0  0  0  0  0
   19.4043   -6.8242   19.4387 H   0  0  0  0  0  0  0  0  0  0  0  0
   18.7284   -4.3340   18.2707 H   0  0  0  0  0  0  0  0  0  0  0  0
   16.6763   -2.9361   18.4468 H   0  0  0  0  0  0  0  0  0  0  0  0
   14.4194   -3.1012   20.2663 H   0  0  0  0  0  0  0  0  0  0  0  0
   12.4128   -4.4936   20.0180 H   0  0  0  0  0  0  0  0  0  0  0  0
   13.5355   -4.9463   21.1159 H   0  0  0  0  0  0  0  0  0  0  0  0
   15.5516   -6.6341   20.1176 H   0  0  0  0  0  0  0  0  0  0  0  0
  1  2  1  0
  2  3  2  0
  2  4  1  0
  4  5  1  0
  5  6  1  0
  6  7  1  0
  7  8  2  0
  8  9  1  0
  9 10  1  0
 10 11  1  0
 11 12  1  0
 11 13  1  0
 13 14  3  0
 10 15  2  0
 15  7  1  0
  1 16  1  0
  1 17  1  0
  1 18  1  0
  4 19  1  0
  5 20  1  0
  5 21  1  0
  6 22  1  0
  6 23  1  0
  8 24  1  0
  9 25  1  0
 11 26  1  0
 12 27  1  0
 12 28  1  0
 15 29  1  0
M  END
>  <Energy>  (431) 
29.477757978993257

>  <compound_id>  (431) 
711

>  <target_id>  (431) 
1

>  <reference_id>  (431) 
27

>  <inspiration_ids>  (431) 
[63, 27]

>  <energy_score>  (431) 
-9.654779762451412

>  <distance_score>  (431) 
5.4492121844211825

>  <path>  (431) 
/opt/xchem-fragalysis-2/maxwin/BulkDock/SCRATCH/505733/C711-P27/C711-P27.minimised.mol

>  <scratch_subdir>  (431) 
/opt/xchem-fragalysis-2/maxwin/BulkDock/SCRATCH/505733/C711-P27

>  <fragmenstein_runtime>  (431) 
8.267865180969238

>  <fragmenstein_outcome>  (431) 
too moved

>  <fragmenstein_mode>  (431) 
expansion

>  <fragmenstein_error>  (431) 


$$$$
C715-P63
     RDKit          3D

 23 23  0  0  0  0  0  0  0  0999 V2000
   16.2229    3.0160   15.3303 C   0  0  0  0  0  0  0  0  0  0  0  0
   15.7163    2.1292   16.7853 S   0  0  0  0  0  0  0  0  0  0  0  0
   16.2626    2.8244   17.9323 O   0  0  0  0  0  0  0  0  0  0  0  0
   16.0092    0.7202   16.5854 O   0  0  0  0  0  0  0  0  0  0  0  0
   13.9526    2.3106   16.8344 C   0  0  0  0  0  0  0  0  0  0  0  0
   13.2904    1.5238   15.7275 C   0  0  0  0  0  0  0  0  0  0  0  0
   12.0243    2.1258   15.4680 O   0  0  0  0  0  0  0  0  0  0  0  0
   12.9357    0.1085   16.0159 C   0  0  0  0  0  0  0  0  0  0  0  0
   11.7694   -0.4091   15.6664 N   0  0  0  0  0  0  0  0  0  0  0  0
   11.8825   -1.7485   15.8846 C   0  0  0  0  0  0  0  0  0  0  0  0
   13.0863   -2.0311   16.4735 C   0  0  0  0  0  0  0  0  0  0  0  0
   13.5550   -3.2830   16.9108 C   0  0  0  0  0  0  0  0  0  0  0  0
   13.9262   -4.3127   17.2802 N   0  0  0  0  0  0  0  0  0  0  0  0
   13.7645   -0.8465   16.5428 N   0  0  0  0  0  0  0  0  0  0  0  0
   17.3149    3.0198   15.3030 H   0  0  0  0  0  0  0  0  0  0  0  0
   15.8376    2.5168   14.4412 H   0  0  0  0  0  0  0  0  0  0  0  0
   15.8513    4.0402   15.3953 H   0  0  0  0  0  0  0  0  0  0  0  0
   13.7400    3.3827   16.7600 H   0  0  0  0  0  0  0  0  0  0  0  0
   13.6176    1.9807   17.8242 H   0  0  0  0  0  0  0  0  0  0  0  0
   13.8515    1.5650   14.7900 H   0  0  0  0  0  0  0  0  0  0  0  0
   11.4301    1.4042   15.1638 H   0  0  0  0  0  0  0  0  0  0  0  0
   11.0897   -2.4382   15.6189 H   0  0  0  0  0  0  0  0  0  0  0  0
   14.7303   -0.7118   16.8358 H   0  0  0  0  0  0  0  0  0  0  0  0
  1  2  1  0
  2  3  2  0
  2  4  2  0
  2  5  1  0
  5  6  1  0
  6  7  1  0
  6  8  1  0
  8  9  2  0
  9 10  1  0
 10 11  2  0
 11 12  1  0
 12 13  3  0
 11 14  1  0
 14  8  1  0
  1 15  1  0
  1 16  1  0
  1 17  1  0
  5 18  1  0
  5 19  1  0
  6 20  1  0
  7 21  1  0
 10 22  1  0
 14 23  1  0
M  END
>  <Energy>  (432) 
-17.802564060667983

>  <compound_id>  (432) 
715

>  <target_id>  (432) 
1

>  <reference_id>  (432) 
63

>  <inspiration_ids>  (432) 
[63, 55]

>  <energy_score>  (432) 
-30.841151686462275

>  <distance_score>  (432) 
1.3440773240480972

>  <path>  (432) 
/opt/xchem-fragalysis-2/maxwin/BulkDock/SCRATCH/505733/C715-P63/C715-P63.minimised.mol

>  <scratch_subdir>  (432) 
/opt/xchem-fragalysis-2/maxwin/BulkDock/SCRATCH/505733/C715-P63

>  <fragmenstein_runtime>  (432) 
2.125441074371338

>  <fragmenstein_outcome>  (432) 
too moved

>  <fragmenstein_mode>  (432) 
expansion

>  <fragmenstein_error>  (432) 


$$$$
C715-P55
     RDKit          3D

 23 23  0  0  0  0  0  0  0  0999 V2000
   16.2465    2.9987   15.3517 C   0  0  0  0  0  0  0  0  0  0  0  0
   15.7177    2.1096   16.7976 S   0  0  0  0  0  0  0  0  0  0  0  0
   16.2434    2.8039   17.9547 O   0  0  0  0  0  0  0  0  0  0  0  0
   16.0145    0.7003   16.6017 O   0  0  0  0  0  0  0  0  0  0  0  0
   13.9529    2.2884   16.8152 C   0  0  0  0  0  0  0  0  0  0  0  0
   13.3170    1.4804   15.7080 C   0  0  0  0  0  0  0  0  0  0  0  0
   12.0646    2.0839   15.3946 O   0  0  0  0  0  0  0  0  0  0  0  0
   12.9475    0.0735   16.0219 C   0  0  0  0  0  0  0  0  0  0  0  0
   11.7732   -0.4366   15.6895 N   0  0  0  0  0  0  0  0  0  0  0  0
   11.8824   -1.7763   15.9007 C   0  0  0  0  0  0  0  0  0  0  0  0
   13.0921   -2.0690   16.4735 C   0  0  0  0  0  0  0  0  0  0  0  0
   13.5545   -3.3322   16.8870 C   0  0  0  0  0  0  0  0  0  0  0  0
   13.9043   -4.3846   17.2158 N   0  0  0  0  0  0  0  0  0  0  0  0
   13.7758   -0.8866   16.5430 N   0  0  0  0  0  0  0  0  0  0  0  0
   15.8783    4.0242   15.4152 H   0  0  0  0  0  0  0  0  0  0  0  0
   17.3388    2.9980   15.3384 H   0  0  0  0  0  0  0  0  0  0  0  0
   15.8702    2.5040   14.4563 H   0  0  0  0  0  0  0  0  0  0  0  0
   13.7388    3.3585   16.7207 H   0  0  0  0  0  0  0  0  0  0  0  0
   13.6021    1.9712   17.8036 H   0  0  0  0  0  0  0  0  0  0  0  0
   13.9055    1.4941   14.7865 H   0  0  0  0  0  0  0  0  0  0  0  0
   11.4635    1.3574   15.1176 H   0  0  0  0  0  0  0  0  0  0  0  0
   11.0833   -2.4604   15.6397 H   0  0  0  0  0  0  0  0  0  0  0  0
   14.7454   -0.7542   16.8249 H   0  0  0  0  0  0  0  0  0  0  0  0
  1  2  1  0
  2  3  2  0
  2  4  2  0
  2  5  1  0
  5  6  1  0
  6  7  1  0
  6  8  1  0
  8  9  2  0
  9 10  1  0
 10 11  2  0
 11 12  1  0
 12 13  3  0
 11 14  1  0
 14  8  1  0
  1 15  1  0
  1 16  1  0
  1 17  1  0
  5 18  1  0
  5 19  1  0
  6 20  1  0
  7 21  1  0
 10 22  1  0
 14 23  1  0
M  END
>  <Energy>  (433) 
-17.819523956455058

>  <compound_id>  (433) 
715

>  <target_id>  (433) 
1

>  <reference_id>  (433) 
55

>  <inspiration_ids>  (433) 
[63, 55]

>  <energy_score>  (433) 
-30.858111582249407

>  <distance_score>  (433) 
1.3447991271850714

>  <path>  (433) 
/opt/xchem-fragalysis-2/maxwin/BulkDock/SCRATCH/505733/C715-P55/C715-P55.minimised.mol

>  <scratch_subdir>  (433) 
/opt/xchem-fragalysis-2/maxwin/BulkDock/SCRATCH/505733/C715-P55

>  <fragmenstein_runtime>  (433) 
2.5548741817474365

>  <fragmenstein_outcome>  (433) 
too moved

>  <fragmenstein_mode>  (433) 
expansion

>  <fragmenstein_error>  (433) 


$$$$
C718-P63
     RDKit          3D

 30 30  0  0  0  0  0  0  0  0999 V2000
   10.0922   -0.1314   15.3645 C   0  0  0  0  0  0  0  0  0  0  0  0
   10.7703    1.0409   14.6467 C   0  0  0  0  0  0  0  0  0  0  0  0
   10.4180    2.3636   15.3680 C   0  0  0  0  0  0  0  0  0  0  0  0
   11.0008    3.4836   14.6894 O   0  0  0  0  0  0  0  0  0  0  0  0
   10.4101    0.9915   13.1527 C   0  0  0  0  0  0  0  0  0  0  0  0
   10.5567    2.2309   12.4575 O   0  0  0  0  0  0  0  0  0  0  0  0
   12.2006    0.8264   14.6828 N   0  0  0  0  0  0  0  0  0  0  0  0
   13.1647    0.7845   15.8645 C   0  0  0  0  0  0  0  0  0  0  0  0
   12.9849    0.9856   16.9609 O   0  0  0  0  0  0  0  0  0  0  0  0
   14.4164    0.2938   15.1439 N   0  0  0  0  0  0  0  0  0  0  0  0
   15.6111    0.0664   15.5950 N   0  0  0  0  0  0  0  0  0  0  0  0
   16.7086    0.7752   15.2574 C   0  0  0  0  0  0  0  0  0  0  0  0
   17.7622    0.2414   15.8243 N   0  0  0  0  0  0  0  0  0  0  0  0
   17.2872   -0.8251   16.5589 C   0  0  0  0  0  0  0  0  0  0  0  0
   15.9299   -0.9430   16.4334 C   0  0  0  0  0  0  0  0  0  0  0  0
   15.0750   -1.8806   17.0342 C   0  0  0  0  0  0  0  0  0  0  0  0
   14.4161   -2.6922   17.5285 N   0  0  0  0  0  0  0  0  0  0  0  0
   10.3918   -0.1650   16.4108 H   0  0  0  0  0  0  0  0  0  0  0  0
    9.0014   -0.0502   15.3308 H   0  0  0  0  0  0  0  0  0  0  0  0
   10.3796   -1.0931   14.9264 H   0  0  0  0  0  0  0  0  0  0  0  0
   10.7922    2.3625   16.3973 H   0  0  0  0  0  0  0  0  0  0  0  0
    9.3378    2.5248   15.4115 H   0  0  0  0  0  0  0  0  0  0  0  0
   11.0505    4.2001   15.3516 H   0  0  0  0  0  0  0  0  0  0  0  0
   11.0513    0.2742   12.6339 H   0  0  0  0  0  0  0  0  0  0  0  0
    9.4003    0.6198   13.0112 H   0  0  0  0  0  0  0  0  0  0  0  0
   10.9598    2.8709   13.0899 H   0  0  0  0  0  0  0  0  0  0  0  0
   12.7064    0.6737   13.8295 H   0  0  0  0  0  0  0  0  0  0  0  0
   14.2596    0.3005   14.1551 H   0  0  0  0  0  0  0  0  0  0  0  0
   16.7001    1.6435   14.6128 H   0  0  0  0  0  0  0  0  0  0  0  0
   17.9611   -1.4404   17.1435 H   0  0  0  0  0  0  0  0  0  0  0  0
  1  2  1  0
  2  3  1  0
  3  4  1  0
  2  5  1  0
  5  6  1  0
  2  7  1  0
  7  8  1  0
  8  9  2  0
  8 10  1  0
 10 11  1  0
 11 12  1  0
 12 13  2  0
 13 14  1  0
 14 15  2  0
 15 16  1  0
 16 17  3  0
 15 11  1  0
  1 18  1  0
  1 19  1  0
  1 20  1  0
  3 21  1  0
  3 22  1  0
  4 23  1  0
  5 24  1  0
  5 25  1  0
  6 26  1  0
  7 27  1  0
 10 28  1  0
 12 29  1  0
 14 30  1  0
M  END
>  <Energy>  (434) 
-12.952137646400875

>  <compound_id>  (434) 
718

>  <target_id>  (434) 
1

>  <reference_id>  (434) 
63

>  <inspiration_ids>  (434) 
[63, 66]

>  <energy_score>  (434) 
-4.072900160411962

>  <distance_score>  (434) 
3.9970331128532877

>  <path>  (434) 
/opt/xchem-fragalysis-2/maxwin/BulkDock/SCRATCH/505733/C718-P63/C718-P63.minimised.mol

>  <scratch_subdir>  (434) 
/opt/xchem-fragalysis-2/maxwin/BulkDock/SCRATCH/505733/C718-P63

>  <fragmenstein_runtime>  (434) 
2.605389356613159

>  <fragmenstein_outcome>  (434) 
too moved

>  <fragmenstein_mode>  (434) 
expansion

>  <fragmenstein_error>  (434) 


$$$$
C718-P66
     RDKit          3D

 30 30  0  0  0  0  0  0  0  0999 V2000
   20.4120   -2.6293   12.6391 C   0  0  0  0  0  0  0  0  0  0  0  0
   19.4833   -3.7706   13.0710 C   0  0  0  0  0  0  0  0  0  0  0  0
   19.9703   -4.3497   14.4183 C   0  0  0  0  0  0  0  0  0  0  0  0
   19.1391   -5.4446   14.8230 O   0  0  0  0  0  0  0  0  0  0  0  0
   19.4915   -4.8680   11.9731 C   0  0  0  0  0  0  0  0  0  0  0  0
   18.5251   -5.8944   12.2441 O   0  0  0  0  0  0  0  0  0  0  0  0
   18.1076   -3.2887   13.2256 N   0  0  0  0  0  0  0  0  0  0  0  0
   17.5603   -2.0331   13.9475 C   0  0  0  0  0  0  0  0  0  0  0  0
   18.1125   -1.1751   14.4485 O   0  0  0  0  0  0  0  0  0  0  0  0
   16.0454   -2.2487   13.7183 N   0  0  0  0  0  0  0  0  0  0  0  0
   15.0192   -1.4514   13.9682 N   0  0  0  0  0  0  0  0  0  0  0  0
   14.3159   -0.7989   13.0040 C   0  0  0  0  0  0  0  0  0  0  0  0
   13.4049   -0.0128   13.5394 N   0  0  0  0  0  0  0  0  0  0  0  0
   13.5541   -0.1770   14.8953 C   0  0  0  0  0  0  0  0  0  0  0  0
   14.5412   -1.0924   15.1910 C   0  0  0  0  0  0  0  0  0  0  0  0
   15.0152   -1.5222   16.4507 C   0  0  0  0  0  0  0  0  0  0  0  0
   15.4130   -1.8932   17.4742 N   0  0  0  0  0  0  0  0  0  0  0  0
   20.4782   -1.8507   13.4066 H   0  0  0  0  0  0  0  0  0  0  0  0
   21.4278   -2.9955   12.4530 H   0  0  0  0  0  0  0  0  0  0  0  0
   20.0512   -2.1528   11.7204 H   0  0  0  0  0  0  0  0  0  0  0  0
   19.9586   -3.5973   15.2151 H   0  0  0  0  0  0  0  0  0  0  0  0
   20.9931   -4.7309   14.3291 H   0  0  0  0  0  0  0  0  0  0  0  0
   18.3543   -5.0384   15.2412 H   0  0  0  0  0  0  0  0  0  0  0  0
   19.2300   -4.4409   10.9987 H   0  0  0  0  0  0  0  0  0  0  0  0
   20.4765   -5.3389   11.8834 H   0  0  0  0  0  0  0  0  0  0  0  0
   18.7370   -6.2070   13.1558 H   0  0  0  0  0  0  0  0  0  0  0  0
   17.3405   -3.8929   12.9658 H   0  0  0  0  0  0  0  0  0  0  0  0
   15.8895   -3.1594   13.3132 H   0  0  0  0  0  0  0  0  0  0  0  0
   14.5090   -0.9186   11.9464 H   0  0  0  0  0  0  0  0  0  0  0  0
   12.9548    0.4083   15.5723 H   0  0  0  0  0  0  0  0  0  0  0  0
  1  2  1  0
  2  3  1  0
  3  4  1  0
  2  5  1  0
  5  6  1  0
  2  7  1  0
  7  8  1  0
  8  9  2  0
  8 10  1  0
 10 11  1  0
 11 12  1  0
 12 13  2  0
 13 14  1  0
 14 15  2  0
 15 16  1  0
 16 17  3  0
 15 11  1  0
  1 18  1  0
  1 19  1  0
  1 20  1  0
  3 21  1  0
  3 22  1  0
  4 23  1  0
  5 24  1  0
  5 25  1  0
  6 26  1  0
  7 27  1  0
 10 28  1  0
 12 29  1  0
 14 30  1  0
M  END
>  <Energy>  (435) 
-20.010742676785163

>  <compound_id>  (435) 
718

>  <target_id>  (435) 
1

>  <reference_id>  (435) 
66

>  <inspiration_ids>  (435) 
[63, 66]

>  <energy_score>  (435) 
-11.131505190793803

>  <distance_score>  (435) 
4.605719183933933

>  <path>  (435) 
/opt/xchem-fragalysis-2/maxwin/BulkDock/SCRATCH/505733/C718-P66/C718-P66.minimised.mol

>  <scratch_subdir>  (435) 
/opt/xchem-fragalysis-2/maxwin/BulkDock/SCRATCH/505733/C718-P66

>  <fragmenstein_runtime>  (435) 
3.5552735328674316

>  <fragmenstein_outcome>  (435) 
too moved

>  <fragmenstein_mode>  (435) 
expansion

>  <fragmenstein_error>  (435) 


$$$$
C729-P63
     RDKit          3D

 20 20  0  0  0  0  0  0  0  0999 V2000
   12.7215   -4.4057   16.9073 C   0  0  0  0  0  0  0  0  0  0  0  0
   13.0680   -3.0480   16.5775 C   0  0  0  0  0  0  0  0  0  0  0  0
   13.4131   -1.9316   16.3337 C   0  0  0  0  0  0  0  0  0  0  0  0
   13.7507   -0.6209   15.9602 C   0  0  0  0  0  0  0  0  0  0  0  0
   14.7507    0.0870   16.5498 N   0  0  0  0  0  0  0  0  0  0  0  0
   14.7686    1.2304   15.9052 C   0  0  0  0  0  0  0  0  0  0  0  0
   13.8148    1.2596   14.9339 N   0  0  0  0  0  0  0  0  0  0  0  0
   13.1133    0.0913   14.9898 C   0  0  0  0  0  0  0  0  0  0  0  0
   11.7705   -0.2822   13.9513 S   0  0  0  0  0  0  0  0  0  0  0  0
   10.3859   -0.2938   15.0649 C   0  0  0  0  0  0  0  0  0  0  0  0
   12.0895   -1.6134   13.4990 O   0  0  0  0  0  0  0  0  0  0  0  0
   11.6935    0.8756   13.0779 O   0  0  0  0  0  0  0  0  0  0  0  0
   12.8137   -4.5620   17.9852 H   0  0  0  0  0  0  0  0  0  0  0  0
   11.7009   -4.6262   16.5950 H   0  0  0  0  0  0  0  0  0  0  0  0
   13.3955   -5.1058   16.4173 H   0  0  0  0  0  0  0  0  0  0  0  0
   15.4482    2.0530   16.0883 H   0  0  0  0  0  0  0  0  0  0  0  0
   13.6408    2.0114   14.2786 H   0  0  0  0  0  0  0  0  0  0  0  0
   10.4413   -1.1809   15.6965 H   0  0  0  0  0  0  0  0  0  0  0  0
   10.4114    0.6158   15.6688 H   0  0  0  0  0  0  0  0  0  0  0  0
    9.4637   -0.3025   14.4846 H   0  0  0  0  0  0  0  0  0  0  0  0
  1  2  1  0
  2  3  3  0
  3  4  1  0
  4  5  1  0
  5  6  2  0
  6  7  1  0
  7  8  1  0
  8  9  1  0
  9 10  1  0
  9 11  2  0
  9 12  2  0
  8  4  2  0
  1 13  1  0
  1 14  1  0
  1 15  1  0
  6 16  1  0
  7 17  1  0
 10 18  1  0
 10 19  1  0
 10 20  1  0
M  END
>  <Energy>  (436) 
-17.786600969230573

>  <compound_id>  (436) 
729

>  <target_id>  (436) 
1

>  <reference_id>  (436) 
63

>  <inspiration_ids>  (436) 
[63, 111]

>  <energy_score>  (436) 
-22.543158820805147

>  <distance_score>  (436) 
2.2449395250165645

>  <path>  (436) 
/opt/xchem-fragalysis-2/maxwin/BulkDock/SCRATCH/505733/C729-P63/C729-P63.minimised.mol

>  <scratch_subdir>  (436) 
/opt/xchem-fragalysis-2/maxwin/BulkDock/SCRATCH/505733/C729-P63

>  <fragmenstein_runtime>  (436) 
3.6469550132751465

>  <fragmenstein_outcome>  (436) 
too moved

>  <fragmenstein_mode>  (436) 
expansion

>  <fragmenstein_error>  (436) 


$$$$
C729-P111
     RDKit          3D

 20 20  0  0  0  0  0  0  0  0999 V2000
   12.5637   -4.3213   16.8543 C   0  0  0  0  0  0  0  0  0  0  0  0
   12.9551   -2.9657   16.5806 C   0  0  0  0  0  0  0  0  0  0  0  0
   13.3419   -1.8585   16.3611 C   0  0  0  0  0  0  0  0  0  0  0  0
   13.7413   -0.5698   15.9771 C   0  0  0  0  0  0  0  0  0  0  0  0
   14.7468    0.1124   16.5886 N   0  0  0  0  0  0  0  0  0  0  0  0
   14.8559    1.2233   15.8976 C   0  0  0  0  0  0  0  0  0  0  0  0
   13.9505    1.2588   14.8817 N   0  0  0  0  0  0  0  0  0  0  0  0
   13.1773    0.1374   14.9598 C   0  0  0  0  0  0  0  0  0  0  0  0
   11.8524   -0.1880   13.8815 S   0  0  0  0  0  0  0  0  0  0  0  0
   10.4209    0.1062   14.8890 C   0  0  0  0  0  0  0  0  0  0  0  0
   12.0058   -1.5943   13.5979 O   0  0  0  0  0  0  0  0  0  0  0  0
   11.9874    0.8629   12.8904 O   0  0  0  0  0  0  0  0  0  0  0  0
   12.6805   -4.5332   17.9192 H   0  0  0  0  0  0  0  0  0  0  0  0
   11.5305   -4.4959   16.5609 H   0  0  0  0  0  0  0  0  0  0  0  0
   13.1993   -5.0084   16.3043 H   0  0  0  0  0  0  0  0  0  0  0  0
   15.5727    2.0149   16.0744 H   0  0  0  0  0  0  0  0  0  0  0  0
   13.8491    1.9830   14.1809 H   0  0  0  0  0  0  0  0  0  0  0  0
   10.3557   -0.6706   15.6520 H   0  0  0  0  0  0  0  0  0  0  0  0
   10.5070    1.0940   15.3466 H   0  0  0  0  0  0  0  0  0  0  0  0
    9.5358    0.0839   14.2545 H   0  0  0  0  0  0  0  0  0  0  0  0
  1  2  1  0
  2  3  3  0
  3  4  1  0
  4  5  1  0
  5  6  2  0
  6  7  1  0
  7  8  1  0
  8  9  1  0
  9 10  1  0
  9 11  2  0
  9 12  2  0
  8  4  2  0
  1 13  1  0
  1 14  1  0
  1 15  1  0
  6 16  1  0
  7 17  1  0
 10 18  1  0
 10 19  1  0
 10 20  1  0
M  END
>  <Energy>  (437) 
-17.14045087267883

>  <compound_id>  (437) 
729

>  <target_id>  (437) 
1

>  <reference_id>  (437) 
111

>  <inspiration_ids>  (437) 
[63, 111]

>  <energy_score>  (437) 
-21.897008724253766

>  <distance_score>  (437) 
2.2625442490702814

>  <path>  (437) 
/opt/xchem-fragalysis-2/maxwin/BulkDock/SCRATCH/505733/C729-P111/C729-P111.minimised.mol

>  <scratch_subdir>  (437) 
/opt/xchem-fragalysis-2/maxwin/BulkDock/SCRATCH/505733/C729-P111

>  <fragmenstein_runtime>  (437) 
2.9889163970947266

>  <fragmenstein_outcome>  (437) 
too moved

>  <fragmenstein_mode>  (437) 
expansion

>  <fragmenstein_error>  (437) 


$$$$
C730-P63
     RDKit          3D

 19 20  0  0  0  0  0  0  0  0999 V2000
   10.7986    1.5326   14.3118 N   0  0  0  0  0  0  0  0  0  0  0  0
   10.4040    0.6657   15.3882 C   0  0  0  0  0  0  0  0  0  0  0  0
    9.4887    0.7420   16.1594 O   0  0  0  0  0  0  0  0  0  0  0  0
   11.3238   -0.4759   15.5823 C   0  0  0  0  0  0  0  0  0  0  0  0
   10.8441   -1.7615   15.3371 C   0  0  0  0  0  0  0  0  0  0  0  0
   11.6289   -2.8830   15.6045 C   0  0  0  0  0  0  0  0  0  0  0  0
   12.8870   -2.6444   16.1516 C   0  0  0  0  0  0  0  0  0  0  0  0
   13.8772   -3.4880   16.5866 N   0  0  0  0  0  0  0  0  0  0  0  0
   14.9118   -2.7146   17.0325 C   0  0  0  0  0  0  0  0  0  0  0  0
   14.6483   -1.4319   16.9262 N   0  0  0  0  0  0  0  0  0  0  0  0
   13.3908   -1.3697   16.3882 C   0  0  0  0  0  0  0  0  0  0  0  0
   12.6086   -0.2477   16.0907 C   0  0  0  0  0  0  0  0  0  0  0  0
   11.5744    1.0860   13.7849 H   0  0  0  0  0  0  0  0  0  0  0  0
   11.7109    1.2103   13.9351 H   0  0  0  0  0  0  0  0  0  0  0  0
    9.8344   -1.8948   14.9523 H   0  0  0  0  0  0  0  0  0  0  0  0
   11.2495   -3.8835   15.4360 H   0  0  0  0  0  0  0  0  0  0  0  0
   13.8515   -4.5007   16.5704 H   0  0  0  0  0  0  0  0  0  0  0  0
   15.8245   -3.1439   17.4236 H   0  0  0  0  0  0  0  0  0  0  0  0
   12.9735    0.7476   16.3184 H   0  0  0  0  0  0  0  0  0  0  0  0
  1  2  1  0
  2  3  2  0
  2  4  1  0
  4  5  2  0
  5  6  1  0
  6  7  2  0
  7  8  1  0
  8  9  1  0
  9 10  2  0
 10 11  1  0
 11 12  2  0
 12  4  1  0
 11  7  1  0
  1 13  1  0
  1 14  1  0
  5 15  1  0
  6 16  1  0
  8 17  1  0
  9 18  1  0
 12 19  1  0
M  END
>  <Energy>  (438) 
169.82776219812931

>  <compound_id>  (438) 
730

>  <target_id>  (438) 
1

>  <reference_id>  (438) 
63

>  <inspiration_ids>  (438) 
[63, 113]

>  <energy_score>  (438) 
147.04264855510073

>  <distance_score>  (438) 
2.2165894165579054

>  <path>  (438) 
/opt/xchem-fragalysis-2/maxwin/BulkDock/SCRATCH/505733/C730-P63/C730-P63.minimised.mol

>  <scratch_subdir>  (438) 
/opt/xchem-fragalysis-2/maxwin/BulkDock/SCRATCH/505733/C730-P63

>  <fragmenstein_runtime>  (438) 
1.8357594013214111

>  <fragmenstein_outcome>  (438) 
too moved

>  <fragmenstein_mode>  (438) 
expansion

>  <fragmenstein_error>  (438) 


$$$$
C730-P113
     RDKit          3D

 19 20  0  0  0  0  0  0  0  0999 V2000
    8.3494   -1.1667   14.6618 N   0  0  0  0  0  0  0  0  0  0  0  0
    9.3184   -0.6907   15.6066 C   0  0  0  0  0  0  0  0  0  0  0  0
    9.1880   -0.3178   16.7384 O   0  0  0  0  0  0  0  0  0  0  0  0
   10.7386   -0.7564   15.1594 C   0  0  0  0  0  0  0  0  0  0  0  0
   11.2354   -1.8858   14.4964 C   0  0  0  0  0  0  0  0  0  0  0  0
   12.5675   -1.9597   14.0935 C   0  0  0  0  0  0  0  0  0  0  0  0
   13.4038   -0.9371   14.5260 C   0  0  0  0  0  0  0  0  0  0  0  0
   14.7557   -0.7435   14.4133 N   0  0  0  0  0  0  0  0  0  0  0  0
   15.0625    0.4308   15.0393 C   0  0  0  0  0  0  0  0  0  0  0  0
   13.9949    1.0110   15.5363 N   0  0  0  0  0  0  0  0  0  0  0  0
   12.9555    0.1697   15.2359 C   0  0  0  0  0  0  0  0  0  0  0  0
   11.5946    0.2907   15.5327 C   0  0  0  0  0  0  0  0  0  0  0  0
    8.8486   -1.5151   13.8061 H   0  0  0  0  0  0  0  0  0  0  0  0
    8.8155   -1.2910   13.7261 H   0  0  0  0  0  0  0  0  0  0  0  0
   10.5955   -2.7398   14.2871 H   0  0  0  0  0  0  0  0  0  0  0  0
   12.9294   -2.7916   13.5044 H   0  0  0  0  0  0  0  0  0  0  0  0
   15.4116   -1.3732   13.9726 H   0  0  0  0  0  0  0  0  0  0  0  0
   16.0745    0.8084   15.1014 H   0  0  0  0  0  0  0  0  0  0  0  0
   11.2349    1.1566   16.0775 H   0  0  0  0  0  0  0  0  0  0  0  0
  1  2  1  0
  2  3  2  0
  2  4  1  0
  4  5  2  0
  5  6  1  0
  6  7  2  0
  7  8  1  0
  8  9  1  0
  9 10  2  0
 10 11  1  0
 11 12  2  0
 12  4  1  0
 11  7  1  0
  1 13  1  0
  1 14  1  0
  5 15  1  0
  6 16  1  0
  8 17  1  0
  9 18  1  0
 12 19  1  0
M  END
>  <Energy>  (439) 
172.9078351539172

>  <compound_id>  (439) 
730

>  <target_id>  (439) 
1

>  <reference_id>  (439) 
113

>  <inspiration_ids>  (439) 
[63, 113]

>  <energy_score>  (439) 
150.1227215108847

>  <distance_score>  (439) 
3.7618090992435302

>  <path>  (439) 
/opt/xchem-fragalysis-2/maxwin/BulkDock/SCRATCH/505733/C730-P113/C730-P113.minimised.mol

>  <scratch_subdir>  (439) 
/opt/xchem-fragalysis-2/maxwin/BulkDock/SCRATCH/505733/C730-P113

>  <fragmenstein_runtime>  (439) 
1.8862621784210205

>  <fragmenstein_outcome>  (439) 
too moved

>  <fragmenstein_mode>  (439) 
expansion

>  <fragmenstein_error>  (439) 


$$$$
C733-P63
     RDKit          3D

 40 42  0  0  0  0  0  0  0  0999 V2000
   13.8913    5.6938   11.7388 N   0  0  0  0  0  0  0  0  0  0  0  0
   14.0003    4.5403   11.7460 C   0  0  0  0  0  0  0  0  0  0  0  0
   14.1509    3.1317   11.7346 C   0  0  0  0  0  0  0  0  0  0  0  0
   15.3450    2.4710   11.6165 N   0  0  0  0  0  0  0  0  0  0  0  0
   15.0810    1.1304   11.6400 C   0  0  0  0  0  0  0  0  0  0  0  0
   13.7950    0.8943   11.7676 N   0  0  0  0  0  0  0  0  0  0  0  0
   13.1938    2.1426   11.8352 C   0  0  0  0  0  0  0  0  0  0  0  0
   11.7139    2.2519   11.9939 C   0  0  0  0  0  0  0  0  0  0  0  0
   11.4112    1.9413   13.4330 C   0  0  0  0  0  0  0  0  0  0  0  0
   11.8644    0.7763   14.0111 C   0  0  0  0  0  0  0  0  0  0  0  0
   11.5827    0.5506   15.3390 C   0  0  0  0  0  0  0  0  0  0  0  0
   12.0100   -0.6328   15.9724 N   0  0  0  0  0  0  0  0  0  0  0  0
   13.4650   -0.8155   15.9211 C   0  0  0  0  0  0  0  0  0  0  0  0
   13.8648   -1.9903   16.8099 C   0  0  0  0  0  0  0  0  0  0  0  0
   12.9485   -3.2026   16.6613 C   0  0  0  0  0  0  0  0  0  0  0  0
   11.9686   -3.0733   15.5073 C   0  0  0  0  0  0  0  0  0  0  0  0
   11.2245   -1.7538   15.4461 C   0  0  0  0  0  0  0  0  0  0  0  0
   10.8224    1.4046   16.0361 N   0  0  0  0  0  0  0  0  0  0  0  0
   10.3947    2.5137   15.4099 C   0  0  0  0  0  0  0  0  0  0  0  0
    9.5577    3.5006   16.1971 C   0  0  0  0  0  0  0  0  0  0  0  0
    9.0438    4.5544   15.3713 O   0  0  0  0  0  0  0  0  0  0  0  0
   10.6463    2.8154   14.1140 N   0  0  0  0  0  0  0  0  0  0  0  0
   16.2591    2.8958   11.5284 H   0  0  0  0  0  0  0  0  0  0  0  0
   15.8608    0.3833   11.5623 H   0  0  0  0  0  0  0  0  0  0  0  0
   11.3587    3.2532   11.7295 H   0  0  0  0  0  0  0  0  0  0  0  0
   11.2175    1.5298   11.3450 H   0  0  0  0  0  0  0  0  0  0  0  0
   12.4147    0.0391   13.4411 H   0  0  0  0  0  0  0  0  0  0  0  0
   13.8107   -1.0096   14.8973 H   0  0  0  0  0  0  0  0  0  0  0  0
   13.9810    0.0857   16.2761 H   0  0  0  0  0  0  0  0  0  0  0  0
   13.8687   -1.6739   17.8595 H   0  0  0  0  0  0  0  0  0  0  0  0
   14.8986   -2.2752   16.5799 H   0  0  0  0  0  0  0  0  0  0  0  0
   13.5520   -4.1094   16.5374 H   0  0  0  0  0  0  0  0  0  0  0  0
   12.4008   -3.3428   17.5945 H   0  0  0  0  0  0  0  0  0  0  0  0
   12.5191   -3.1547   14.5682 H   0  0  0  0  0  0  0  0  0  0  0  0
   11.2529   -3.8985   15.5204 H   0  0  0  0  0  0  0  0  0  0  0  0
   10.9338   -1.6088   14.4041 H   0  0  0  0  0  0  0  0  0  0  0  0
   10.2922   -1.8071   16.0074 H   0  0  0  0  0  0  0  0  0  0  0  0
    8.7113    2.9875   16.6623 H   0  0  0  0  0  0  0  0  0  0  0  0
   10.1771    3.9586   16.9720 H   0  0  0  0  0  0  0  0  0  0  0  0
    9.5775    4.5209   14.5538 H   0  0  0  0  0  0  0  0  0  0  0  0
  1  2  3  0
  2  3  1  0
  3  4  1  0
  4  5  1  0
  5  6  2  0
  6  7  1  0
  7  8  1  0
  8  9  1  0
  9 10  2  0
 10 11  1  0
 11 12  1  0
 12 13  1  0
 13 14  1  0
 14 15  1  0
 15 16  1  0
 16 17  1  0
 11 18  2  0
 18 19  1  0
 19 20  1  0
 20 21  1  0
 19 22  2  0
  7  3  2  0
 22  9  1  0
 17 12  1  0
  4 23  1  0
  5 24  1  0
  8 25  1  0
  8 26  1  0
 10 27  1  0
 13 28  1  0
 13 29  1  0
 14 30  1  0
 14 31  1  0
 15 32  1  0
 15 33  1  0
 16 34  1  0
 16 35  1  0
 17 36  1  0
 17 37  1  0
 20 38  1  0
 20 39  1  0
 21 40  1  0
M  END
>  <Energy>  (440) 
17.876173914942314

>  <compound_id>  (440) 
733

>  <target_id>  (440) 
1

>  <reference_id>  (440) 
63

>  <inspiration_ids>  (440) 
[63, 118]

>  <energy_score>  (440) 
-18.88983977841481

>  <distance_score>  (440) 
2.1205845852067085

>  <path>  (440) 
/opt/xchem-fragalysis-2/maxwin/BulkDock/SCRATCH/505733/C733-P63/C733-P63.minimised.mol

>  <scratch_subdir>  (440) 
/opt/xchem-fragalysis-2/maxwin/BulkDock/SCRATCH/505733/C733-P63

>  <fragmenstein_runtime>  (440) 
4.604566335678101

>  <fragmenstein_outcome>  (440) 
too moved

>  <fragmenstein_mode>  (440) 
expansion

>  <fragmenstein_error>  (440) 


$$$$
C733-P118
     RDKit          3D

 40 42  0  0  0  0  0  0  0  0999 V2000
   13.6922    5.8128   11.4820 N   0  0  0  0  0  0  0  0  0  0  0  0
   13.8441    4.6679   11.5762 C   0  0  0  0  0  0  0  0  0  0  0  0
   14.0470    3.2693   11.6728 C   0  0  0  0  0  0  0  0  0  0  0  0
   15.2665    2.6479   11.6149 N   0  0  0  0  0  0  0  0  0  0  0  0
   15.0531    1.3037   11.7335 C   0  0  0  0  0  0  0  0  0  0  0  0
   13.7755    1.0292   11.8666 N   0  0  0  0  0  0  0  0  0  0  0  0
   13.1257    2.2545   11.8354 C   0  0  0  0  0  0  0  0  0  0  0  0
   11.6383    2.3189   11.9595 C   0  0  0  0  0  0  0  0  0  0  0  0
   11.3175    1.9967   13.3914 C   0  0  0  0  0  0  0  0  0  0  0  0
   11.7427    0.8128   13.9462 C   0  0  0  0  0  0  0  0  0  0  0  0
   11.4865    0.5839   15.2785 C   0  0  0  0  0  0  0  0  0  0  0  0
   11.9144   -0.6151   15.8893 N   0  0  0  0  0  0  0  0  0  0  0  0
   13.3717   -0.7911   15.8022 C   0  0  0  0  0  0  0  0  0  0  0  0
   13.8076   -1.9811   16.6535 C   0  0  0  0  0  0  0  0  0  0  0  0
   12.8204   -3.1432   16.6195 C   0  0  0  0  0  0  0  0  0  0  0  0
   11.8460   -3.0548   15.4545 C   0  0  0  0  0  0  0  0  0  0  0  0
   11.1326   -1.7234   15.3254 C   0  0  0  0  0  0  0  0  0  0  0  0
   10.7674    1.4526   16.0036 N   0  0  0  0  0  0  0  0  0  0  0  0
   10.3449    2.5732   15.3909 C   0  0  0  0  0  0  0  0  0  0  0  0
    9.5213    3.5679   16.1870 C   0  0  0  0  0  0  0  0  0  0  0  0
    9.2195    4.7445   15.4217 O   0  0  0  0  0  0  0  0  0  0  0  0
   10.5845    2.8809   14.0930 N   0  0  0  0  0  0  0  0  0  0  0  0
   16.1649    3.0989   11.5007 H   0  0  0  0  0  0  0  0  0  0  0  0
   15.8600    0.5818   11.7136 H   0  0  0  0  0  0  0  0  0  0  0  0
   11.2607    3.3116   11.6950 H   0  0  0  0  0  0  0  0  0  0  0  0
   11.1780    1.5843   11.2956 H   0  0  0  0  0  0  0  0  0  0  0  0
   12.2662    0.0728   13.3544 H   0  0  0  0  0  0  0  0  0  0  0  0
   13.6911   -0.9667   14.7664 H   0  0  0  0  0  0  0  0  0  0  0  0
   13.8941    0.1065   16.1574 H   0  0  0  0  0  0  0  0  0  0  0  0
   13.9529   -1.6631   17.6922 H   0  0  0  0  0  0  0  0  0  0  0  0
   14.7916   -2.3193   16.3062 H   0  0  0  0  0  0  0  0  0  0  0  0
   13.3652   -4.0925   16.6050 H   0  0  0  0  0  0  0  0  0  0  0  0
   12.2682   -3.1627   17.5563 H   0  0  0  0  0  0  0  0  0  0  0  0
   12.3867   -3.1961   14.5152 H   0  0  0  0  0  0  0  0  0  0  0  0
   11.1095   -3.8583   15.5098 H   0  0  0  0  0  0  0  0  0  0  0  0
   10.9132   -1.5918   14.2625 H   0  0  0  0  0  0  0  0  0  0  0  0
   10.1622   -1.7531   15.8247 H   0  0  0  0  0  0  0  0  0  0  0  0
    8.5758    3.1061   16.4841 H   0  0  0  0  0  0  0  0  0  0  0  0
   10.0778    3.8762   17.0762 H   0  0  0  0  0  0  0  0  0  0  0  0
    9.7376    4.6578   14.5985 H   0  0  0  0  0  0  0  0  0  0  0  0
  1  2  3  0
  2  3  1  0
  3  4  1  0
  4  5  1  0
  5  6  2  0
  6  7  1  0
  7  8  1  0
  8  9  1  0
  9 10  2  0
 10 11  1  0
 11 12  1  0
 12 13  1  0
 13 14  1  0
 14 15  1  0
 15 16  1  0
 16 17  1  0
 11 18  2  0
 18 19  1  0
 19 20  1  0
 20 21  1  0
 19 22  2  0
  7  3  2  0
 22  9  1  0
 17 12  1  0
  4 23  1  0
  5 24  1  0
  8 25  1  0
  8 26  1  0
 10 27  1  0
 13 28  1  0
 13 29  1  0
 14 30  1  0
 14 31  1  0
 15 32  1  0
 15 33  1  0
 16 34  1  0
 16 35  1  0
 17 36  1  0
 17 37  1  0
 20 38  1  0
 20 39  1  0
 21 40  1  0
M  END
>  <Energy>  (441) 
18.49970440528919

>  <compound_id>  (441) 
733

>  <target_id>  (441) 
1

>  <reference_id>  (441) 
118

>  <inspiration_ids>  (441) 
[63, 118]

>  <energy_score>  (441) 
-18.26630928806658

>  <distance_score>  (441) 
2.1266601398787133

>  <path>  (441) 
/opt/xchem-fragalysis-2/maxwin/BulkDock/SCRATCH/505733/C733-P118/C733-P118.minimised.mol

>  <scratch_subdir>  (441) 
/opt/xchem-fragalysis-2/maxwin/BulkDock/SCRATCH/505733/C733-P118

>  <fragmenstein_runtime>  (441) 
4.182813882827759

>  <fragmenstein_outcome>  (441) 
too moved

>  <fragmenstein_mode>  (441) 
expansion

>  <fragmenstein_error>  (441) 


$$$$
C734-P63
     RDKit          3D

 34 34  0  0  0  0  0  0  0  0999 V2000
   15.1075   -1.7482   17.4069 C   0  0  0  0  0  0  0  0  0  0  0  0
   13.7689   -1.7778   16.6495 C   0  0  0  0  0  0  0  0  0  0  0  0
   13.4512   -3.1476   16.2309 N   0  0  0  0  0  0  0  0  0  0  0  0
   13.3596   -4.3831   17.3223 S   0  0  0  0  0  0  0  0  0  0  0  0
   13.8215   -0.8323   15.4156 C   0  0  0  0  0  0  0  0  0  0  0  0
   12.5492   -0.8397   14.5486 C   0  0  0  0  0  0  0  0  0  0  0  0
   12.4220    0.5914   14.0233 C   0  0  0  0  0  0  0  0  0  0  0  0
   13.1123    0.9727   12.7721 N   0  0  0  0  0  0  0  0  0  0  0  0
   14.3129    0.2329   12.4695 C   0  0  0  0  0  0  0  0  0  0  0  0
   14.6424    0.6397   11.1472 N   0  0  0  0  0  0  0  0  0  0  0  0
   15.3880   -0.0713   10.0672 C   0  0  0  0  0  0  0  0  0  0  0  0
   15.2690    0.9286    8.9330 N   0  0  0  0  0  0  0  0  0  0  0  0
   15.9424   -1.1019   10.0873 O   0  0  0  0  0  0  0  0  0  0  0  0
   12.9282    1.3698   15.2445 C   0  0  0  0  0  0  0  0  0  0  0  0
   14.0569    0.5911   15.7500 N   0  0  0  0  0  0  0  0  0  0  0  0
   15.0666   -2.3304   18.3335 H   0  0  0  0  0  0  0  0  0  0  0  0
   15.9218   -2.1454   16.7900 H   0  0  0  0  0  0  0  0  0  0  0  0
   15.3830   -0.7313   17.7023 H   0  0  0  0  0  0  0  0  0  0  0  0
   12.9789   -1.4173   17.3160 H   0  0  0  0  0  0  0  0  0  0  0  0
   12.6156   -3.1448   15.6445 H   0  0  0  0  0  0  0  0  0  0  0  0
   13.1337   -5.4027   16.4730 H   0  0  0  0  0  0  0  0  0  0  0  0
   14.6674   -1.1536   14.7949 H   0  0  0  0  0  0  0  0  0  0  0  0
   11.6693   -1.0580   15.1695 H   0  0  0  0  0  0  0  0  0  0  0  0
   12.5728   -1.5927   13.7547 H   0  0  0  0  0  0  0  0  0  0  0  0
   11.3629    0.8262   13.8642 H   0  0  0  0  0  0  0  0  0  0  0  0
   13.3716    1.9534   12.8514 H   0  0  0  0  0  0  0  0  0  0  0  0
   15.1536    0.4943   13.1173 H   0  0  0  0  0  0  0  0  0  0  0  0
   14.1820   -0.8514   12.4415 H   0  0  0  0  0  0  0  0  0  0  0  0
   14.2238    1.4545   10.7756 H   0  0  0  0  0  0  0  0  0  0  0  0
   14.6193    1.6729    9.2065 H   0  0  0  0  0  0  0  0  0  0  0  0
   14.8156    1.7802    9.2804 H   0  0  0  0  0  0  0  0  0  0  0  0
   12.1414    1.4148   16.0081 H   0  0  0  0  0  0  0  0  0  0  0  0
   13.2233    2.3982   15.0141 H   0  0  0  0  0  0  0  0  0  0  0  0
   14.1728    0.7421   16.7505 H   0  0  0  0  0  0  0  0  0  0  0  0
  1  2  1  0
  2  3  1  0
  3  4  1  0
  2  5  1  0
  5  6  1  0
  6  7  1  0
  7  8  1  0
  8  9  1  0
  9 10  1  0
 10 11  1  0
 11 12  1  0
 11 13  2  0
  7 14  1  0
 14 15  1  0
 15  5  1  0
  1 16  1  0
  1 17  1  0
  1 18  1  0
  2 19  1  0
  3 20  1  0
  4 21  1  0
  5 22  1  0
  6 23  1  0
  6 24  1  0
  7 25  1  0
  8 26  1  0
  9 27  1  0
  9 28  1  0
 10 29  1  0
 12 30  1  0
 12 31  1  0
 14 32  1  0
 14 33  1  0
 15 34  1  0
M  END
>  <Energy>  (442) 
114.08086076604181

>  <compound_id>  (442) 
734

>  <target_id>  (442) 
1

>  <reference_id>  (442) 
63

>  <inspiration_ids>  (442) 
[63, 120]

>  <energy_score>  (442) 
132.79540240577404

>  <distance_score>  (442) 
3.3135792769315255

>  <path>  (442) 
/opt/xchem-fragalysis-2/maxwin/BulkDock/SCRATCH/505733/C734-P63/C734-P63.minimised.mol

>  <scratch_subdir>  (442) 
/opt/xchem-fragalysis-2/maxwin/BulkDock/SCRATCH/505733/C734-P63

>  <fragmenstein_runtime>  (442) 
3.6277260780334473

>  <fragmenstein_outcome>  (442) 
too moved

>  <fragmenstein_mode>  (442) 
expansion

>  <fragmenstein_error>  (442) 


$$$$
C734-P120
     RDKit          3D

 34 34  0  0  0  0  0  0  0  0999 V2000
   13.6890   -3.1561   17.1376 C   0  0  0  0  0  0  0  0  0  0  0  0
   13.2483   -1.8495   16.4593 C   0  0  0  0  0  0  0  0  0  0  0  0
   11.8332   -1.9079   16.0604 N   0  0  0  0  0  0  0  0  0  0  0  0
   11.2817   -2.9941   14.9438 S   0  0  0  0  0  0  0  0  0  0  0  0
   14.2194   -1.4440   15.3031 C   0  0  0  0  0  0  0  0  0  0  0  0
   13.7760   -0.2514   14.4500 C   0  0  0  0  0  0  0  0  0  0  0  0
   14.1235    0.9400   15.3346 C   0  0  0  0  0  0  0  0  0  0  0  0
   14.1337    2.2572   14.6957 N   0  0  0  0  0  0  0  0  0  0  0  0
   15.0713    2.3752   13.6050 C   0  0  0  0  0  0  0  0  0  0  0  0
   14.8671    3.7093   13.1643 N   0  0  0  0  0  0  0  0  0  0  0  0
   15.7942    4.6645   12.4900 C   0  0  0  0  0  0  0  0  0  0  0  0
   14.8687    5.8459   12.2655 N   0  0  0  0  0  0  0  0  0  0  0  0
   16.9322    4.5589   12.2380 O   0  0  0  0  0  0  0  0  0  0  0  0
   15.3969    0.4777   16.0683 C   0  0  0  0  0  0  0  0  0  0  0  0
   15.5212   -0.9619   15.8065 N   0  0  0  0  0  0  0  0  0  0  0  0
   12.9888   -3.4485   17.9264 H   0  0  0  0  0  0  0  0  0  0  0  0
   13.7542   -3.9792   16.4207 H   0  0  0  0  0  0  0  0  0  0  0  0
   14.6711   -3.0450   17.6075 H   0  0  0  0  0  0  0  0  0  0  0  0
   13.2969   -1.0753   17.2351 H   0  0  0  0  0  0  0  0  0  0  0  0
   11.5399   -0.9742   15.7703 H   0  0  0  0  0  0  0  0  0  0  0  0
   11.1053   -4.0742   15.7304 H   0  0  0  0  0  0  0  0  0  0  0  0
   14.3872   -2.3078   14.6517 H   0  0  0  0  0  0  0  0  0  0  0  0
   12.7234   -0.2587   14.1572 H   0  0  0  0  0  0  0  0  0  0  0  0
   14.3622   -0.2516   13.5228 H   0  0  0  0  0  0  0  0  0  0  0  0
   13.3313    1.0067   16.0937 H   0  0  0  0  0  0  0  0  0  0  0  0
   14.4191    2.9441   15.3940 H   0  0  0  0  0  0  0  0  0  0  0  0
   16.1195    2.2530   13.8894 H   0  0  0  0  0  0  0  0  0  0  0  0
   14.8372    1.7245   12.7592 H   0  0  0  0  0  0  0  0  0  0  0  0
   13.9477    4.0758   13.1473 H   0  0  0  0  0  0  0  0  0  0  0  0
   13.9626    5.6530   12.7050 H   0  0  0  0  0  0  0  0  0  0  0  0
   13.9080    5.5696   12.4916 H   0  0  0  0  0  0  0  0  0  0  0  0
   15.3059    0.6756   17.1425 H   0  0  0  0  0  0  0  0  0  0  0  0
   16.3025    0.9794   15.7171 H   0  0  0  0  0  0  0  0  0  0  0  0
   15.8381   -1.4668   16.6309 H   0  0  0  0  0  0  0  0  0  0  0  0
  1  2  1  0
  2  3  1  0
  3  4  1  0
  2  5  1  0
  5  6  1  0
  6  7  1  0
  7  8  1  0
  8  9  1  0
  9 10  1  0
 10 11  1  0
 11 12  1  0
 11 13  2  0
  7 14  1  0
 14 15  1  0
 15  5  1  0
  1 16  1  0
  1 17  1  0
  1 18  1  0
  2 19  1  0
  3 20  1  0
  4 21  1  0
  5 22  1  0
  6 23  1  0
  6 24  1  0
  7 25  1  0
  8 26  1  0
  9 27  1  0
  9 28  1  0
 10 29  1  0
 12 30  1  0
 12 31  1  0
 14 32  1  0
 14 33  1  0
 15 34  1  0
M  END
>  <Energy>  (443) 
107.82738250970941

>  <compound_id>  (443) 
734

>  <target_id>  (443) 
1

>  <reference_id>  (443) 
120

>  <inspiration_ids>  (443) 
[63, 120]

>  <energy_score>  (443) 
126.541924149441

>  <distance_score>  (443) 
2.996001681190987

>  <path>  (443) 
/opt/xchem-fragalysis-2/maxwin/BulkDock/SCRATCH/505733/C734-P120/C734-P120.minimised.mol

>  <scratch_subdir>  (443) 
/opt/xchem-fragalysis-2/maxwin/BulkDock/SCRATCH/505733/C734-P120

>  <fragmenstein_runtime>  (443) 
2.9873878955841064

>  <fragmenstein_outcome>  (443) 
too moved

>  <fragmenstein_mode>  (443) 
expansion

>  <fragmenstein_error>  (443) 


$$$$
C409-P63
     RDKit          3D

 44 47  0  0  0  0  0  0  0  0999 V2000
   16.5917    0.8977   16.4155 N   0  0  0  0  0  0  0  0  0  0  0  0
   16.5905   -0.2583   16.3473 C   0  0  0  0  0  0  0  0  0  0  0  0
   16.5119   -1.7171   16.2964 C   0  0  0  0  0  0  0  0  0  0  0  0
   17.7611   -2.4053   15.9685 N   0  0  0  0  0  0  0  0  0  0  0  0
   17.3201   -3.7621   15.7351 C   0  0  0  0  0  0  0  0  0  0  0  0
   15.9563   -3.6867   15.2290 N   0  0  0  0  0  0  0  0  0  0  0  0
   15.5114   -2.2770   15.2600 C   0  0  0  0  0  0  0  0  0  0  0  0
   14.0768   -2.1802   15.8930 C   0  0  0  0  0  0  0  0  0  0  0  0
   13.4106   -0.9146   15.3144 C   0  0  0  0  0  0  0  0  0  0  0  0
   12.6958   -0.0179   16.1987 N   0  0  0  0  0  0  0  0  0  0  0  0
   13.3470    0.3984   17.3518 C   0  0  0  0  0  0  0  0  0  0  0  0
   13.1769    1.6713   17.5967 N   0  0  0  0  0  0  0  0  0  0  0  0
   12.3543    2.1219   16.6074 C   0  0  0  0  0  0  0  0  0  0  0  0
   11.8966    3.4284   16.3893 C   0  0  0  0  0  0  0  0  0  0  0  0
   11.0694    3.6787   15.2976 C   0  0  0  0  0  0  0  0  0  0  0  0
   10.6778    2.6348   14.4641 C   0  0  0  0  0  0  0  0  0  0  0  0
   11.0781    1.3097   14.6949 C   0  0  0  0  0  0  0  0  0  0  0  0
   11.9592    1.0799   15.7609 C   0  0  0  0  0  0  0  0  0  0  0  0
   12.9137   -1.2967   13.9201 C   0  0  0  0  0  0  0  0  0  0  0  0
   14.1269   -1.7508   13.0743 C   0  0  0  0  0  0  0  0  0  0  0  0
   15.5009   -1.6013   13.8040 C   0  0  0  0  0  0  0  0  0  0  0  0
   16.6771   -1.9060   12.8631 C   0  0  0  0  0  0  0  0  0  0  0  0
   17.8892   -1.3884   13.4013 O   0  0  0  0  0  0  0  0  0  0  0  0
   16.2400   -2.0454   17.3116 H   0  0  0  0  0  0  0  0  0  0  0  0
   18.0984   -2.0396   15.0677 H   0  0  0  0  0  0  0  0  0  0  0  0
   17.3302   -4.3331   16.6699 H   0  0  0  0  0  0  0  0  0  0  0  0
   17.9828   -4.2746   15.0295 H   0  0  0  0  0  0  0  0  0  0  0  0
   15.9732   -4.0565   14.2772 H   0  0  0  0  0  0  0  0  0  0  0  0
   14.1132   -2.1873   16.9867 H   0  0  0  0  0  0  0  0  0  0  0  0
   13.4730   -3.0599   15.6374 H   0  0  0  0  0  0  0  0  0  0  0  0
   14.2076   -0.1947   15.1039 H   0  0  0  0  0  0  0  0  0  0  0  0
   13.9885   -0.2460   17.9374 H   0  0  0  0  0  0  0  0  0  0  0  0
   12.2061    4.2218   17.0619 H   0  0  0  0  0  0  0  0  0  0  0  0
   10.7365    4.6946   15.1015 H   0  0  0  0  0  0  0  0  0  0  0  0
   10.0536    2.8672   13.6090 H   0  0  0  0  0  0  0  0  0  0  0  0
   10.7277    0.5104   14.0505 H   0  0  0  0  0  0  0  0  0  0  0  0
   12.1468   -2.0782   13.9614 H   0  0  0  0  0  0  0  0  0  0  0  0
   12.4739   -0.4475   13.3965 H   0  0  0  0  0  0  0  0  0  0  0  0
   13.9818   -2.7624   12.6989 H   0  0  0  0  0  0  0  0  0  0  0  0
   14.1539   -1.1281   12.1694 H   0  0  0  0  0  0  0  0  0  0  0  0
   15.6360   -0.5216   13.9507 H   0  0  0  0  0  0  0  0  0  0  0  0
   16.8218   -2.9684   12.6949 H   0  0  0  0  0  0  0  0  0  0  0  0
   16.5250   -1.4437   11.8813 H   0  0  0  0  0  0  0  0  0  0  0  0
   17.9173   -0.4320   13.2043 H   0  0  0  0  0  0  0  0  0  0  0  0
  1  2  3  0
  2  3  1  0
  3  4  1  0
  4  5  1  0
  5  6  1  0
  6  7  1  0
  7  8  1  0
  8  9  1  0
  9 10  1  0
 10 11  1  0
 11 12  2  0
 12 13  1  0
 13 14  2  0
 14 15  1  0
 15 16  2  0
 16 17  1  0
 17 18  2  0
  9 19  1  0
 19 20  1  0
 20 21  1  0
 21 22  1  0
 22 23  1  0
  7  3  1  0
 18 10  1  0
 21  7  1  0
 18 13  1  0
  3 24  1  0
  4 25  1  0
  5 26  1  0
  5 27  1  0
  6 28  1  0
  8 29  1  0
  8 30  1  0
  9 31  1  0
 11 32  1  0
 14 33  1  0
 15 34  1  0
 16 35  1  0
 17 36  1  0
 19 37  1  0
 19 38  1  0
 20 39  1  0
 20 40  1  0
 21 41  1  0
 22 42  1  0
 22 43  1  0
 23 44  1  0
M  END
>  <Energy>  (444) 
85.465977107111058

>  <compound_id>  (444) 
409

>  <target_id>  (444) 
1

>  <reference_id>  (444) 
63

>  <inspiration_ids>  (444) 
[63, 124]

>  <energy_score>  (444) 
-17.882748616605795

>  <distance_score>  (444) 
2.20324439629287

>  <path>  (444) 
/opt/xchem-fragalysis-2/maxwin/BulkDock/SCRATCH/505733/C409-P63/C409-P63.minimised.mol

>  <scratch_subdir>  (444) 
/opt/xchem-fragalysis-2/maxwin/BulkDock/SCRATCH/505733/C409-P63

>  <fragmenstein_runtime>  (444) 
8.010431289672852

>  <fragmenstein_outcome>  (444) 
too moved

>  <fragmenstein_mode>  (444) 
expansion

>  <fragmenstein_error>  (444) 


$$$$
C409-P124
     RDKit          3D

 44 47  0  0  0  0  0  0  0  0999 V2000
   17.3390    0.6483   16.7114 N   0  0  0  0  0  0  0  0  0  0  0  0
   17.0264   -0.4665   16.7143 C   0  0  0  0  0  0  0  0  0  0  0  0
   16.5096   -1.8287   16.7457 C   0  0  0  0  0  0  0  0  0  0  0  0
   17.4812   -2.9021   16.9161 N   0  0  0  0  0  0  0  0  0  0  0  0
   16.6874   -4.0783   16.6344 C   0  0  0  0  0  0  0  0  0  0  0  0
   15.5653   -3.6679   15.7848 N   0  0  0  0  0  0  0  0  0  0  0  0
   15.7281   -2.2307   15.4820 C   0  0  0  0  0  0  0  0  0  0  0  0
   14.3702   -1.4440   15.5351 C   0  0  0  0  0  0  0  0  0  0  0  0
   14.4131   -0.3000   14.4907 C   0  0  0  0  0  0  0  0  0  0  0  0
   13.7879    0.9810   14.7575 N   0  0  0  0  0  0  0  0  0  0  0  0
   14.2369    1.7829   15.7936 C   0  0  0  0  0  0  0  0  0  0  0  0
   13.8603    3.0314   15.6851 N   0  0  0  0  0  0  0  0  0  0  0  0
   13.2243    3.0947   14.4800 C   0  0  0  0  0  0  0  0  0  0  0  0
   12.6942    4.2259   13.8374 C   0  0  0  0  0  0  0  0  0  0  0  0
   12.1326    4.0871   12.5677 C   0  0  0  0  0  0  0  0  0  0  0  0
   12.0791    2.8363   11.9633 C   0  0  0  0  0  0  0  0  0  0  0  0
   12.5633    1.6926   12.6081 C   0  0  0  0  0  0  0  0  0  0  0  0
   13.1598    1.8364   13.8675 C   0  0  0  0  0  0  0  0  0  0  0  0
   14.2305   -0.9818   13.1374 C   0  0  0  0  0  0  0  0  0  0  0  0
   15.3501   -2.0083   12.9236 C   0  0  0  0  0  0  0  0  0  0  0  0
   16.4067   -2.0243   14.0636 C   0  0  0  0  0  0  0  0  0  0  0  0
   17.6123   -2.9098   13.7014 C   0  0  0  0  0  0  0  0  0  0  0  0
   18.7377   -2.5413   14.4961 O   0  0  0  0  0  0  0  0  0  0  0  0
   15.8547   -1.8761   17.6315 H   0  0  0  0  0  0  0  0  0  0  0  0
   18.1891   -2.8215   16.1733 H   0  0  0  0  0  0  0  0  0  0  0  0
   16.2950   -4.4940   17.5683 H   0  0  0  0  0  0  0  0  0  0  0  0
   17.2917   -4.8573   16.1572 H   0  0  0  0  0  0  0  0  0  0  0  0
   15.6287   -4.2301   14.9390 H   0  0  0  0  0  0  0  0  0  0  0  0
   14.2261   -1.0377   16.5340 H   0  0  0  0  0  0  0  0  0  0  0  0
   13.5173   -2.1064   15.3388 H   0  0  0  0  0  0  0  0  0  0  0  0
   15.4375    0.0867   14.4744 H   0  0  0  0  0  0  0  0  0  0  0  0
   14.8429    1.4029   16.6030 H   0  0  0  0  0  0  0  0  0  0  0  0
   12.7572    5.1941   14.3217 H   0  0  0  0  0  0  0  0  0  0  0  0
   11.7530    4.9638   12.0500 H   0  0  0  0  0  0  0  0  0  0  0  0
   11.6721    2.7411   10.9628 H   0  0  0  0  0  0  0  0  0  0  0  0
   12.4782    0.7360   12.1210 H   0  0  0  0  0  0  0  0  0  0  0  0
   13.2451   -1.4526   13.0516 H   0  0  0  0  0  0  0  0  0  0  0  0
   14.3223   -0.2601   12.3209 H   0  0  0  0  0  0  0  0  0  0  0  0
   14.9262   -2.9890   12.7410 H   0  0  0  0  0  0  0  0  0  0  0  0
   15.8613   -1.7561   11.9842 H   0  0  0  0  0  0  0  0  0  0  0  0
   16.8742   -1.0309   14.0688 H   0  0  0  0  0  0  0  0  0  0  0  0
   17.4309   -3.9686   13.8726 H   0  0  0  0  0  0  0  0  0  0  0  0
   17.8943   -2.7899   12.6496 H   0  0  0  0  0  0  0  0  0  0  0  0
   19.1723   -1.7842   14.0592 H   0  0  0  0  0  0  0  0  0  0  0  0
  1  2  3  0
  2  3  1  0
  3  4  1  0
  4  5  1  0
  5  6  1  0
  6  7  1  0
  7  8  1  0
  8  9  1  0
  9 10  1  0
 10 11  1  0
 11 12  2  0
 12 13  1  0
 13 14  2  0
 14 15  1  0
 15 16  2  0
 16 17  1  0
 17 18  2  0
  9 19  1  0
 19 20  1  0
 20 21  1  0
 21 22  1  0
 22 23  1  0
  7  3  1  0
 18 10  1  0
 21  7  1  0
 18 13  1  0
  3 24  1  0
  4 25  1  0
  5 26  1  0
  5 27  1  0
  6 28  1  0
  8 29  1  0
  8 30  1  0
  9 31  1  0
 11 32  1  0
 14 33  1  0
 15 34  1  0
 16 35  1  0
 17 36  1  0
 19 37  1  0
 19 38  1  0
 20 39  1  0
 20 40  1  0
 21 41  1  0
 22 42  1  0
 22 43  1  0
 23 44  1  0
M  END
>  <Energy>  (445) 
75.144777819886329

>  <compound_id>  (445) 
409

>  <target_id>  (445) 
1

>  <reference_id>  (445) 
124

>  <inspiration_ids>  (445) 
[63, 124]

>  <energy_score>  (445) 
-28.203947903828862

>  <distance_score>  (445) 
3.0464962139732172

>  <path>  (445) 
/opt/xchem-fragalysis-2/maxwin/BulkDock/SCRATCH/505733/C409-P124/C409-P124.minimised.mol

>  <scratch_subdir>  (445) 
/opt/xchem-fragalysis-2/maxwin/BulkDock/SCRATCH/505733/C409-P124

>  <fragmenstein_runtime>  (445) 
7.95412278175354

>  <fragmenstein_outcome>  (445) 
too moved

>  <fragmenstein_mode>  (445) 
expansion

>  <fragmenstein_error>  (445) 


$$$$
C738-P64
     RDKit          3D

 25 26  0  0  0  0  0  0  0  0999 V2000
  -13.4118  -21.8393   32.6188 C   0  0  0  0  0  0  0  0  0  0  0  0
  -12.2211  -22.7242   32.4562 C   0  0  0  0  0  0  0  0  0  0  0  0
  -11.9888  -23.5632   33.5331 C   0  0  0  0  0  0  0  0  0  0  0  0
  -11.0925  -24.6121   33.4402 C   0  0  0  0  0  0  0  0  0  0  0  0
  -10.3853  -24.8789   32.3510 N   0  0  0  0  0  0  0  0  0  0  0  0
  -10.7034  -24.1293   31.2911 C   0  0  0  0  0  0  0  0  0  0  0  0
  -10.3562  -24.7755   30.0717 C   0  0  0  0  0  0  0  0  0  0  0  0
  -10.4325  -25.1346   28.9350 C   0  0  0  0  0  0  0  0  0  0  0  0
  -10.9480  -25.2853   27.6376 C   0  0  0  0  0  0  0  0  0  0  0  0
  -11.5476  -24.3307   26.8526 C   0  0  0  0  0  0  0  0  0  0  0  0
  -12.0432  -24.8946   25.7090 N   0  0  0  0  0  0  0  0  0  0  0  0
  -11.7653  -26.1742   25.8073 C   0  0  0  0  0  0  0  0  0  0  0  0
  -11.1150  -26.4574   26.9705 N   0  0  0  0  0  0  0  0  0  0  0  0
  -11.5021  -22.9500   31.2884 C   0  0  0  0  0  0  0  0  0  0  0  0
  -11.7663  -22.1851   30.1258 N   0  0  0  0  0  0  0  0  0  0  0  0
  -13.8649  -21.5832   31.6634 H   0  0  0  0  0  0  0  0  0  0  0  0
  -14.2083  -22.3599   33.1667 H   0  0  0  0  0  0  0  0  0  0  0  0
  -13.1388  -20.9632   33.2058 H   0  0  0  0  0  0  0  0  0  0  0  0
  -12.5652  -23.4235   34.4317 H   0  0  0  0  0  0  0  0  0  0  0  0
  -10.9497  -25.2987   34.2675 H   0  0  0  0  0  0  0  0  0  0  0  0
  -11.6747  -23.2749   27.0528 H   0  0  0  0  0  0  0  0  0  0  0  0
  -12.0093  -26.9329   25.0764 H   0  0  0  0  0  0  0  0  0  0  0  0
  -10.8494  -27.3688   27.3024 H   0  0  0  0  0  0  0  0  0  0  0  0
  -11.7592  -21.1977   30.3437 H   0  0  0  0  0  0  0  0  0  0  0  0
  -11.1491  -22.3957   29.3484 H   0  0  0  0  0  0  0  0  0  0  0  0
  1  2  1  0
  2  3  2  0
  3  4  1  0
  4  5  2  0
  5  6  1  0
  6  7  1  0
  7  8  3  0
  8  9  1  0
  9 10  2  0
 10 11  1  0
 11 12  2  0
 12 13  1  0
  6 14  2  0
 14 15  1  0
 14  2  1  0
 13  9  1  0
  1 16  1  0
  1 17  1  0
  1 18  1  0
  3 19  1  0
  4 20  1  0
 10 21  1  0
 12 22  1  0
 13 23  1  0
 15 24  1  0
 15 25  1  0
M  END
>  <Energy>  (446) 
67.094690615002122

>  <compound_id>  (446) 
738

>  <target_id>  (446) 
1

>  <reference_id>  (446) 
64

>  <inspiration_ids>  (446) 
[64, 3]

>  <energy_score>  (446) 
-5.077046206880539

>  <distance_score>  (446) 
1.7313479237037868

>  <path>  (446) 
/opt/xchem-fragalysis-2/maxwin/BulkDock/SCRATCH/505733/C738-P64/C738-P64.minimised.mol

>  <scratch_subdir>  (446) 
/opt/xchem-fragalysis-2/maxwin/BulkDock/SCRATCH/505733/C738-P64

>  <fragmenstein_runtime>  (446) 
1.5554392337799072

>  <fragmenstein_outcome>  (446) 
too moved

>  <fragmenstein_mode>  (446) 
expansion

>  <fragmenstein_error>  (446) 


$$$$
C738-P3
     RDKit          3D

 25 26  0  0  0  0  0  0  0  0999 V2000
  -11.3133  -19.5054   31.5509 C   0  0  0  0  0  0  0  0  0  0  0  0
  -10.6920  -20.8518   31.7673 C   0  0  0  0  0  0  0  0  0  0  0  0
  -10.1198  -21.1142   33.0094 C   0  0  0  0  0  0  0  0  0  0  0  0
   -9.5275  -22.3377   33.2484 C   0  0  0  0  0  0  0  0  0  0  0  0
   -9.5834  -23.3727   32.3922 N   0  0  0  0  0  0  0  0  0  0  0  0
  -10.2194  -23.1295   31.2349 C   0  0  0  0  0  0  0  0  0  0  0  0
  -10.6088  -24.3024   30.5120 C   0  0  0  0  0  0  0  0  0  0  0  0
  -11.1321  -25.0197   29.7049 C   0  0  0  0  0  0  0  0  0  0  0  0
  -11.7388  -25.4919   28.5172 C   0  0  0  0  0  0  0  0  0  0  0  0
  -12.0116  -24.7652   27.3778 C   0  0  0  0  0  0  0  0  0  0  0  0
  -12.5930  -25.5541   26.4219 N   0  0  0  0  0  0  0  0  0  0  0  0
  -12.6981  -26.7362   26.9824 C   0  0  0  0  0  0  0  0  0  0  0  0
  -12.1582  -26.7583   28.2397 N   0  0  0  0  0  0  0  0  0  0  0  0
  -10.7020  -21.8702   30.8108 C   0  0  0  0  0  0  0  0  0  0  0  0
  -11.4001  -21.7096   29.5897 N   0  0  0  0  0  0  0  0  0  0  0  0
  -11.1605  -19.1547   30.5274 H   0  0  0  0  0  0  0  0  0  0  0  0
  -12.3786  -19.5430   31.7758 H   0  0  0  0  0  0  0  0  0  0  0  0
  -10.8603  -18.7497   32.1995 H   0  0  0  0  0  0  0  0  0  0  0  0
  -10.1703  -20.3719   33.7888 H   0  0  0  0  0  0  0  0  0  0  0  0
   -9.0375  -22.5318   34.1927 H   0  0  0  0  0  0  0  0  0  0  0  0
  -11.8170  -23.7176   27.1887 H   0  0  0  0  0  0  0  0  0  0  0  0
  -13.1515  -27.6125   26.5381 H   0  0  0  0  0  0  0  0  0  0  0  0
  -12.1260  -27.5567   28.8587 H   0  0  0  0  0  0  0  0  0  0  0  0
  -11.4893  -20.7369   29.2984 H   0  0  0  0  0  0  0  0  0  0  0  0
  -10.9879  -22.2670   28.8458 H   0  0  0  0  0  0  0  0  0  0  0  0
  1  2  1  0
  2  3  2  0
  3  4  1  0
  4  5  2  0
  5  6  1  0
  6  7  1  0
  7  8  3  0
  8  9  1  0
  9 10  2  0
 10 11  1  0
 11 12  2  0
 12 13  1  0
  6 14  2  0
 14 15  1  0
 14  2  1  0
 13  9  1  0
  1 16  1  0
  1 17  1  0
  1 18  1  0
  3 19  1  0
  4 20  1  0
 10 21  1  0
 12 22  1  0
 13 23  1  0
 15 24  1  0
 15 25  1  0
M  END
>  <Energy>  (447) 
59.575157237086984

>  <compound_id>  (447) 
738

>  <target_id>  (447) 
1

>  <reference_id>  (447) 
3

>  <inspiration_ids>  (447) 
[64, 3]

>  <energy_score>  (447) 
-12.596579584794654

>  <distance_score>  (447) 
1.1215251028235111

>  <path>  (447) 
/opt/xchem-fragalysis-2/maxwin/BulkDock/SCRATCH/505733/C738-P3/C738-P3.minimised.mol

>  <scratch_subdir>  (447) 
/opt/xchem-fragalysis-2/maxwin/BulkDock/SCRATCH/505733/C738-P3

>  <fragmenstein_runtime>  (447) 
1.165414571762085

>  <fragmenstein_outcome>  (447) 
too moved

>  <fragmenstein_mode>  (447) 
expansion

>  <fragmenstein_error>  (447) 


$$$$
C739-P64
     RDKit          3D

 32 34  0  0  0  0  0  0  0  0999 V2000
  -11.0833  -25.5439   34.0543 N   0  0  0  0  0  0  0  0  0  0  0  0
  -10.9676  -24.7986   33.1692 C   0  0  0  0  0  0  0  0  0  0  0  0
  -10.7904  -23.8557   32.0307 C   0  0  0  0  0  0  0  0  0  0  0  0
  -11.9020  -22.8745   32.1341 N   0  0  0  0  0  0  0  0  0  0  0  0
  -12.0073  -22.3542   30.8036 C   0  0  0  0  0  0  0  0  0  0  0  0
  -11.6046  -23.3798   29.8741 N   0  0  0  0  0  0  0  0  0  0  0  0
  -12.7139  -23.7752   29.0544 O   0  0  0  0  0  0  0  0  0  0  0  0
  -10.8978  -24.4771   30.5796 C   0  0  0  0  0  0  0  0  0  0  0  0
  -10.2503  -25.8799   30.6429 C   0  0  0  0  0  0  0  0  0  0  0  0
  -10.5834  -26.7146   29.4647 N   0  0  0  0  0  0  0  0  0  0  0  0
  -10.0945  -26.0594   28.2837 C   0  0  0  0  0  0  0  0  0  0  0  0
  -11.1468  -25.8761   27.2065 C   0  0  0  0  0  0  0  0  0  0  0  0
  -12.1742  -26.7880   27.0181 C   0  0  0  0  0  0  0  0  0  0  0  0
  -13.3281  -26.4143   26.3282 C   0  0  0  0  0  0  0  0  0  0  0  0
  -13.4249  -25.1721   25.7219 C   0  0  0  0  0  0  0  0  0  0  0  0
  -12.3331  -24.3293   25.7379 C   0  0  0  0  0  0  0  0  0  0  0  0
  -11.1960  -24.7087   26.4319 C   0  0  0  0  0  0  0  0  0  0  0  0
   -9.6709  -24.4790   28.9256 S   0  0  0  0  0  0  0  0  0  0  0  0
   -9.8455  -23.3488   32.1863 H   0  0  0  0  0  0  0  0  0  0  0  0
  -12.7554  -23.4544   32.2395 H   0  0  0  0  0  0  0  0  0  0  0  0
  -13.0298  -22.0231   30.6518 H   0  0  0  0  0  0  0  0  0  0  0  0
  -11.3526  -21.4851   30.6894 H   0  0  0  0  0  0  0  0  0  0  0  0
  -12.3688  -23.5664   28.1650 H   0  0  0  0  0  0  0  0  0  0  0  0
  -10.5716  -26.4025   31.5266 H   0  0  0  0  0  0  0  0  0  0  0  0
   -9.1740  -25.8451   30.8699 H   0  0  0  0  0  0  0  0  0  0  0  0
  -11.5729  -26.5071   29.4063 H   0  0  0  0  0  0  0  0  0  0  0  0
   -9.2258  -26.5714   27.8698 H   0  0  0  0  0  0  0  0  0  0  0  0
  -12.1342  -27.7611   27.4974 H   0  0  0  0  0  0  0  0  0  0  0  0
  -14.1763  -27.0906   26.2901 H   0  0  0  0  0  0  0  0  0  0  0  0
  -14.3333  -24.8840   25.2024 H   0  0  0  0  0  0  0  0  0  0  0  0
  -12.3685  -23.3728   25.2221 H   0  0  0  0  0  0  0  0  0  0  0  0
  -10.3707  -24.0122   26.4476 H   0  0  0  0  0  0  0  0  0  0  0  0
  1  2  3  0
  2  3  1  0
  3  4  1  0
  4  5  1  0
  5  6  1  0
  6  7  1  0
  6  8  1  0
  8  9  1  0
  9 10  1  0
 10 11  1  0
 11 12  1  0
 12 13  2  0
 13 14  1  0
 14 15  2  0
 15 16  1  0
 16 17  2  0
 11 18  1  0
  8  3  1  0
 17 12  1  0
 18  8  1  0
  3 19  1  0
  4 20  1  0
  5 21  1  0
  5 22  1  0
  7 23  1  0
  9 24  1  0
  9 25  1  0
 10 26  1  0
 11 27  1  0
 13 28  1  0
 14 29  1  0
 15 30  1  0
 16 31  1  0
 17 32  1  0
M  END
>  <Energy>  (448) 
178.78016084130843

>  <compound_id>  (448) 
739

>  <target_id>  (448) 
1

>  <reference_id>  (448) 
64

>  <inspiration_ids>  (448) 
[64, 16]

>  <energy_score>  (448) 
62.63312520279078

>  <distance_score>  (448) 
2.1344932905109366

>  <path>  (448) 
/opt/xchem-fragalysis-2/maxwin/BulkDock/SCRATCH/505733/C739-P64/C739-P64.minimised.mol

>  <scratch_subdir>  (448) 
/opt/xchem-fragalysis-2/maxwin/BulkDock/SCRATCH/505733/C739-P64

>  <fragmenstein_runtime>  (448) 
2.7326414585113525

>  <fragmenstein_outcome>  (448) 
too moved

>  <fragmenstein_mode>  (448) 
expansion

>  <fragmenstein_error>  (448) 


$$$$
C739-P16
     RDKit          3D

 32 34  0  0  0  0  0  0  0  0999 V2000
  -10.9068  -25.8546   34.3360 N   0  0  0  0  0  0  0  0  0  0  0  0
  -11.3860  -24.9765   33.7478 C   0  0  0  0  0  0  0  0  0  0  0  0
  -11.7022  -23.8343   32.9034 C   0  0  0  0  0  0  0  0  0  0  0  0
  -13.0509  -23.2424   33.0082 N   0  0  0  0  0  0  0  0  0  0  0  0
  -13.2699  -22.6440   31.6920 C   0  0  0  0  0  0  0  0  0  0  0  0
  -12.0564  -22.8367   30.8498 N   0  0  0  0  0  0  0  0  0  0  0  0
  -11.1913  -21.7226   31.2118 O   0  0  0  0  0  0  0  0  0  0  0  0
  -11.4853  -24.1013   31.4157 C   0  0  0  0  0  0  0  0  0  0  0  0
  -12.3192  -25.2171   30.8193 C   0  0  0  0  0  0  0  0  0  0  0  0
  -11.5763  -26.4510   30.4484 N   0  0  0  0  0  0  0  0  0  0  0  0
  -10.4593  -25.9070   29.7086 C   0  0  0  0  0  0  0  0  0  0  0  0
  -10.9600  -25.4238   28.3570 C   0  0  0  0  0  0  0  0  0  0  0  0
  -11.5933  -26.3536   27.5041 C   0  0  0  0  0  0  0  0  0  0  0  0
  -12.3149  -25.9450   26.3837 C   0  0  0  0  0  0  0  0  0  0  0  0
  -12.4364  -24.5929   26.1053 C   0  0  0  0  0  0  0  0  0  0  0  0
  -11.7948  -23.6657   26.9113 C   0  0  0  0  0  0  0  0  0  0  0  0
  -11.0257  -24.0783   27.9949 C   0  0  0  0  0  0  0  0  0  0  0  0
   -9.8778  -24.7533   30.9411 S   0  0  0  0  0  0  0  0  0  0  0  0
  -11.0089  -23.0480   33.1962 H   0  0  0  0  0  0  0  0  0  0  0  0
  -13.7466  -23.9817   33.1428 H   0  0  0  0  0  0  0  0  0  0  0  0
  -14.1230  -23.1112   31.1929 H   0  0  0  0  0  0  0  0  0  0  0  0
  -13.5262  -21.5929   31.8156 H   0  0  0  0  0  0  0  0  0  0  0  0
  -11.0802  -21.2786   30.3507 H   0  0  0  0  0  0  0  0  0  0  0  0
  -13.0366  -25.4146   31.5756 H   0  0  0  0  0  0  0  0  0  0  0  0
  -12.8871  -24.8806   29.9425 H   0  0  0  0  0  0  0  0  0  0  0  0
  -11.1319  -26.8275   31.2950 H   0  0  0  0  0  0  0  0  0  0  0  0
   -9.6900  -26.6541   29.5393 H   0  0  0  0  0  0  0  0  0  0  0  0
  -11.6187  -27.4072   27.7684 H   0  0  0  0  0  0  0  0  0  0  0  0
  -12.8387  -26.6757   25.7738 H   0  0  0  0  0  0  0  0  0  0  0  0
  -13.0500  -24.2495   25.2778 H   0  0  0  0  0  0  0  0  0  0  0  0
  -11.9148  -22.6056   26.7058 H   0  0  0  0  0  0  0  0  0  0  0  0
  -10.5663  -23.3045   28.5934 H   0  0  0  0  0  0  0  0  0  0  0  0
  1  2  3  0
  2  3  1  0
  3  4  1  0
  4  5  1  0
  5  6  1  0
  6  7  1  0
  6  8  1  0
  8  9  1  0
  9 10  1  0
 10 11  1  0
 11 12  1  0
 12 13  2  0
 13 14  1  0
 14 15  2  0
 15 16  1  0
 16 17  2  0
 11 18  1  0
  8  3  1  0
 17 12  1  0
 18  8  1  0
  3 19  1  0
  4 20  1  0
  5 21  1  0
  5 22  1  0
  7 23  1  0
  9 24  1  0
  9 25  1  0
 10 26  1  0
 11 27  1  0
 13 28  1  0
 14 29  1  0
 15 30  1  0
 16 31  1  0
 17 32  1  0
M  END
>  <Energy>  (449) 
109.35493780470857

>  <compound_id>  (449) 
739

>  <target_id>  (449) 
1

>  <reference_id>  (449) 
16

>  <inspiration_ids>  (449) 
[64, 16]

>  <energy_score>  (449) 
-6.7920978338077305

>  <distance_score>  (449) 
1.2346844136202713

>  <path>  (449) 
/opt/xchem-fragalysis-2/maxwin/BulkDock/SCRATCH/505733/C739-P16/C739-P16.minimised.mol

>  <scratch_subdir>  (449) 
/opt/xchem-fragalysis-2/maxwin/BulkDock/SCRATCH/505733/C739-P16

>  <fragmenstein_runtime>  (449) 
2.0733554363250732

>  <fragmenstein_outcome>  (449) 
too moved

>  <fragmenstein_mode>  (449) 
expansion

>  <fragmenstein_error>  (449) 


$$$$
C740-P64
     RDKit          3D

 33 35  0  0  0  0  0  0  0  0999 V2000
  -11.6459  -23.5633   25.4988 C   0  0  0  0  0  0  0  0  0  0  0  0
  -11.4647  -22.4994   26.7838 C   0  0  0  0  0  0  0  0  0  0  0  0
  -11.6528  -22.2798   28.2366 N   0  0  0  0  0  0  0  0  0  0  0  0
  -11.6141  -21.3272   29.1901 C   0  0  0  0  0  0  0  0  0  0  0  0
  -11.3927  -21.8096   30.3913 N   0  0  0  0  0  0  0  0  0  0  0  0
  -11.6656  -23.1022   30.1650 C   0  0  0  0  0  0  0  0  0  0  0  0
  -12.2533  -23.2278   28.9376 C   0  0  0  0  0  0  0  0  0  0  0  0
  -12.7576  -24.3392   28.2220 C   0  0  0  0  0  0  0  0  0  0  0  0
  -11.6516  -25.3244   28.2462 C   0  0  0  0  0  0  0  0  0  0  0  0
  -10.7174  -25.2144   29.5461 C   0  0  0  0  0  0  0  0  0  0  0  0
   -9.3828  -24.9368   28.9279 C   0  0  0  0  0  0  0  0  0  0  0  0
   -9.1093  -26.1591   28.2039 N   0  0  0  0  0  0  0  0  0  0  0  0
   -9.7721  -27.1469   29.0033 C   0  0  0  0  0  0  0  0  0  0  0  0
  -10.4023  -26.5031   30.0901 N   0  0  0  0  0  0  0  0  0  0  0  0
  -10.9986  -24.2547   30.7499 C   0  0  0  0  0  0  0  0  0  0  0  0
  -11.9388  -22.9807   24.6148 H   0  0  0  0  0  0  0  0  0  0  0  0
  -10.7079  -24.0791   25.2644 H   0  0  0  0  0  0  0  0  0  0  0  0
  -12.3891  -24.3557   25.5950 H   0  0  0  0  0  0  0  0  0  0  0  0
  -10.6304  -23.1406   27.0652 H   0  0  0  0  0  0  0  0  0  0  0  0
  -12.4984  -22.7369   26.7708 H   0  0  0  0  0  0  0  0  0  0  0  0
  -11.9447  -20.3335   29.0486 H   0  0  0  0  0  0  0  0  0  0  0  0
  -13.7014  -24.3830   28.6964 H   0  0  0  0  0  0  0  0  0  0  0  0
  -13.1748  -24.3314   27.2266 H   0  0  0  0  0  0  0  0  0  0  0  0
  -11.9885  -26.3291   27.9677 H   0  0  0  0  0  0  0  0  0  0  0  0
  -11.0692  -25.1122   27.3478 H   0  0  0  0  0  0  0  0  0  0  0  0
   -8.6688  -24.8628   29.7325 H   0  0  0  0  0  0  0  0  0  0  0  0
   -9.3292  -24.0567   28.2928 H   0  0  0  0  0  0  0  0  0  0  0  0
   -9.5099  -26.1865   27.2759 H   0  0  0  0  0  0  0  0  0  0  0  0
  -10.5531  -27.6146   28.4116 H   0  0  0  0  0  0  0  0  0  0  0  0
   -9.0672  -27.8251   29.4445 H   0  0  0  0  0  0  0  0  0  0  0  0
   -9.7475  -26.4244   30.8739 H   0  0  0  0  0  0  0  0  0  0  0  0
  -10.0715  -23.9944   31.2670 H   0  0  0  0  0  0  0  0  0  0  0  0
  -11.5558  -24.6732   31.5775 H   0  0  0  0  0  0  0  0  0  0  0  0
  1  2  1  0
  2  3  1  0
  3  4  1  0
  4  5  2  0
  5  6  1  0
  6  7  2  0
  7  8  1  0
  8  9  1  0
  9 10  1  0
 10 11  1  0
 11 12  1  0
 12 13  1  0
 13 14  1  0
 10 15  1  0
  7  3  1  0
 14 10  1  0
 15  6  1  0
  1 16  1  0
  1 17  1  0
  1 18  1  0
  2 19  1  0
  2 20  1  0
  4 21  1  0
  8 22  1  0
  8 23  1  0
  9 24  1  0
  9 25  1  0
 11 26  1  0
 11 27  1  0
 12 28  1  0
 13 29  1  0
 13 30  1  0
 14 31  1  0
 15 32  1  0
 15 33  1  0
M  END
>  <Energy>  (450) 
203.87345861285954

>  <compound_id>  (450) 
740

>  <target_id>  (450) 
1

>  <reference_id>  (450) 
64

>  <inspiration_ids>  (450) 
[64, 32]

>  <energy_score>  (450) 
179.93323408139864

>  <distance_score>  (450) 
2.3434530880322857

>  <path>  (450) 
/opt/xchem-fragalysis-2/maxwin/BulkDock/SCRATCH/505733/C740-P64/C740-P64.minimised.mol

>  <scratch_subdir>  (450) 
/opt/xchem-fragalysis-2/maxwin/BulkDock/SCRATCH/505733/C740-P64

>  <fragmenstein_runtime>  (450) 
3.344399929046631

>  <fragmenstein_outcome>  (450) 
too moved

>  <fragmenstein_mode>  (450) 
expansion

>  <fragmenstein_error>  (450) 


$$$$
C740-P32
     RDKit          3D

 33 35  0  0  0  0  0  0  0  0999 V2000
  -11.7688  -23.1371   26.0306 C   0  0  0  0  0  0  0  0  0  0  0  0
  -11.2724  -21.9931   26.8992 C   0  0  0  0  0  0  0  0  0  0  0  0
  -11.7545  -21.7113   28.2187 N   0  0  0  0  0  0  0  0  0  0  0  0
  -11.2495  -20.6788   28.9724 C   0  0  0  0  0  0  0  0  0  0  0  0
  -11.3482  -20.9049   30.2500 N   0  0  0  0  0  0  0  0  0  0  0  0
  -11.7292  -22.1975   30.2557 C   0  0  0  0  0  0  0  0  0  0  0  0
  -12.3410  -22.5857   29.0752 C   0  0  0  0  0  0  0  0  0  0  0  0
  -12.9045  -23.9264   28.7450 C   0  0  0  0  0  0  0  0  0  0  0  0
  -12.0060  -25.0115   29.3189 C   0  0  0  0  0  0  0  0  0  0  0  0
  -10.7858  -24.4311   30.0904 C   0  0  0  0  0  0  0  0  0  0  0  0
   -9.6727  -24.1574   29.0510 C   0  0  0  0  0  0  0  0  0  0  0  0
   -8.6398  -25.0640   29.4839 N   0  0  0  0  0  0  0  0  0  0  0  0
   -8.8384  -25.1408   30.9219 C   0  0  0  0  0  0  0  0  0  0  0  0
  -10.2415  -25.4670   30.9638 N   0  0  0  0  0  0  0  0  0  0  0  0
  -10.9594  -23.1809   31.0176 C   0  0  0  0  0  0  0  0  0  0  0  0
  -11.2957  -23.0098   25.0532 H   0  0  0  0  0  0  0  0  0  0  0  0
  -11.4670  -24.1189   26.4000 H   0  0  0  0  0  0  0  0  0  0  0  0
  -12.8504  -23.1002   25.8767 H   0  0  0  0  0  0  0  0  0  0  0  0
  -11.4016  -21.0589   26.3574 H   0  0  0  0  0  0  0  0  0  0  0  0
  -10.2110  -22.1924   27.0626 H   0  0  0  0  0  0  0  0  0  0  0  0
  -10.7244  -19.8558   28.5420 H   0  0  0  0  0  0  0  0  0  0  0  0
  -13.9113  -24.0130   29.1700 H   0  0  0  0  0  0  0  0  0  0  0  0
  -13.0963  -24.1164   27.6954 H   0  0  0  0  0  0  0  0  0  0  0  0
  -12.5991  -25.6944   29.9376 H   0  0  0  0  0  0  0  0  0  0  0  0
  -11.6649  -25.6642   28.5021 H   0  0  0  0  0  0  0  0  0  0  0  0
   -9.2923  -23.1310   29.0814 H   0  0  0  0  0  0  0  0  0  0  0  0
   -9.9352  -24.4021   28.0206 H   0  0  0  0  0  0  0  0  0  0  0  0
   -7.7313  -24.6935   29.2391 H   0  0  0  0  0  0  0  0  0  0  0  0
   -8.2749  -25.9071   31.4366 H   0  0  0  0  0  0  0  0  0  0  0  0
   -8.5763  -24.2075   31.4344 H   0  0  0  0  0  0  0  0  0  0  0  0
  -10.3069  -26.3433   30.4624 H   0  0  0  0  0  0  0  0  0  0  0  0
   -9.9848  -22.7274   31.2419 H   0  0  0  0  0  0  0  0  0  0  0  0
  -11.3551  -23.3866   32.0086 H   0  0  0  0  0  0  0  0  0  0  0  0
  1  2  1  0
  2  3  1  0
  3  4  1  0
  4  5  2  0
  5  6  1  0
  6  7  2  0
  7  8  1  0
  8  9  1  0
  9 10  1  0
 10 11  1  0
 11 12  1  0
 12 13  1  0
 13 14  1  0
 10 15  1  0
  7  3  1  0
 14 10  1  0
 15  6  1  0
  1 16  1  0
  1 17  1  0
  1 18  1  0
  2 19  1  0
  2 20  1  0
  4 21  1  0
  8 22  1  0
  8 23  1  0
  9 24  1  0
  9 25  1  0
 11 26  1  0
 11 27  1  0
 12 28  1  0
 13 29  1  0
 13 30  1  0
 14 31  1  0
 15 32  1  0
 15 33  1  0
M  END
>  <Energy>  (451) 
53.993387791312117

>  <compound_id>  (451) 
740

>  <target_id>  (451) 
1

>  <reference_id>  (451) 
32

>  <inspiration_ids>  (451) 
[64, 32]

>  <energy_score>  (451) 
22.480064739203527

>  <distance_score>  (451) 
2.119338292619056

>  <path>  (451) 
/opt/xchem-fragalysis-2/maxwin/BulkDock/SCRATCH/505733/C740-P32/C740-P32.minimised.mol

>  <scratch_subdir>  (451) 
/opt/xchem-fragalysis-2/maxwin/BulkDock/SCRATCH/505733/C740-P32

>  <fragmenstein_runtime>  (451) 
2.0076470375061035

>  <fragmenstein_outcome>  (451) 
too moved

>  <fragmenstein_mode>  (451) 
expansion

>  <fragmenstein_error>  (451) 


$$$$
C746-P64
     RDKit          3D

 23 24  0  0  0  0  0  0  0  0999 V2000
  -10.2062  -25.6244   29.8433 N   0  0  0  0  0  0  0  0  0  0  0  0
  -10.5442  -24.5139   28.9437 C   0  0  0  0  0  0  0  0  0  0  0  0
  -11.4152  -23.3487   29.5353 C   0  0  0  0  0  0  0  0  0  0  0  0
  -11.9290  -22.5083   28.7908 O   0  0  0  0  0  0  0  0  0  0  0  0
  -11.5984  -23.1490   30.9652 C   0  0  0  0  0  0  0  0  0  0  0  0
  -10.9964  -23.7143   32.1001 C   0  0  0  0  0  0  0  0  0  0  0  0
  -11.6557  -23.4389   33.2210 N   0  0  0  0  0  0  0  0  0  0  0  0
  -12.6680  -22.6776   32.8233 N   0  0  0  0  0  0  0  0  0  0  0  0
  -12.6042  -22.3700   31.5040 C   0  0  0  0  0  0  0  0  0  0  0  0
  -11.1587  -25.0557   27.7050 C   0  0  0  0  0  0  0  0  0  0  0  0
  -11.9361  -24.4922   26.7169 C   0  0  0  0  0  0  0  0  0  0  0  0
  -12.1943  -25.3926   25.7254 N   0  0  0  0  0  0  0  0  0  0  0  0
  -11.5383  -26.4755   26.0634 C   0  0  0  0  0  0  0  0  0  0  0  0
  -10.9238  -26.3328   27.2674 N   0  0  0  0  0  0  0  0  0  0  0  0
  -11.0473  -25.8789   30.3679 H   0  0  0  0  0  0  0  0  0  0  0  0
   -9.5160  -25.3422   30.5349 H   0  0  0  0  0  0  0  0  0  0  0  0
   -9.6023  -24.0723   28.6077 H   0  0  0  0  0  0  0  0  0  0  0  0
  -10.1413  -24.3673   32.1946 H   0  0  0  0  0  0  0  0  0  0  0  0
  -13.3763  -22.4315   33.5063 H   0  0  0  0  0  0  0  0  0  0  0  0
  -13.4128  -21.8389   31.0495 H   0  0  0  0  0  0  0  0  0  0  0  0
  -12.3116  -23.4800   26.6447 H   0  0  0  0  0  0  0  0  0  0  0  0
  -11.4589  -27.3742   25.4695 H   0  0  0  0  0  0  0  0  0  0  0  0
  -10.3442  -27.0043   27.7531 H   0  0  0  0  0  0  0  0  0  0  0  0
  1  2  1  0
  2  3  1  0
  3  4  2  0
  3  5  1  0
  5  6  1  0
  6  7  2  0
  7  8  1  0
  8  9  1  0
  2 10  1  0
 10 11  2  0
 11 12  1  0
 12 13  2  0
 13 14  1  0
  9  5  2  0
 14 10  1  0
  1 15  1  0
  1 16  1  0
  2 17  1  0
  6 18  1  0
  8 19  1  0
  9 20  1  0
 11 21  1  0
 13 22  1  0
 14 23  1  0
M  END
>  <Energy>  (452) 
72.140445878232669

>  <compound_id>  (452) 
746

>  <target_id>  (452) 
1

>  <reference_id>  (452) 
64

>  <inspiration_ids>  (452) 
[64, 46]

>  <energy_score>  (452) 
-17.801219878286645

>  <distance_score>  (452) 
2.15811095766056

>  <path>  (452) 
/opt/xchem-fragalysis-2/maxwin/BulkDock/SCRATCH/505733/C746-P64/C746-P64.minimised.mol

>  <scratch_subdir>  (452) 
/opt/xchem-fragalysis-2/maxwin/BulkDock/SCRATCH/505733/C746-P64

>  <fragmenstein_runtime>  (452) 
1.8217182159423828

>  <fragmenstein_outcome>  (452) 
too moved

>  <fragmenstein_mode>  (452) 
expansion

>  <fragmenstein_error>  (452) 


$$$$
C746-P46
     RDKit          3D

 23 24  0  0  0  0  0  0  0  0999 V2000
  -10.7575  -26.0132   30.2854 N   0  0  0  0  0  0  0  0  0  0  0  0
  -10.7072  -24.8486   29.4137 C   0  0  0  0  0  0  0  0  0  0  0  0
  -11.3206  -23.5503   30.0174 C   0  0  0  0  0  0  0  0  0  0  0  0
  -11.5575  -22.5745   29.2931 O   0  0  0  0  0  0  0  0  0  0  0  0
  -11.5656  -23.3619   31.4272 C   0  0  0  0  0  0  0  0  0  0  0  0
  -11.4721  -24.1666   32.5732 C   0  0  0  0  0  0  0  0  0  0  0  0
  -11.9874  -23.5728   33.6553 N   0  0  0  0  0  0  0  0  0  0  0  0
  -12.3939  -22.3883   33.1984 N   0  0  0  0  0  0  0  0  0  0  0  0
  -12.0512  -22.1712   31.9133 C   0  0  0  0  0  0  0  0  0  0  0  0
  -11.3319  -25.0793   28.0737 C   0  0  0  0  0  0  0  0  0  0  0  0
  -11.6271  -24.1711   27.0673 C   0  0  0  0  0  0  0  0  0  0  0  0
  -12.2213  -24.7702   26.0042 N   0  0  0  0  0  0  0  0  0  0  0  0
  -12.3001  -26.0307   26.3344 C   0  0  0  0  0  0  0  0  0  0  0  0
  -11.7257  -26.2832   27.5457 N   0  0  0  0  0  0  0  0  0  0  0  0
  -11.7126  -26.2650   30.5324 H   0  0  0  0  0  0  0  0  0  0  0  0
  -10.2722  -26.8131   29.8907 H   0  0  0  0  0  0  0  0  0  0  0  0
   -9.6482  -24.6315   29.2670 H   0  0  0  0  0  0  0  0  0  0  0  0
  -11.0990  -25.1771   32.6846 H   0  0  0  0  0  0  0  0  0  0  0  0
  -12.8406  -21.7530   33.8496 H   0  0  0  0  0  0  0  0  0  0  0  0
  -12.2349  -21.2448   31.4159 H   0  0  0  0  0  0  0  0  0  0  0  0
  -11.4618  -23.1006   27.0520 H   0  0  0  0  0  0  0  0  0  0  0  0
  -12.7606  -26.7842   25.7193 H   0  0  0  0  0  0  0  0  0  0  0  0
  -11.6399  -27.1923   27.9753 H   0  0  0  0  0  0  0  0  0  0  0  0
  1  2  1  0
  2  3  1  0
  3  4  2  0
  3  5  1  0
  5  6  1  0
  6  7  2  0
  7  8  1  0
  8  9  1  0
  2 10  1  0
 10 11  2  0
 11 12  1  0
 12 13  2  0
 13 14  1  0
  9  5  2  0
 14 10  1  0
  1 15  1  0
  1 16  1  0
  2 17  1  0
  6 18  1  0
  8 19  1  0
  9 20  1  0
 11 21  1  0
 13 22  1  0
 14 23  1  0
M  END
>  <Energy>  (453) 
74.273655590888467

>  <compound_id>  (453) 
746

>  <target_id>  (453) 
1

>  <reference_id>  (453) 
46

>  <inspiration_ids>  (453) 
[64, 46]

>  <energy_score>  (453) 
-15.66801016563079

>  <distance_score>  (453) 
2.3609263383325447

>  <path>  (453) 
/opt/xchem-fragalysis-2/maxwin/BulkDock/SCRATCH/505733/C746-P46/C746-P46.minimised.mol

>  <scratch_subdir>  (453) 
/opt/xchem-fragalysis-2/maxwin/BulkDock/SCRATCH/505733/C746-P46

>  <fragmenstein_runtime>  (453) 
1.4488871097564697

>  <fragmenstein_outcome>  (453) 
too moved

>  <fragmenstein_mode>  (453) 
expansion

>  <fragmenstein_error>  (453) 


$$$$
C747-P64
     RDKit          3D

 49 51  0  0  0  0  0  0  0  0999 V2000
  -16.9283  -30.2699   30.9666 C   0  0  0  0  0  0  0  0  0  0  0  0
  -16.3082  -29.3008   31.8667 N   0  0  0  0  0  0  0  0  0  0  0  0
  -17.2642  -28.9334   32.9138 C   0  0  0  0  0  0  0  0  0  0  0  0
  -15.2907  -28.0055   31.1679 S   0  0  0  0  0  0  0  0  0  0  0  0
  -14.7937  -28.6725   29.9686 O   0  0  0  0  0  0  0  0  0  0  0  0
  -16.3944  -26.9178   31.0457 N   0  0  0  0  0  0  0  0  0  0  0  0
  -16.8172  -26.8842   29.6018 C   0  0  0  0  0  0  0  0  0  0  0  0
  -17.9846  -25.9959   29.2141 C   0  0  0  0  0  0  0  0  0  0  0  0
  -18.0001  -25.7728   27.7632 N   0  0  0  0  0  0  0  0  0  0  0  0
  -17.6821  -26.7053   26.8050 C   0  0  0  0  0  0  0  0  0  0  0  0
  -17.6329  -26.1784   25.6030 N   0  0  0  0  0  0  0  0  0  0  0  0
  -17.9940  -24.8697   25.7765 C   0  0  0  0  0  0  0  0  0  0  0  0
  -18.2911  -24.6099   27.0948 C   0  0  0  0  0  0  0  0  0  0  0  0
  -18.7864  -23.4021   27.6414 C   0  0  0  0  0  0  0  0  0  0  0  0
  -19.2103  -22.4343   28.1193 N   0  0  0  0  0  0  0  0  0  0  0  0
  -13.8386  -27.9557   32.7413 C   0  0  0  0  0  0  0  0  0  0  0  0
  -13.3111  -29.9117   32.0338 C   0  0  0  0  0  0  0  0  0  0  0  0
  -11.3777  -29.6034   31.2971 C   0  0  0  0  0  0  0  0  0  0  0  0
  -10.3627  -28.0713   32.1912 N   0  0  0  0  0  0  0  0  0  0  0  0
   -9.6610  -27.1063   31.1278 C   0  0  0  0  0  0  0  0  0  0  0  0
  -10.3276  -26.1177   30.2003 C   0  0  0  0  0  0  0  0  0  0  0  0
  -10.4093  -26.2372   28.8244 C   0  0  0  0  0  0  0  0  0  0  0  0
  -10.9064  -25.1149   28.2578 O   0  0  0  0  0  0  0  0  0  0  0  0
  -11.1382  -24.1795   29.2388 N   0  0  0  0  0  0  0  0  0  0  0  0
  -10.7536  -24.7635   30.3830 C   0  0  0  0  0  0  0  0  0  0  0  0
  -10.8150  -23.7592   31.9894 Br  0  0  0  0  0  0  0  0  0  0  0  0
  -11.8049  -26.9668   33.2147 C   0  0  0  0  0  0  0  0  0  0  0  0
  -17.7370  -29.8213   30.3816 H   0  0  0  0  0  0  0  0  0  0  0  0
  -16.1971  -30.6974   30.2739 H   0  0  0  0  0  0  0  0  0  0  0  0
  -17.3407  -31.1167   31.5273 H   0  0  0  0  0  0  0  0  0  0  0  0
  -16.8109  -28.2698   33.6555 H   0  0  0  0  0  0  0  0  0  0  0  0
  -18.1482  -28.4332   32.5032 H   0  0  0  0  0  0  0  0  0  0  0  0
  -17.5974  -29.8222   33.4616 H   0  0  0  0  0  0  0  0  0  0  0  0
  -17.1172  -27.8998   29.3080 H   0  0  0  0  0  0  0  0  0  0  0  0
  -15.9466  -26.6436   28.9802 H   0  0  0  0  0  0  0  0  0  0  0  0
  -17.9655  -25.0296   29.7218 H   0  0  0  0  0  0  0  0  0  0  0  0
  -18.9394  -26.4749   29.4607 H   0  0  0  0  0  0  0  0  0  0  0  0
  -17.4716  -27.7433   27.0305 H   0  0  0  0  0  0  0  0  0  0  0  0
  -18.0613  -24.1901   24.9360 H   0  0  0  0  0  0  0  0  0  0  0  0
  -14.7310  -27.6948   33.4047 H   0  0  0  0  0  0  0  0  0  0  0  0
  -13.8810  -30.2628   31.1604 H   0  0  0  0  0  0  0  0  0  0  0  0
  -13.3033  -30.7680   32.7263 H   0  0  0  0  0  0  0  0  0  0  0  0
  -10.9900  -30.5595   31.5753 H   0  0  0  0  0  0  0  0  0  0  0  0
  -11.7148  -29.3535   30.3065 H   0  0  0  0  0  0  0  0  0  0  0  0
   -9.0907  -27.8145   30.5375 H   0  0  0  0  0  0  0  0  0  0  0  0
   -8.9215  -26.4541   31.5777 H   0  0  0  0  0  0  0  0  0  0  0  0
  -10.1361  -27.0043   28.1230 H   0  0  0  0  0  0  0  0  0  0  0  0
  -11.6128  -26.8668   34.3261 H   0  0  0  0  0  0  0  0  0  0  0  0
  -11.3994  -25.9796   32.8938 H   0  0  0  0  0  0  0  0  0  0  0  0
  1  2  1  0
  2  3  1  0
  2  4  1  0
  4  5  2  0
  4  6  2  0
  6  7  1  0
  7  8  1  0
  8  9  1  0
  9 10  1  0
 10 11  2  0
 11 12  1  0
 12 13  2  0
 13 14  1  0
 14 15  3  0
  4 16  1  0
 16 17  1  0
 17 18  1  0
 18 19  1  0
 19 20  1  0
 20 21  1  0
 21 22  2  0
 22 23  1  0
 23 24  1  0
 24 25  2  0
 25 26  1  0
 19 27  1  0
 13  9  1  0
 27 16  1  0
 25 21  1  0
  1 28  1  0
  1 29  1  0
  1 30  1  0
  3 31  1  0
  3 32  1  0
  3 33  1  0
  7 34  1  0
  7 35  1  0
  8 36  1  0
  8 37  1  0
 10 38  1  0
 12 39  1  0
 16 40  1  0
 17 41  1  0
 17 42  1  0
 18 43  1  0
 18 44  1  0
 20 45  1  0
 20 46  1  0
 22 47  1  0
 27 48  1  0
 27 49  1  0
M  END
>  <Energy>  (454) 
568.97474704479839

>  <compound_id>  (454) 
747

>  <target_id>  (454) 
1

>  <reference_id>  (454) 
64

>  <inspiration_ids>  (454) 
[64, 47]

>  <energy_score>  (454) 
580.0888467451086

>  <distance_score>  (454) 
4.37405735506862

>  <path>  (454) 
/opt/xchem-fragalysis-2/maxwin/BulkDock/SCRATCH/505733/C747-P64/C747-P64.minimised.mol

>  <scratch_subdir>  (454) 
/opt/xchem-fragalysis-2/maxwin/BulkDock/SCRATCH/505733/C747-P64

>  <fragmenstein_runtime>  (454) 
6.943342447280884

>  <fragmenstein_outcome>  (454) 
too moved

>  <fragmenstein_mode>  (454) 
expansion

>  <fragmenstein_error>  (454) 


$$$$
C747-P47
     RDKit          3D

 49 51  0  0  0  0  0  0  0  0999 V2000
  -12.9446  -30.5160   29.6277 C   0  0  0  0  0  0  0  0  0  0  0  0
  -13.4737  -29.3624   28.8910 N   0  0  0  0  0  0  0  0  0  0  0  0
  -14.6208  -29.8477   28.1118 C   0  0  0  0  0  0  0  0  0  0  0  0
  -12.3930  -28.0874   28.2970 S   0  0  0  0  0  0  0  0  0  0  0  0
  -11.5403  -28.8220   27.4218 O   0  0  0  0  0  0  0  0  0  0  0  0
  -13.3694  -27.0325   27.7950 N   0  0  0  0  0  0  0  0  0  0  0  0
  -13.6939  -26.6859   26.4355 C   0  0  0  0  0  0  0  0  0  0  0  0
  -12.4686  -26.3435   25.6303 C   0  0  0  0  0  0  0  0  0  0  0  0
  -11.9123  -25.0880   26.0522 N   0  0  0  0  0  0  0  0  0  0  0  0
  -10.8612  -24.9724   26.9071 C   0  0  0  0  0  0  0  0  0  0  0  0
  -10.7565  -23.7542   27.3622 N   0  0  0  0  0  0  0  0  0  0  0  0
  -11.7620  -23.0603   26.7416 C   0  0  0  0  0  0  0  0  0  0  0  0
  -12.4321  -23.8454   25.8391 C   0  0  0  0  0  0  0  0  0  0  0  0
  -13.4292  -23.5069   24.8881 C   0  0  0  0  0  0  0  0  0  0  0  0
  -14.1919  -23.3890   24.0206 N   0  0  0  0  0  0  0  0  0  0  0  0
  -11.4880  -27.4651   29.7029 C   0  0  0  0  0  0  0  0  0  0  0  0
   -9.9811  -27.3896   29.6798 C   0  0  0  0  0  0  0  0  0  0  0  0
   -9.7012  -26.4450   30.8197 C   0  0  0  0  0  0  0  0  0  0  0  0
  -10.6282  -25.3946   30.5303 N   0  0  0  0  0  0  0  0  0  0  0  0
  -10.7925  -24.5316   31.6861 C   0  0  0  0  0  0  0  0  0  0  0  0
  -11.7495  -23.5057   31.2728 C   0  0  0  0  0  0  0  0  0  0  0  0
  -11.7120  -22.7488   30.1335 C   0  0  0  0  0  0  0  0  0  0  0  0
  -12.8567  -22.0948   29.9846 O   0  0  0  0  0  0  0  0  0  0  0  0
  -13.6845  -22.3518   31.0541 N   0  0  0  0  0  0  0  0  0  0  0  0
  -13.0002  -23.1983   31.8086 C   0  0  0  0  0  0  0  0  0  0  0  0
  -13.7190  -23.9349   33.3439 Br  0  0  0  0  0  0  0  0  0  0  0  0
  -11.8825  -26.0623   30.1270 C   0  0  0  0  0  0  0  0  0  0  0  0
  -12.5457  -31.2760   28.9487 H   0  0  0  0  0  0  0  0  0  0  0  0
  -12.1658  -30.2322   30.3386 H   0  0  0  0  0  0  0  0  0  0  0  0
  -13.7325  -30.9847   30.2295 H   0  0  0  0  0  0  0  0  0  0  0  0
  -15.3921  -30.2449   28.7827 H   0  0  0  0  0  0  0  0  0  0  0  0
  -14.3373  -30.6500   27.4227 H   0  0  0  0  0  0  0  0  0  0  0  0
  -15.1070  -29.0536   27.5400 H   0  0  0  0  0  0  0  0  0  0  0  0
  -14.3730  -25.8242   26.4751 H   0  0  0  0  0  0  0  0  0  0  0  0
  -14.3020  -27.4638   25.9807 H   0  0  0  0  0  0  0  0  0  0  0  0
  -12.7739  -26.2835   24.5963 H   0  0  0  0  0  0  0  0  0  0  0  0
  -11.6606  -27.0770   25.6678 H   0  0  0  0  0  0  0  0  0  0  0  0
  -10.2353  -25.8041   27.1863 H   0  0  0  0  0  0  0  0  0  0  0  0
  -11.8882  -22.0024   26.9192 H   0  0  0  0  0  0  0  0  0  0  0  0
  -11.6859  -28.1570   30.5181 H   0  0  0  0  0  0  0  0  0  0  0  0
   -9.5932  -27.0370   28.7245 H   0  0  0  0  0  0  0  0  0  0  0  0
   -9.5067  -28.3193   29.9575 H   0  0  0  0  0  0  0  0  0  0  0  0
  -10.0023  -26.9028   31.7578 H   0  0  0  0  0  0  0  0  0  0  0  0
   -8.6748  -26.0915   30.8936 H   0  0  0  0  0  0  0  0  0  0  0  0
   -9.8433  -24.0650   31.9660 H   0  0  0  0  0  0  0  0  0  0  0  0
  -11.1345  -25.0886   32.5660 H   0  0  0  0  0  0  0  0  0  0  0  0
  -11.0316  -22.6250   29.3170 H   0  0  0  0  0  0  0  0  0  0  0  0
  -12.3618  -25.4663   29.3497 H   0  0  0  0  0  0  0  0  0  0  0  0
  -12.5605  -26.1293   30.9743 H   0  0  0  0  0  0  0  0  0  0  0  0
  1  2  1  0
  2  3  1  0
  2  4  1  0
  4  5  2  0
  4  6  2  0
  6  7  1  0
  7  8  1  0
  8  9  1  0
  9 10  1  0
 10 11  2  0
 11 12  1  0
 12 13  2  0
 13 14  1  0
 14 15  3  0
  4 16  1  0
 16 17  1  0
 17 18  1  0
 18 19  1  0
 19 20  1  0
 20 21  1  0
 21 22  2  0
 22 23  1  0
 23 24  1  0
 24 25  2  0
 25 26  1  0
 19 27  1  0
 13  9  1  0
 27 16  1  0
 25 21  1  0
  1 28  1  0
  1 29  1  0
  1 30  1  0
  3 31  1  0
  3 32  1  0
  3 33  1  0
  7 34  1  0
  7 35  1  0
  8 36  1  0
  8 37  1  0
 10 38  1  0
 12 39  1  0
 16 40  1  0
 17 41  1  0
 17 42  1  0
 18 43  1  0
 18 44  1  0
 20 45  1  0
 20 46  1  0
 22 47  1  0
 27 48  1  0
 27 49  1  0
M  END
>  <Energy>  (455) 
-54.218351006245776

>  <compound_id>  (455) 
747

>  <target_id>  (455) 
1

>  <reference_id>  (455) 
47

>  <inspiration_ids>  (455) 
[64, 47]

>  <energy_score>  (455) 
-32.23438034327913

>  <distance_score>  (455) 
2.1900296225955143

>  <path>  (455) 
/opt/xchem-fragalysis-2/maxwin/BulkDock/SCRATCH/505733/C747-P47/C747-P47.minimised.mol

>  <scratch_subdir>  (455) 
/opt/xchem-fragalysis-2/maxwin/BulkDock/SCRATCH/505733/C747-P47

>  <fragmenstein_runtime>  (455) 
3.3745014667510986

>  <fragmenstein_outcome>  (455) 
too moved

>  <fragmenstein_mode>  (455) 
expansion

>  <fragmenstein_error>  (455) 


$$$$
C749-P64
     RDKit          3D

 25 26  0  0  0  0  0  0  0  0999 V2000
  -12.5237  -23.2412   28.8700 C   0  0  0  0  0  0  0  0  0  0  0  0
  -11.3798  -23.2398   29.8171 C   0  0  0  0  0  0  0  0  0  0  0  0
  -11.6836  -23.3231   31.2244 N   0  0  0  0  0  0  0  0  0  0  0  0
  -12.2319  -22.3253   32.0789 C   0  0  0  0  0  0  0  0  0  0  0  0
  -12.5631  -22.9374   33.4719 C   0  0  0  0  0  0  0  0  0  0  0  0
  -12.1650  -24.3227   33.7565 N   0  0  0  0  0  0  0  0  0  0  0  0
  -10.9515  -24.8175   33.1448 C   0  0  0  0  0  0  0  0  0  0  0  0
  -10.6506  -24.1037   31.8463 C   0  0  0  0  0  0  0  0  0  0  0  0
  -10.2892  -25.0599   30.8068 N   0  0  0  0  0  0  0  0  0  0  0  0
   -9.0185  -25.3907   30.9370 O   0  0  0  0  0  0  0  0  0  0  0  0
  -10.4718  -24.3483   29.5389 N   0  0  0  0  0  0  0  0  0  0  0  0
  -10.5288  -25.4375   27.9360 I   0  0  0  0  0  0  0  0  0  0  0  0
  -12.2731  -22.6650   27.9776 H   0  0  0  0  0  0  0  0  0  0  0  0
  -12.9224  -24.1868   28.5340 H   0  0  0  0  0  0  0  0  0  0  0  0
  -13.3227  -22.7842   29.4085 H   0  0  0  0  0  0  0  0  0  0  0  0
  -10.9413  -22.2519   29.6374 H   0  0  0  0  0  0  0  0  0  0  0  0
  -13.1594  -21.9310   31.6545 H   0  0  0  0  0  0  0  0  0  0  0  0
  -11.5361  -21.4883   32.1918 H   0  0  0  0  0  0  0  0  0  0  0  0
  -12.1578  -22.2727   34.2310 H   0  0  0  0  0  0  0  0  0  0  0  0
  -13.6520  -22.8971   33.6002 H   0  0  0  0  0  0  0  0  0  0  0  0
  -12.2831  -24.5484   34.7463 H   0  0  0  0  0  0  0  0  0  0  0  0
  -11.0184  -25.8951   33.0183 H   0  0  0  0  0  0  0  0  0  0  0  0
  -10.0776  -24.7673   33.7904 H   0  0  0  0  0  0  0  0  0  0  0  0
   -9.7856  -23.4793   32.0511 H   0  0  0  0  0  0  0  0  0  0  0  0
  -10.9934  -25.8217   30.8704 H   0  0  0  0  0  0  0  0  0  0  0  0
  1  2  1  0
  2  3  1  0
  3  4  1  0
  4  5  1  0
  5  6  1  0
  6  7  1  0
  7  8  1  0
  8  9  1  0
  9 10  1  0
  9 11  1  0
 11 12  1  0
 11  2  1  0
  8  3  1  0
  1 13  1  0
  1 14  1  0
  1 15  1  0
  2 16  1  0
  4 17  1  0
  4 18  1  0
  5 19  1  0
  5 20  1  0
  6 21  1  0
  7 22  1  0
  7 23  1  0
  8 24  1  0
  9 25  1  0
M  CHG  2   9   1  10  -1
M  END
>  <Energy>  (456) 
119.06246111619897

>  <compound_id>  (456) 
749

>  <target_id>  (456) 
1

>  <reference_id>  (456) 
64

>  <inspiration_ids>  (456) 
[64, 52]

>  <energy_score>  (456) 
-34.324790198355544

>  <distance_score>  (456) 
2.5037286074940575

>  <path>  (456) 
/opt/xchem-fragalysis-2/maxwin/BulkDock/SCRATCH/505733/C749-P64/C749-P64.minimised.mol

>  <scratch_subdir>  (456) 
/opt/xchem-fragalysis-2/maxwin/BulkDock/SCRATCH/505733/C749-P64

>  <fragmenstein_runtime>  (456) 
4.801378488540649

>  <fragmenstein_outcome>  (456) 
too moved

>  <fragmenstein_mode>  (456) 
expansion

>  <fragmenstein_error>  (456) 


$$$$
C749-P52
     RDKit          3D

 25 26  0  0  0  0  0  0  0  0999 V2000
  -10.6406  -22.3273   28.8292 C   0  0  0  0  0  0  0  0  0  0  0  0
  -11.6221  -22.4171   30.0142 C   0  0  0  0  0  0  0  0  0  0  0  0
  -11.0018  -21.9566   31.2958 N   0  0  0  0  0  0  0  0  0  0  0  0
  -12.0554  -21.5665   32.2742 C   0  0  0  0  0  0  0  0  0  0  0  0
  -11.6825  -21.7350   33.7634 C   0  0  0  0  0  0  0  0  0  0  0  0
  -11.1081  -23.0477   34.0822 N   0  0  0  0  0  0  0  0  0  0  0  0
   -9.9402  -23.2968   33.2309 C   0  0  0  0  0  0  0  0  0  0  0  0
  -10.3283  -23.2032   31.7456 C   0  0  0  0  0  0  0  0  0  0  0  0
  -11.3269  -24.2664   31.4305 N   0  0  0  0  0  0  0  0  0  0  0  0
  -10.8137  -25.4926   31.2633 O   0  0  0  0  0  0  0  0  0  0  0  0
  -12.0522  -23.7861   30.2340 N   0  0  0  0  0  0  0  0  0  0  0  0
  -12.5642  -24.9512   28.7617 I   0  0  0  0  0  0  0  0  0  0  0  0
  -10.2500  -21.3072   28.7536 H   0  0  0  0  0  0  0  0  0  0  0  0
   -9.7931  -23.0152   28.9118 H   0  0  0  0  0  0  0  0  0  0  0  0
  -11.1383  -22.5074   27.8703 H   0  0  0  0  0  0  0  0  0  0  0  0
  -12.4759  -21.7736   29.7764 H   0  0  0  0  0  0  0  0  0  0  0  0
  -12.9845  -22.1210   32.1024 H   0  0  0  0  0  0  0  0  0  0  0  0
  -12.2972  -20.5144   32.0998 H   0  0  0  0  0  0  0  0  0  0  0  0
  -10.9769  -20.9491   34.0319 H   0  0  0  0  0  0  0  0  0  0  0  0
  -12.5787  -21.5830   34.3747 H   0  0  0  0  0  0  0  0  0  0  0  0
  -10.8599  -23.0530   35.0735 H   0  0  0  0  0  0  0  0  0  0  0  0
   -9.5580  -24.2977   33.4571 H   0  0  0  0  0  0  0  0  0  0  0  0
   -9.1443  -22.5786   33.4574 H   0  0  0  0  0  0  0  0  0  0  0  0
   -9.4486  -23.4321   31.1317 H   0  0  0  0  0  0  0  0  0  0  0  0
  -11.9825  -24.1567   32.2347 H   0  0  0  0  0  0  0  0  0  0  0  0
  1  2  1  0
  2  3  1  0
  3  4  1  0
  4  5  1  0
  5  6  1  0
  6  7  1  0
  7  8  1  0
  8  9  1  0
  9 10  1  0
  9 11  1  0
 11 12  1  0
 11  2  1  0
  8  3  1  0
  1 13  1  0
  1 14  1  0
  1 15  1  0
  2 16  1  0
  4 17  1  0
  4 18  1  0
  5 19  1  0
  5 20  1  0
  6 21  1  0
  7 22  1  0
  7 23  1  0
  8 24  1  0
  9 25  1  0
M  CHG  2   9   1  10  -1
M  END
>  <Energy>  (457) 
93.889731460412165

>  <compound_id>  (457) 
749

>  <target_id>  (457) 
1

>  <reference_id>  (457) 
52

>  <inspiration_ids>  (457) 
[64, 52]

>  <energy_score>  (457) 
-59.49751985414093

>  <distance_score>  (457) 
2.2339740669060384

>  <path>  (457) 
/opt/xchem-fragalysis-2/maxwin/BulkDock/SCRATCH/505733/C749-P52/C749-P52.minimised.mol

>  <scratch_subdir>  (457) 
/opt/xchem-fragalysis-2/maxwin/BulkDock/SCRATCH/505733/C749-P52

>  <fragmenstein_runtime>  (457) 
4.173124074935913

>  <fragmenstein_outcome>  (457) 
too moved

>  <fragmenstein_mode>  (457) 
expansion

>  <fragmenstein_error>  (457) 


$$$$
C754-P64
     RDKit          3D

 33 34  0  0  0  0  0  0  0  0999 V2000
  -11.8076  -22.1720   29.4906 C   0  0  0  0  0  0  0  0  0  0  0  0
  -11.2954  -23.5223   29.5686 C   0  0  0  0  0  0  0  0  0  0  0  0
  -11.0672  -24.4597   28.5559 C   0  0  0  0  0  0  0  0  0  0  0  0
  -11.3108  -24.3760   27.0927 C   0  0  0  0  0  0  0  0  0  0  0  0
  -12.1650  -25.7386   26.2674 S   0  0  0  0  0  0  0  0  0  0  0  0
  -11.9974  -27.1472   27.1367 N   0  0  0  0  0  0  0  0  0  0  0  0
  -11.4371  -26.0288   25.0526 O   0  0  0  0  0  0  0  0  0  0  0  0
  -13.5846  -25.4607   26.2294 O   0  0  0  0  0  0  0  0  0  0  0  0
  -10.4104  -25.5075   29.1979 C   0  0  0  0  0  0  0  0  0  0  0  0
   -9.9267  -26.6010   28.6202 F   0  0  0  0  0  0  0  0  0  0  0  0
  -10.3964  -25.2748   30.5266 C   0  0  0  0  0  0  0  0  0  0  0  0
  -10.8404  -24.0211   30.7667 N   0  0  0  0  0  0  0  0  0  0  0  0
  -10.6957  -23.4879   32.1509 C   0  0  0  0  0  0  0  0  0  0  0  0
   -9.2656  -23.5959   32.7344 C   0  0  0  0  0  0  0  0  0  0  0  0
  -11.4238  -24.4624   33.0355 C   0  0  0  0  0  0  0  0  0  0  0  0
  -10.7964  -25.7885   32.8906 N   0  0  0  0  0  0  0  0  0  0  0  0
   -9.9691  -26.0446   31.6656 C   0  0  0  0  0  0  0  0  0  0  0  0
  -11.0602  -21.4275   29.7751 H   0  0  0  0  0  0  0  0  0  0  0  0
  -12.1187  -21.9351   28.4799 H   0  0  0  0  0  0  0  0  0  0  0  0
  -12.6371  -22.0684   30.1907 H   0  0  0  0  0  0  0  0  0  0  0  0
  -11.8740  -23.4763   26.8320 H   0  0  0  0  0  0  0  0  0  0  0  0
  -10.3374  -24.3078   26.5995 H   0  0  0  0  0  0  0  0  0  0  0  0
  -12.0759  -27.9131   26.4435 H   0  0  0  0  0  0  0  0  0  0  0  0
  -11.0756  -27.2164   27.5740 H   0  0  0  0  0  0  0  0  0  0  0  0
  -11.1065  -22.4768   32.1786 H   0  0  0  0  0  0  0  0  0  0  0  0
   -8.5328  -24.0058   32.0531 H   0  0  0  0  0  0  0  0  0  0  0  0
   -8.8533  -22.6736   33.1201 H   0  0  0  0  0  0  0  0  0  0  0  0
   -9.2036  -24.2838   33.5737 H   0  0  0  0  0  0  0  0  0  0  0  0
  -11.4469  -24.2110   34.0903 H   0  0  0  0  0  0  0  0  0  0  0  0
  -12.4822  -24.4298   32.8248 H   0  0  0  0  0  0  0  0  0  0  0  0
  -10.2014  -26.0409   33.6762 H   0  0  0  0  0  0  0  0  0  0  0  0
   -9.8870  -27.1062   31.4376 H   0  0  0  0  0  0  0  0  0  0  0  0
   -8.9193  -25.7771   31.7801 H   0  0  0  0  0  0  0  0  0  0  0  0
  1  2  1  0
  2  3  2  0
  3  4  1  0
  4  5  1  0
  5  6  1  0
  5  7  2  0
  5  8  2  0
  3  9  1  0
  9 10  1  0
  9 11  2  0
 11 12  1  0
 12 13  1  0
 13 14  1  0
 13 15  1  0
 15 16  1  0
 16 17  1  0
 12  2  1  0
 17 11  1  0
  1 18  1  0
  1 19  1  0
  1 20  1  0
  4 21  1  0
  4 22  1  0
  6 23  1  0
  6 24  1  0
 13 25  1  0
 14 26  1  0
 14 27  1  0
 14 28  1  0
 15 29  1  0
 15 30  1  0
 16 31  1  0
 17 32  1  0
 17 33  1  0
M  END
>  <Energy>  (458) 
11.902640891075123

>  <compound_id>  (458) 
754

>  <target_id>  (458) 
1

>  <reference_id>  (458) 
64

>  <inspiration_ids>  (458) 
[64, 88]

>  <energy_score>  (458) 
20.643684111807545

>  <distance_score>  (458) 
2.36997002466544

>  <path>  (458) 
/opt/xchem-fragalysis-2/maxwin/BulkDock/SCRATCH/505733/C754-P64/C754-P64.minimised.mol

>  <scratch_subdir>  (458) 
/opt/xchem-fragalysis-2/maxwin/BulkDock/SCRATCH/505733/C754-P64

>  <fragmenstein_runtime>  (458) 
3.6298036575317383

>  <fragmenstein_outcome>  (458) 
too moved

>  <fragmenstein_mode>  (458) 
expansion

>  <fragmenstein_error>  (458) 


$$$$
C754-P88
     RDKit          3D

 33 34  0  0  0  0  0  0  0  0999 V2000
   -8.7615  -24.5852   29.6858 C   0  0  0  0  0  0  0  0  0  0  0  0
  -10.0995  -24.0924   29.8692 C   0  0  0  0  0  0  0  0  0  0  0  0
  -11.1952  -24.2431   29.0392 C   0  0  0  0  0  0  0  0  0  0  0  0
  -11.2537  -24.9535   27.7083 C   0  0  0  0  0  0  0  0  0  0  0  0
  -12.8632  -25.4012   27.0301 S   0  0  0  0  0  0  0  0  0  0  0  0
  -13.6189  -26.1822   28.3053 N   0  0  0  0  0  0  0  0  0  0  0  0
  -12.7041  -26.4065   26.0033 O   0  0  0  0  0  0  0  0  0  0  0  0
  -13.6416  -24.2158   26.7562 O   0  0  0  0  0  0  0  0  0  0  0  0
  -12.1769  -23.5374   29.7290 C   0  0  0  0  0  0  0  0  0  0  0  0
  -13.4566  -23.6078   29.4084 F   0  0  0  0  0  0  0  0  0  0  0  0
  -11.6299  -22.7841   30.7415 C   0  0  0  0  0  0  0  0  0  0  0  0
  -10.4114  -23.3467   30.9787 N   0  0  0  0  0  0  0  0  0  0  0  0
   -9.5560  -22.9824   32.1252 C   0  0  0  0  0  0  0  0  0  0  0  0
   -9.2007  -24.1394   33.0612 C   0  0  0  0  0  0  0  0  0  0  0  0
  -10.1802  -21.8424   32.9588 C   0  0  0  0  0  0  0  0  0  0  0  0
  -10.9745  -20.9143   32.1577 N   0  0  0  0  0  0  0  0  0  0  0  0
  -12.0950  -21.6409   31.5600 C   0  0  0  0  0  0  0  0  0  0  0  0
   -8.5255  -25.2208   30.5248 H   0  0  0  0  0  0  0  0  0  0  0  0
   -8.0658  -23.7482   29.7079 H   0  0  0  0  0  0  0  0  0  0  0  0
   -8.6576  -25.1402   28.7600 H   0  0  0  0  0  0  0  0  0  0  0  0
  -10.7800  -24.3241   26.9470 H   0  0  0  0  0  0  0  0  0  0  0  0
  -10.6934  -25.8928   27.7704 H   0  0  0  0  0  0  0  0  0  0  0  0
  -13.1694  -27.0393   28.6138 H   0  0  0  0  0  0  0  0  0  0  0  0
  -13.9319  -25.5287   29.0226 H   0  0  0  0  0  0  0  0  0  0  0  0
   -8.6278  -22.6148   31.6812 H   0  0  0  0  0  0  0  0  0  0  0  0
   -8.6255  -23.7769   33.9200 H   0  0  0  0  0  0  0  0  0  0  0  0
  -10.0960  -24.6344   33.4379 H   0  0  0  0  0  0  0  0  0  0  0  0
   -8.5942  -24.9018   32.5723 H   0  0  0  0  0  0  0  0  0  0  0  0
  -10.8047  -22.2441   33.7680 H   0  0  0  0  0  0  0  0  0  0  0  0
   -9.3748  -21.2882   33.4502 H   0  0  0  0  0  0  0  0  0  0  0  0
  -10.4299  -20.4858   31.4149 H   0  0  0  0  0  0  0  0  0  0  0  0
  -12.7132  -21.9512   32.3837 H   0  0  0  0  0  0  0  0  0  0  0  0
  -12.6788  -20.9502   30.9495 H   0  0  0  0  0  0  0  0  0  0  0  0
  1  2  1  0
  2  3  2  0
  3  4  1  0
  4  5  1  0
  5  6  1  0
  5  7  2  0
  5  8  2  0
  3  9  1  0
  9 10  1  0
  9 11  2  0
 11 12  1  0
 12 13  1  0
 13 14  1  0
 13 15  1  0
 15 16  1  0
 16 17  1  0
 12  2  1  0
 17 11  1  0
  1 18  1  0
  1 19  1  0
  1 20  1  0
  4 21  1  0
  4 22  1  0
  6 23  1  0
  6 24  1  0
 13 25  1  0
 14 26  1  0
 14 27  1  0
 14 28  1  0
 15 29  1  0
 15 30  1  0
 16 31  1  0
 17 32  1  0
 17 33  1  0
M  END
>  <Energy>  (459) 
-24.065454139519627

>  <compound_id>  (459) 
754

>  <target_id>  (459) 
1

>  <reference_id>  (459) 
88

>  <inspiration_ids>  (459) 
[64, 88]

>  <energy_score>  (459) 
-15.324410918785802

>  <distance_score>  (459) 
2.5385531879584136

>  <path>  (459) 
/opt/xchem-fragalysis-2/maxwin/BulkDock/SCRATCH/505733/C754-P88/C754-P88.minimised.mol

>  <scratch_subdir>  (459) 
/opt/xchem-fragalysis-2/maxwin/BulkDock/SCRATCH/505733/C754-P88

>  <fragmenstein_runtime>  (459) 
3.403350353240967

>  <fragmenstein_outcome>  (459) 
too moved

>  <fragmenstein_mode>  (459) 
expansion

>  <fragmenstein_error>  (459) 


$$$$
C760-P64
     RDKit          3D

 57 60  0  0  0  0  0  0  0  0999 V2000
  -12.2769  -26.9528   24.7347 C   0  0  0  0  0  0  0  0  0  0  0  0
  -13.5603  -26.3914   25.2465 C   0  0  0  0  0  0  0  0  0  0  0  0
  -13.3599  -25.5694   26.2159 N   0  0  0  0  0  0  0  0  0  0  0  0
  -13.1470  -24.4826   25.4554 C   0  0  0  0  0  0  0  0  0  0  0  0
  -11.8221  -23.8262   25.4607 C   0  0  0  0  0  0  0  0  0  0  0  0
  -10.6660  -24.5585   26.2351 C   0  0  0  0  0  0  0  0  0  0  0  0
  -10.4207  -24.7578   27.7368 C   0  0  0  0  0  0  0  0  0  0  0  0
  -11.5781  -25.5503   28.1654 C   0  0  0  0  0  0  0  0  0  0  0  0
  -12.7702  -24.6699   28.2936 N   0  0  0  0  0  0  0  0  0  0  0  0
  -12.5896  -23.2373   28.2321 C   0  0  0  0  0  0  0  0  0  0  0  0
  -11.2529  -22.5655   28.0958 C   0  0  0  0  0  0  0  0  0  0  0  0
  -10.3217  -23.5386   28.5581 N   0  0  0  0  0  0  0  0  0  0  0  0
  -10.7670  -23.7297   29.9864 C   0  0  0  0  0  0  0  0  0  0  0  0
  -11.3701  -22.5892   30.6656 C   0  0  0  0  0  0  0  0  0  0  0  0
  -11.8150  -22.6643   31.9186 C   0  0  0  0  0  0  0  0  0  0  0  0
  -11.5719  -23.8690   32.4945 C   0  0  0  0  0  0  0  0  0  0  0  0
  -12.5126  -24.1595   33.8722 S   0  0  0  0  0  0  0  0  0  0  0  0
  -14.2657  -24.1077   33.6293 C   0  0  0  0  0  0  0  0  0  0  0  0
  -12.2302  -22.9464   34.6090 O   0  0  0  0  0  0  0  0  0  0  0  0
  -12.1035  -25.5071   34.2586 O   0  0  0  0  0  0  0  0  0  0  0  0
  -10.6627  -24.8322   32.0429 C   0  0  0  0  0  0  0  0  0  0  0  0
  -10.2618  -24.7775   30.7436 C   0  0  0  0  0  0  0  0  0  0  0  0
  -14.3486  -24.3806   24.8067 C   0  0  0  0  0  0  0  0  0  0  0  0
  -14.6334  -25.7459   24.6132 N   0  0  0  0  0  0  0  0  0  0  0  0
  -16.0200  -26.1799   24.7302 C   0  0  0  0  0  0  0  0  0  0  0  0
  -17.0377  -25.0712   24.4212 C   0  0  0  0  0  0  0  0  0  0  0  0
  -16.6700  -23.7357   24.8785 N   0  0  0  0  0  0  0  0  0  0  0  0
  -15.3068  -23.2976   24.5874 C   0  0  0  0  0  0  0  0  0  0  0  0
  -11.5903  -26.1787   24.4369 H   0  0  0  0  0  0  0  0  0  0  0  0
  -11.7221  -27.4833   25.5102 H   0  0  0  0  0  0  0  0  0  0  0  0
  -12.3469  -27.5064   23.8456 H   0  0  0  0  0  0  0  0  0  0  0  0
  -11.4573  -23.7921   24.4299 H   0  0  0  0  0  0  0  0  0  0  0  0
  -11.9705  -22.7759   25.6340 H   0  0  0  0  0  0  0  0  0  0  0  0
   -9.7587  -24.1499   25.8797 H   0  0  0  0  0  0  0  0  0  0  0  0
  -10.6432  -25.5739   25.8645 H   0  0  0  0  0  0  0  0  0  0  0  0
   -9.5112  -25.3477   27.8840 H   0  0  0  0  0  0  0  0  0  0  0  0
  -11.7603  -26.4203   27.5266 H   0  0  0  0  0  0  0  0  0  0  0  0
  -11.2878  -26.0544   29.0841 H   0  0  0  0  0  0  0  0  0  0  0  0
  -13.4086  -24.9262   27.5325 H   0  0  0  0  0  0  0  0  0  0  0  0
  -13.0414  -22.9578   27.3273 H   0  0  0  0  0  0  0  0  0  0  0  0
  -13.1337  -22.8428   29.0740 H   0  0  0  0  0  0  0  0  0  0  0  0
  -11.0607  -22.2702   27.0908 H   0  0  0  0  0  0  0  0  0  0  0  0
  -11.1750  -21.5795   28.5358 H   0  0  0  0  0  0  0  0  0  0  0  0
  -11.5159  -21.6088   30.2412 H   0  0  0  0  0  0  0  0  0  0  0  0
  -12.3833  -21.8715   32.3831 H   0  0  0  0  0  0  0  0  0  0  0  0
  -14.6672  -25.0729   33.3276 H   0  0  0  0  0  0  0  0  0  0  0  0
  -14.5300  -23.2921   32.9539 H   0  0  0  0  0  0  0  0  0  0  0  0
  -14.7360  -23.8723   34.5813 H   0  0  0  0  0  0  0  0  0  0  0  0
  -10.4011  -25.6940   32.6432 H   0  0  0  0  0  0  0  0  0  0  0  0
   -9.6104  -25.5386   30.3430 H   0  0  0  0  0  0  0  0  0  0  0  0
  -16.1555  -26.5413   25.7569 H   0  0  0  0  0  0  0  0  0  0  0  0
  -16.1578  -27.0142   24.0404 H   0  0  0  0  0  0  0  0  0  0  0  0
  -17.2532  -25.0622   23.3503 H   0  0  0  0  0  0  0  0  0  0  0  0
  -17.9897  -25.3452   24.8918 H   0  0  0  0  0  0  0  0  0  0  0  0
  -17.3484  -23.0234   24.6200 H   0  0  0  0  0  0  0  0  0  0  0  0
  -15.1938  -22.8974   23.5921 H   0  0  0  0  0  0  0  0  0  0  0  0
  -15.1015  -22.4536   25.2391 H   0  0  0  0  0  0  0  0  0  0  0  0
  1  2  1  0
  2  3  2  0
  3  4  1  0
  4  5  1  0
  5  6  1  0
  6  7  1  0
  7  8  1  0
  8  9  1  0
  9 10  1  0
 10 11  1  0
 11 12  1  0
 12 13  1  0
 13 14  2  0
 14 15  1  0
 15 16  2  0
 16 17  1  0
 17 18  1  0
 17 19  2  0
 17 20  2  0
 16 21  1  0
 21 22  2  0
  4 23  2  0
 23 24  1  0
 24 25  1  0
 25 26  1  0
 26 27  1  0
 27 28  1  0
 24  2  1  0
 12  7  1  0
 22 13  1  0
 28 23  1  0
  1 29  1  0
  1 30  1  0
  1 31  1  0
  5 32  1  0
  5 33  1  0
  6 34  1  0
  6 35  1  0
  7 36  1  0
  8 37  1  0
  8 38  1  0
  9 39  1  0
 10 40  1  0
 10 41  1  0
 11 42  1  0
 11 43  1  0
 14 44  1  0
 15 45  1  0
 18 46  1  0
 18 47  1  0
 18 48  1  0
 21 49  1  0
 22 50  1  0
 25 51  1  0
 25 52  1  0
 26 53  1  0
 26 54  1  0
 27 55  1  0
 28 56  1  0
 28 57  1  0
M  END
>  <Energy>  (460) 
357.46979222924801

>  <compound_id>  (460) 
760

>  <target_id>  (460) 
1

>  <reference_id>  (460) 
64

>  <inspiration_ids>  (460) 
[64, 115]

>  <energy_score>  (460) 
176.46417810492153

>  <distance_score>  (460) 
4.0923495050820575

>  <path>  (460) 
/opt/xchem-fragalysis-2/maxwin/BulkDock/SCRATCH/505733/C760-P64/C760-P64.minimised.mol

>  <scratch_subdir>  (460) 
/opt/xchem-fragalysis-2/maxwin/BulkDock/SCRATCH/505733/C760-P64

>  <fragmenstein_runtime>  (460) 
11.45287537574768

>  <fragmenstein_outcome>  (460) 
too moved

>  <fragmenstein_mode>  (460) 
expansion

>  <fragmenstein_error>  (460) 


$$$$
C760-P115
     RDKit          3D

 57 60  0  0  0  0  0  0  0  0999 V2000
  -10.6494  -27.2196   25.9541 C   0  0  0  0  0  0  0  0  0  0  0  0
  -11.6033  -26.8490   27.0338 C   0  0  0  0  0  0  0  0  0  0  0  0
  -11.2911  -26.7438   28.3189 N   0  0  0  0  0  0  0  0  0  0  0  0
  -11.3875  -25.3927   28.5147 C   0  0  0  0  0  0  0  0  0  0  0  0
  -10.5828  -24.6537   29.5021 C   0  0  0  0  0  0  0  0  0  0  0  0
  -10.1413  -25.3389   30.7818 C   0  0  0  0  0  0  0  0  0  0  0  0
  -10.8923  -25.0807   32.1047 C   0  0  0  0  0  0  0  0  0  0  0  0
  -11.5952  -23.6777   32.2525 C   0  0  0  0  0  0  0  0  0  0  0  0
  -10.8546  -22.5207   32.7593 N   0  0  0  0  0  0  0  0  0  0  0  0
  -10.0788  -22.9097   33.9454 C   0  0  0  0  0  0  0  0  0  0  0  0
  -10.2315  -24.3787   34.4024 C   0  0  0  0  0  0  0  0  0  0  0  0
   -9.9801  -25.3043   33.2815 N   0  0  0  0  0  0  0  0  0  0  0  0
   -9.5543  -26.5950   33.6001 C   0  0  0  0  0  0  0  0  0  0  0  0
   -9.8254  -27.2462   34.8022 C   0  0  0  0  0  0  0  0  0  0  0  0
   -9.2852  -28.5077   35.1453 C   0  0  0  0  0  0  0  0  0  0  0  0
   -8.4180  -29.1376   34.2712 C   0  0  0  0  0  0  0  0  0  0  0  0
   -7.6091  -30.6683   34.6296 S   0  0  0  0  0  0  0  0  0  0  0  0
   -7.4940  -30.7737   36.3935 C   0  0  0  0  0  0  0  0  0  0  0  0
   -8.4985  -31.7101   34.1614 O   0  0  0  0  0  0  0  0  0  0  0  0
   -6.2499  -30.5690   34.1303 O   0  0  0  0  0  0  0  0  0  0  0  0
   -8.1440  -28.5336   33.0631 C   0  0  0  0  0  0  0  0  0  0  0  0
   -8.7235  -27.3016   32.7454 C   0  0  0  0  0  0  0  0  0  0  0  0
  -11.9676  -24.8367   27.3917 C   0  0  0  0  0  0  0  0  0  0  0  0
  -12.5515  -25.8991   26.7714 N   0  0  0  0  0  0  0  0  0  0  0  0
  -13.3912  -25.7631   25.6012 C   0  0  0  0  0  0  0  0  0  0  0  0
  -13.5965  -24.2977   25.2257 C   0  0  0  0  0  0  0  0  0  0  0  0
  -12.3658  -23.5200   25.3747 N   0  0  0  0  0  0  0  0  0  0  0  0
  -11.8791  -23.5176   26.7655 C   0  0  0  0  0  0  0  0  0  0  0  0
  -10.7205  -26.5202   25.1221 H   0  0  0  0  0  0  0  0  0  0  0  0
   -9.6589  -27.1329   26.3857 H   0  0  0  0  0  0  0  0  0  0  0  0
  -10.6845  -28.2217   25.5505 H   0  0  0  0  0  0  0  0  0  0  0  0
   -9.6622  -24.4402   28.9391 H   0  0  0  0  0  0  0  0  0  0  0  0
  -11.0579  -23.6879   29.6800 H   0  0  0  0  0  0  0  0  0  0  0  0
   -9.1041  -25.0306   30.9453 H   0  0  0  0  0  0  0  0  0  0  0  0
  -10.1155  -26.4197   30.6028 H   0  0  0  0  0  0  0  0  0  0  0  0
  -11.6974  -25.8148   32.1596 H   0  0  0  0  0  0  0  0  0  0  0  0
  -12.1033  -23.3781   31.3365 H   0  0  0  0  0  0  0  0  0  0  0  0
  -12.3819  -23.8003   32.9969 H   0  0  0  0  0  0  0  0  0  0  0  0
  -10.2313  -22.1657   32.0490 H   0  0  0  0  0  0  0  0  0  0  0  0
   -9.0216  -22.7145   33.7364 H   0  0  0  0  0  0  0  0  0  0  0  0
  -10.3527  -22.2471   34.7731 H   0  0  0  0  0  0  0  0  0  0  0  0
  -11.2212  -24.5536   34.8429 H   0  0  0  0  0  0  0  0  0  0  0  0
   -9.4844  -24.5244   35.1747 H   0  0  0  0  0  0  0  0  0  0  0  0
  -10.4965  -26.7694   35.5114 H   0  0  0  0  0  0  0  0  0  0  0  0
   -9.5675  -28.9579   36.0889 H   0  0  0  0  0  0  0  0  0  0  0  0
   -6.9252  -31.6737   36.6390 H   0  0  0  0  0  0  0  0  0  0  0  0
   -8.4922  -30.8501   36.8255 H   0  0  0  0  0  0  0  0  0  0  0  0
   -6.9684  -29.8944   36.7711 H   0  0  0  0  0  0  0  0  0  0  0  0
   -7.4520  -28.9905   32.3632 H   0  0  0  0  0  0  0  0  0  0  0  0
   -8.4339  -26.8532   31.8150 H   0  0  0  0  0  0  0  0  0  0  0  0
  -14.3491  -26.2374   25.8353 H   0  0  0  0  0  0  0  0  0  0  0  0
  -12.9276  -26.3112   24.7808 H   0  0  0  0  0  0  0  0  0  0  0  0
  -14.0011  -24.2186   24.2118 H   0  0  0  0  0  0  0  0  0  0  0  0
  -14.3848  -23.8502   25.8030 H   0  0  0  0  0  0  0  0  0  0  0  0
  -12.6026  -22.5328   25.1886 H   0  0  0  0  0  0  0  0  0  0  0  0
  -10.8197  -23.2875   26.7505 H   0  0  0  0  0  0  0  0  0  0  0  0
  -12.3204  -22.7363   27.3792 H   0  0  0  0  0  0  0  0  0  0  0  0
  1  2  1  0
  2  3  2  0
  3  4  1  0
  4  5  1  0
  5  6  1  0
  6  7  1  0
  7  8  1  0
  8  9  1  0
  9 10  1  0
 10 11  1  0
 11 12  1  0
 12 13  1  0
 13 14  2  0
 14 15  1  0
 15 16  2  0
 16 17  1  0
 17 18  1  0
 17 19  2  0
 17 20  2  0
 16 21  1  0
 21 22  2  0
  4 23  2  0
 23 24  1  0
 24 25  1  0
 25 26  1  0
 26 27  1  0
 27 28  1  0
 24  2  1  0
 12  7  1  0
 22 13  1  0
 28 23  1  0
  1 29  1  0
  1 30  1  0
  1 31  1  0
  5 32  1  0
  5 33  1  0
  6 34  1  0
  6 35  1  0
  7 36  1  0
  8 37  1  0
  8 38  1  0
  9 39  1  0
 10 40  1  0
 10 41  1  0
 11 42  1  0
 11 43  1  0
 14 44  1  0
 15 45  1  0
 18 46  1  0
 18 47  1  0
 18 48  1  0
 21 49  1  0
 22 50  1  0
 25 51  1  0
 25 52  1  0
 26 53  1  0
 26 54  1  0
 27 55  1  0
 28 56  1  0
 28 57  1  0
M  END
>  <Energy>  (461) 
186.9531207473226

>  <compound_id>  (461) 
760

>  <target_id>  (461) 
1

>  <reference_id>  (461) 
115

>  <inspiration_ids>  (461) 
[64, 115]

>  <energy_score>  (461) 
5.947506623000152

>  <distance_score>  (461) 
2.131786159461728

>  <path>  (461) 
/opt/xchem-fragalysis-2/maxwin/BulkDock/SCRATCH/505733/C760-P115/C760-P115.minimised.mol

>  <scratch_subdir>  (461) 
/opt/xchem-fragalysis-2/maxwin/BulkDock/SCRATCH/505733/C760-P115

>  <fragmenstein_runtime>  (461) 
9.806849479675293

>  <fragmenstein_outcome>  (461) 
too moved

>  <fragmenstein_mode>  (461) 
expansion

>  <fragmenstein_error>  (461) 


$$$$
C762-P64
     RDKit          3D

 47 51  0  0  0  0  0  0  0  0999 V2000
  -10.9876  -27.0695   27.8153 C   0  0  0  0  0  0  0  0  0  0  0  0
  -12.2324  -27.6200   27.1327 C   0  0  0  0  0  0  0  0  0  0  0  0
  -12.3111  -26.8340   25.8936 N   0  0  0  0  0  0  0  0  0  0  0  0
  -13.3534  -25.8485   26.1965 C   0  0  0  0  0  0  0  0  0  0  0  0
  -12.8072  -24.8873   27.2650 C   0  0  0  0  0  0  0  0  0  0  0  0
  -11.6848  -24.0423   26.9705 N   0  0  0  0  0  0  0  0  0  0  0  0
  -11.2589  -23.4048   28.1969 C   0  0  0  0  0  0  0  0  0  0  0  0
  -11.4322  -22.1015   28.3801 C   0  0  0  0  0  0  0  0  0  0  0  0
  -11.5837  -21.5488   29.7001 C   0  0  0  0  0  0  0  0  0  0  0  0
  -11.6364  -22.2726   30.8262 C   0  0  0  0  0  0  0  0  0  0  0  0
  -11.2200  -23.6136   30.7300 C   0  0  0  0  0  0  0  0  0  0  0  0
  -10.7407  -24.4242   31.6485 N   0  0  0  0  0  0  0  0  0  0  0  0
  -10.0183  -25.3865   30.9988 N   0  0  0  0  0  0  0  0  0  0  0  0
  -10.0686  -25.1114   29.7179 C   0  0  0  0  0  0  0  0  0  0  0  0
  -10.9716  -24.1132   29.4412 N   0  0  0  0  0  0  0  0  0  0  0  0
  -11.9760  -23.5090   25.6151 C   0  0  0  0  0  0  0  0  0  0  0  0
  -13.4147  -23.8073   25.0538 C   0  0  0  0  0  0  0  0  0  0  0  0
  -13.7862  -25.1963   25.0233 O   0  0  0  0  0  0  0  0  0  0  0  0
  -14.4513  -26.6520   26.9190 C   0  0  0  0  0  0  0  0  0  0  0  0
  -15.7460  -27.0664   26.2079 C   0  0  0  0  0  0  0  0  0  0  0  0
  -16.5204  -28.0569   26.9846 N   0  0  0  0  0  0  0  0  0  0  0  0
  -15.6555  -29.1848   27.4045 C   0  0  0  0  0  0  0  0  0  0  0  0
  -14.3445  -28.8007   28.1629 C   0  0  0  0  0  0  0  0  0  0  0  0
  -14.7304  -28.4927   29.4322 F   0  0  0  0  0  0  0  0  0  0  0  0
  -13.6273  -27.6550   27.6138 N   0  0  0  0  0  0  0  0  0  0  0  0
  -10.9193  -27.3550   28.8621 H   0  0  0  0  0  0  0  0  0  0  0  0
  -10.0820  -27.3513   27.2871 H   0  0  0  0  0  0  0  0  0  0  0  0
  -10.8026  -26.0274   27.6633 H   0  0  0  0  0  0  0  0  0  0  0  0
  -11.8697  -28.6334   27.0683 H   0  0  0  0  0  0  0  0  0  0  0  0
  -12.6324  -27.4918   25.1949 H   0  0  0  0  0  0  0  0  0  0  0  0
  -12.4066  -25.4296   28.0707 H   0  0  0  0  0  0  0  0  0  0  0  0
  -13.5950  -24.3182   27.7151 H   0  0  0  0  0  0  0  0  0  0  0  0
  -11.5914  -21.4803   27.5282 H   0  0  0  0  0  0  0  0  0  0  0  0
  -11.6929  -20.4878   29.7130 H   0  0  0  0  0  0  0  0  0  0  0  0
  -11.7704  -21.8320   31.8059 H   0  0  0  0  0  0  0  0  0  0  0  0
   -9.4206  -25.5283   28.9687 H   0  0  0  0  0  0  0  0  0  0  0  0
  -11.2424  -23.9528   24.9347 H   0  0  0  0  0  0  0  0  0  0  0  0
  -11.8945  -22.4398   25.5856 H   0  0  0  0  0  0  0  0  0  0  0  0
  -13.5041  -23.3986   24.0413 H   0  0  0  0  0  0  0  0  0  0  0  0
  -14.2027  -23.3058   25.6061 H   0  0  0  0  0  0  0  0  0  0  0  0
  -14.8935  -26.0144   27.6877 H   0  0  0  0  0  0  0  0  0  0  0  0
  -16.3800  -26.1754   26.1020 H   0  0  0  0  0  0  0  0  0  0  0  0
  -15.6215  -27.4075   25.1892 H   0  0  0  0  0  0  0  0  0  0  0  0
  -16.8175  -27.5917   27.8509 H   0  0  0  0  0  0  0  0  0  0  0  0
  -16.2560  -29.8238   28.0624 H   0  0  0  0  0  0  0  0  0  0  0  0
  -15.4292  -29.7840   26.5194 H   0  0  0  0  0  0  0  0  0  0  0  0
  -13.6998  -29.6790   28.2726 H   0  0  0  0  0  0  0  0  0  0  0  0
  1  2  1  0
  2  3  1  0
  3  4  1  0
  4  5  1  0
  5  6  1  0
  6  7  1  0
  7  8  2  0
  8  9  1  0
  9 10  2  0
 10 11  1  0
 11 12  2  0
 12 13  1  0
 13 14  2  0
 14 15  1  0
  6 16  1  0
 16 17  1  0
 17 18  1  0
  4 19  1  0
 19 20  1  0
 20 21  1  0
 21 22  1  0
 22 23  1  0
 23 24  1  0
 23 25  1  0
 25  2  1  0
 18  4  1  0
 25 19  1  0
 15  7  1  0
 15 11  1  0
  1 26  1  0
  1 27  1  0
  1 28  1  0
  2 29  1  0
  3 30  1  0
  5 31  1  0
  5 32  1  0
  8 33  1  0
  9 34  1  0
 10 35  1  0
 14 36  1  0
 16 37  1  0
 16 38  1  0
 17 39  1  0
 17 40  1  0
 19 41  1  0
 20 42  1  0
 20 43  1  0
 21 44  1  0
 22 45  1  0
 22 46  1  0
 23 47  1  0
M  END
>  <Energy>  (462) 
295.66324502749762

>  <compound_id>  (462) 
762

>  <target_id>  (462) 
1

>  <reference_id>  (462) 
64

>  <inspiration_ids>  (462) 
[64, 123]

>  <energy_score>  (462) 
49.47684170105492

>  <distance_score>  (462) 
2.3005972843409825

>  <path>  (462) 
/opt/xchem-fragalysis-2/maxwin/BulkDock/SCRATCH/505733/C762-P64/C762-P64.minimised.mol

>  <scratch_subdir>  (462) 
/opt/xchem-fragalysis-2/maxwin/BulkDock/SCRATCH/505733/C762-P64

>  <fragmenstein_runtime>  (462) 
5.966808080673218

>  <fragmenstein_outcome>  (462) 
too moved

>  <fragmenstein_mode>  (462) 
expansion

>  <fragmenstein_error>  (462) 


$$$$
C762-P123
     RDKit          3D

 47 51  0  0  0  0  0  0  0  0999 V2000
  -12.2955  -27.6636   29.2848 C   0  0  0  0  0  0  0  0  0  0  0  0
  -12.8942  -27.8482   27.8863 C   0  0  0  0  0  0  0  0  0  0  0  0
  -12.2224  -26.9155   26.9828 N   0  0  0  0  0  0  0  0  0  0  0  0
  -13.1344  -25.7641   26.8940 C   0  0  0  0  0  0  0  0  0  0  0  0
  -13.0837  -24.8167   28.1045 C   0  0  0  0  0  0  0  0  0  0  0  0
  -11.7212  -24.3396   28.4073 N   0  0  0  0  0  0  0  0  0  0  0  0
  -11.6604  -23.7715   29.7019 C   0  0  0  0  0  0  0  0  0  0  0  0
  -12.3119  -22.6445   30.0465 C   0  0  0  0  0  0  0  0  0  0  0  0
  -12.6337  -22.3895   31.4395 C   0  0  0  0  0  0  0  0  0  0  0  0
  -12.1438  -23.1281   32.4419 C   0  0  0  0  0  0  0  0  0  0  0  0
  -11.2730  -24.1771   32.1235 C   0  0  0  0  0  0  0  0  0  0  0  0
  -10.5565  -24.9701   32.8771 N   0  0  0  0  0  0  0  0  0  0  0  0
   -9.8639  -25.7891   32.0292 N   0  0  0  0  0  0  0  0  0  0  0  0
  -10.2153  -25.5229   30.7969 C   0  0  0  0  0  0  0  0  0  0  0  0
  -11.0972  -24.4902   30.7796 N   0  0  0  0  0  0  0  0  0  0  0  0
  -11.2418  -23.6349   27.2143 C   0  0  0  0  0  0  0  0  0  0  0  0
  -11.5426  -24.3793   25.8865 C   0  0  0  0  0  0  0  0  0  0  0  0
  -12.8431  -24.9837   25.7446 O   0  0  0  0  0  0  0  0  0  0  0  0
  -14.5010  -26.4670   26.8346 C   0  0  0  0  0  0  0  0  0  0  0  0
  -14.9124  -26.9398   25.4192 C   0  0  0  0  0  0  0  0  0  0  0  0
  -16.0093  -27.9204   25.4446 N   0  0  0  0  0  0  0  0  0  0  0  0
  -15.6231  -29.0537   26.3049 C   0  0  0  0  0  0  0  0  0  0  0  0
  -15.2364  -28.6368   27.7407 C   0  0  0  0  0  0  0  0  0  0  0  0
  -14.7207  -29.7102   28.3974 F   0  0  0  0  0  0  0  0  0  0  0  0
  -14.3110  -27.5188   27.8557 N   0  0  0  0  0  0  0  0  0  0  0  0
  -12.6351  -28.4754   29.9343 H   0  0  0  0  0  0  0  0  0  0  0  0
  -11.2121  -27.6439   29.2429 H   0  0  0  0  0  0  0  0  0  0  0  0
  -12.5669  -26.7523   29.8002 H   0  0  0  0  0  0  0  0  0  0  0  0
  -12.6857  -28.8675   27.5416 H   0  0  0  0  0  0  0  0  0  0  0  0
  -12.2101  -27.3445   26.0682 H   0  0  0  0  0  0  0  0  0  0  0  0
  -13.4616  -25.2673   28.9951 H   0  0  0  0  0  0  0  0  0  0  0  0
  -13.7170  -23.9515   27.9252 H   0  0  0  0  0  0  0  0  0  0  0  0
  -12.7335  -21.9949   29.3025 H   0  0  0  0  0  0  0  0  0  0  0  0
  -13.4098  -21.6827   31.6865 H   0  0  0  0  0  0  0  0  0  0  0  0
  -12.4397  -22.9787   33.4742 H   0  0  0  0  0  0  0  0  0  0  0  0
   -9.8410  -25.9964   29.9042 H   0  0  0  0  0  0  0  0  0  0  0  0
  -10.1626  -23.5510   27.3322 H   0  0  0  0  0  0  0  0  0  0  0  0
  -11.6857  -22.6344   27.1698 H   0  0  0  0  0  0  0  0  0  0  0  0
  -10.8224  -25.1784   25.7493 H   0  0  0  0  0  0  0  0  0  0  0  0
  -11.4206  -23.7015   25.0398 H   0  0  0  0  0  0  0  0  0  0  0  0
  -15.2890  -25.7981   27.1836 H   0  0  0  0  0  0  0  0  0  0  0  0
  -15.2421  -26.0713   24.8368 H   0  0  0  0  0  0  0  0  0  0  0  0
  -14.0650  -27.3656   24.8770 H   0  0  0  0  0  0  0  0  0  0  0  0
  -16.1911  -28.2575   24.5009 H   0  0  0  0  0  0  0  0  0  0  0  0
  -16.4632  -29.7555   26.3596 H   0  0  0  0  0  0  0  0  0  0  0  0
  -14.7998  -29.6126   25.8504 H   0  0  0  0  0  0  0  0  0  0  0  0
  -16.1557  -28.3594   28.2696 H   0  0  0  0  0  0  0  0  0  0  0  0
  1  2  1  0
  2  3  1  0
  3  4  1  0
  4  5  1  0
  5  6  1  0
  6  7  1  0
  7  8  2  0
  8  9  1  0
  9 10  2  0
 10 11  1  0
 11 12  2  0
 12 13  1  0
 13 14  2  0
 14 15  1  0
  6 16  1  0
 16 17  1  0
 17 18  1  0
  4 19  1  0
 19 20  1  0
 20 21  1  0
 21 22  1  0
 22 23  1  0
 23 24  1  0
 23 25  1  0
 25  2  1  0
 18  4  1  0
 25 19  1  0
 15  7  1  0
 15 11  1  0
  1 26  1  0
  1 27  1  0
  1 28  1  0
  2 29  1  0
  3 30  1  0
  5 31  1  0
  5 32  1  0
  8 33  1  0
  9 34  1  0
 10 35  1  0
 14 36  1  0
 16 37  1  0
 16 38  1  0
 17 39  1  0
 17 40  1  0
 19 41  1  0
 20 42  1  0
 20 43  1  0
 21 44  1  0
 22 45  1  0
 22 46  1  0
 23 47  1  0
M  END
>  <Energy>  (463) 
203.74292627081681

>  <compound_id>  (463) 
762

>  <target_id>  (463) 
1

>  <reference_id>  (463) 
123

>  <inspiration_ids>  (463) 
[64, 123]

>  <energy_score>  (463) 
-61.212920237793014

>  <distance_score>  (463) 
2.1004324899989952

>  <path>  (463) 
/opt/xchem-fragalysis-2/maxwin/BulkDock/SCRATCH/505733/C762-P123/C762-P123.minimised.mol

>  <scratch_subdir>  (463) 
/opt/xchem-fragalysis-2/maxwin/BulkDock/SCRATCH/505733/C762-P123

>  <fragmenstein_runtime>  (463) 
4.02362322807312

>  <fragmenstein_outcome>  (463) 
too moved

>  <fragmenstein_mode>  (463) 
expansion

>  <fragmenstein_error>  (463) 


$$$$
C763-P64
     RDKit          3D

 47 51  0  0  0  0  0  0  0  0999 V2000
  -12.2231  -23.2768   25.3828 C   0  0  0  0  0  0  0  0  0  0  0  0
  -12.7532  -24.6218   25.6915 C   0  0  0  0  0  0  0  0  0  0  0  0
  -13.7776  -25.0007   26.6198 N   0  0  0  0  0  0  0  0  0  0  0  0
  -13.8005  -26.4501   26.3854 C   0  0  0  0  0  0  0  0  0  0  0  0
  -12.3977  -26.8005   25.8089 C   0  0  0  0  0  0  0  0  0  0  0  0
  -11.6675  -25.5284   25.9291 N   0  0  0  0  0  0  0  0  0  0  0  0
  -11.1531  -25.6096   27.2889 C   0  0  0  0  0  0  0  0  0  0  0  0
  -10.2708  -24.5242   27.8604 C   0  0  0  0  0  0  0  0  0  0  0  0
  -10.4956  -26.8926   27.2258 N   0  0  0  0  0  0  0  0  0  0  0  0
  -11.4260  -27.7821   26.4739 C   0  0  0  0  0  0  0  0  0  0  0  0
  -12.1478  -28.6831   27.6085 C   0  0  0  0  0  0  0  0  0  0  0  0
  -12.1599  -30.2763   27.4268 N   0  0  0  0  0  0  0  0  0  0  0  0
  -13.3179  -31.0606   27.8654 C   0  0  0  0  0  0  0  0  0  0  0  0
  -14.0222  -31.8652   27.0272 C   0  0  0  0  0  0  0  0  0  0  0  0
  -15.1595  -32.6550   27.4986 C   0  0  0  0  0  0  0  0  0  0  0  0
  -15.6004  -32.5890   28.7632 C   0  0  0  0  0  0  0  0  0  0  0  0
  -14.8813  -31.8065   29.6856 C   0  0  0  0  0  0  0  0  0  0  0  0
  -15.0203  -31.6763   30.9843 N   0  0  0  0  0  0  0  0  0  0  0  0
  -13.8866  -31.0795   31.4464 N   0  0  0  0  0  0  0  0  0  0  0  0
  -13.1150  -30.8282   30.4093 C   0  0  0  0  0  0  0  0  0  0  0  0
  -13.7418  -31.1274   29.2358 N   0  0  0  0  0  0  0  0  0  0  0  0
  -11.0003  -30.8568   26.3439 C   0  0  0  0  0  0  0  0  0  0  0  0
  -10.3717  -29.8489   25.2314 C   0  0  0  0  0  0  0  0  0  0  0  0
  -10.6684  -28.3915   25.3165 O   0  0  0  0  0  0  0  0  0  0  0  0
  -11.4094  -23.3869   24.6574 H   0  0  0  0  0  0  0  0  0  0  0  0
  -12.9701  -22.6938   24.8395 H   0  0  0  0  0  0  0  0  0  0  0  0
  -11.8494  -22.7884   26.2814 H   0  0  0  0  0  0  0  0  0  0  0  0
  -13.2578  -24.8535   24.7524 H   0  0  0  0  0  0  0  0  0  0  0  0
  -14.6675  -24.5964   26.3371 H   0  0  0  0  0  0  0  0  0  0  0  0
  -14.1436  -26.9512   27.2809 H   0  0  0  0  0  0  0  0  0  0  0  0
  -14.5599  -26.6553   25.6213 H   0  0  0  0  0  0  0  0  0  0  0  0
  -12.4860  -26.9959   24.7334 H   0  0  0  0  0  0  0  0  0  0  0  0
  -11.9318  -25.6990   28.0294 H   0  0  0  0  0  0  0  0  0  0  0  0
   -9.6927  -24.8819   28.7187 H   0  0  0  0  0  0  0  0  0  0  0  0
   -9.5889  -24.1499   27.1060 H   0  0  0  0  0  0  0  0  0  0  0  0
  -10.8738  -23.6747   28.1984 H   0  0  0  0  0  0  0  0  0  0  0  0
   -9.6759  -26.8082   26.6409 H   0  0  0  0  0  0  0  0  0  0  0  0
  -13.1913  -28.4180   27.7866 H   0  0  0  0  0  0  0  0  0  0  0  0
  -11.7832  -28.3294   28.5691 H   0  0  0  0  0  0  0  0  0  0  0  0
  -13.7742  -31.9727   25.9785 H   0  0  0  0  0  0  0  0  0  0  0  0
  -15.6671  -33.2836   26.7719 H   0  0  0  0  0  0  0  0  0  0  0  0
  -16.4538  -33.1624   29.1068 H   0  0  0  0  0  0  0  0  0  0  0  0
  -12.1025  -30.4807   30.4756 H   0  0  0  0  0  0  0  0  0  0  0  0
  -10.1833  -31.2240   26.9043 H   0  0  0  0  0  0  0  0  0  0  0  0
  -11.3942  -31.7435   25.8195 H   0  0  0  0  0  0  0  0  0  0  0  0
   -9.2781  -29.9464   25.2117 H   0  0  0  0  0  0  0  0  0  0  0  0
  -10.5659  -30.2682   24.2518 H   0  0  0  0  0  0  0  0  0  0  0  0
  1  2  1  0
  2  3  1  0
  3  4  1  0
  4  5  1  0
  5  6  1  0
  6  7  1  0
  7  8  1  0
  7  9  1  0
  9 10  1  0
 10 11  1  0
 11 12  1  0
 12 13  1  0
 13 14  2  0
 14 15  1  0
 15 16  2  0
 16 17  1  0
 17 18  2  0
 18 19  1  0
 19 20  2  0
 20 21  1  0
 12 22  1  0
 22 23  1  0
 23 24  1  0
  6  2  1  0
 24 10  1  0
 10  5  1  0
 21 13  1  0
 21 17  1  0
  1 25  1  0
  1 26  1  0
  1 27  1  0
  2 28  1  0
  3 29  1  0
  4 30  1  0
  4 31  1  0
  5 32  1  0
  7 33  1  0
  8 34  1  0
  8 35  1  0
  8 36  1  0
  9 37  1  0
 11 38  1  0
 11 39  1  0
 14 40  1  0
 15 41  1  0
 16 42  1  0
 20 43  1  0
 22 44  1  0
 22 45  1  0
 23 46  1  0
 23 47  1  0
M  END
>  <Energy>  (464) 
191.50140841329875

>  <compound_id>  (464) 
763

>  <target_id>  (464) 
1

>  <reference_id>  (464) 
64

>  <inspiration_ids>  (464) 
[64, 138]

>  <energy_score>  (464) 
26.545119042754266

>  <distance_score>  (464) 
2.656237633917494

>  <path>  (464) 
/opt/xchem-fragalysis-2/maxwin/BulkDock/SCRATCH/505733/C763-P64/C763-P64.minimised.mol

>  <scratch_subdir>  (464) 
/opt/xchem-fragalysis-2/maxwin/BulkDock/SCRATCH/505733/C763-P64

>  <fragmenstein_runtime>  (464) 
2.5297346115112305

>  <fragmenstein_outcome>  (464) 
too moved

>  <fragmenstein_mode>  (464) 
expansion

>  <fragmenstein_error>  (464) 


$$$$
C763-P138
     RDKit          3D

 47 51  0  0  0  0  0  0  0  0999 V2000
  -11.7865  -23.5885   27.0630 C   0  0  0  0  0  0  0  0  0  0  0  0
  -12.9558  -24.5402   26.9431 C   0  0  0  0  0  0  0  0  0  0  0  0
  -13.4883  -24.8572   28.2487 N   0  0  0  0  0  0  0  0  0  0  0  0
  -14.3812  -25.9916   28.0528 C   0  0  0  0  0  0  0  0  0  0  0  0
  -14.0197  -26.5820   26.6849 C   0  0  0  0  0  0  0  0  0  0  0  0
  -12.7924  -25.8192   26.2776 N   0  0  0  0  0  0  0  0  0  0  0  0
  -11.7513  -26.6880   26.7593 C   0  0  0  0  0  0  0  0  0  0  0  0
  -10.3185  -26.2583   26.5053 C   0  0  0  0  0  0  0  0  0  0  0  0
  -12.1538  -27.9803   26.1844 N   0  0  0  0  0  0  0  0  0  0  0  0
  -13.5998  -28.0811   26.5633 C   0  0  0  0  0  0  0  0  0  0  0  0
  -13.7870  -29.0340   27.8258 C   0  0  0  0  0  0  0  0  0  0  0  0
  -13.6710  -30.4862   27.4551 N   0  0  0  0  0  0  0  0  0  0  0  0
  -13.3380  -31.5545   28.3237 C   0  0  0  0  0  0  0  0  0  0  0  0
  -12.7601  -32.6854   27.8426 C   0  0  0  0  0  0  0  0  0  0  0  0
  -12.6154  -33.8737   28.6775 C   0  0  0  0  0  0  0  0  0  0  0  0
  -13.0577  -33.9026   29.9426 C   0  0  0  0  0  0  0  0  0  0  0  0
  -13.6491  -32.7436   30.4811 C   0  0  0  0  0  0  0  0  0  0  0  0
  -14.1944  -32.5321   31.6528 N   0  0  0  0  0  0  0  0  0  0  0  0
  -14.6347  -31.2429   31.6655 N   0  0  0  0  0  0  0  0  0  0  0  0
  -14.3249  -30.6927   30.5150 C   0  0  0  0  0  0  0  0  0  0  0  0
  -13.7347  -31.6020   29.6862 N   0  0  0  0  0  0  0  0  0  0  0  0
  -14.5135  -30.8324   26.2739 C   0  0  0  0  0  0  0  0  0  0  0  0
  -15.2757  -29.6082   25.7615 C   0  0  0  0  0  0  0  0  0  0  0  0
  -14.3416  -28.5761   25.4294 O   0  0  0  0  0  0  0  0  0  0  0  0
  -11.1014  -23.8575   27.8684 H   0  0  0  0  0  0  0  0  0  0  0  0
  -11.2426  -23.5634   26.1191 H   0  0  0  0  0  0  0  0  0  0  0  0
  -12.1317  -22.5733   27.2842 H   0  0  0  0  0  0  0  0  0  0  0  0
  -13.6995  -24.0099   26.3409 H   0  0  0  0  0  0  0  0  0  0  0  0
  -13.9587  -24.0659   28.6814 H   0  0  0  0  0  0  0  0  0  0  0  0
  -14.2818  -26.6918   28.8834 H   0  0  0  0  0  0  0  0  0  0  0  0
  -15.4218  -25.6484   28.0352 H   0  0  0  0  0  0  0  0  0  0  0  0
  -14.8090  -26.3314   25.9627 H   0  0  0  0  0  0  0  0  0  0  0  0
  -11.8500  -26.8315   27.8168 H   0  0  0  0  0  0  0  0  0  0  0  0
   -9.6221  -27.0421   26.7772 H   0  0  0  0  0  0  0  0  0  0  0  0
  -10.1602  -26.0164   25.4551 H   0  0  0  0  0  0  0  0  0  0  0  0
  -10.0055  -25.3944   27.0886 H   0  0  0  0  0  0  0  0  0  0  0  0
  -11.6522  -28.7272   26.6573 H   0  0  0  0  0  0  0  0  0  0  0  0
  -14.7799  -28.8650   28.2572 H   0  0  0  0  0  0  0  0  0  0  0  0
  -13.0438  -28.7889   28.5902 H   0  0  0  0  0  0  0  0  0  0  0  0
  -12.4536  -32.7699   26.8051 H   0  0  0  0  0  0  0  0  0  0  0  0
  -12.1655  -34.7543   28.2271 H   0  0  0  0  0  0  0  0  0  0  0  0
  -12.9787  -34.7881   30.5633 H   0  0  0  0  0  0  0  0  0  0  0  0
  -14.5280  -29.6670   30.2640 H   0  0  0  0  0  0  0  0  0  0  0  0
  -13.8538  -31.2105   25.4863 H   0  0  0  0  0  0  0  0  0  0  0  0
  -15.2351  -31.6166   26.5320 H   0  0  0  0  0  0  0  0  0  0  0  0
  -15.8394  -29.8719   24.8612 H   0  0  0  0  0  0  0  0  0  0  0  0
  -16.0103  -29.2314   26.4827 H   0  0  0  0  0  0  0  0  0  0  0  0
  1  2  1  0
  2  3  1  0
  3  4  1  0
  4  5  1  0
  5  6  1  0
  6  7  1  0
  7  8  1  0
  7  9  1  0
  9 10  1  0
 10 11  1  0
 11 12  1  0
 12 13  1  0
 13 14  2  0
 14 15  1  0
 15 16  2  0
 16 17  1  0
 17 18  2  0
 18 19  1  0
 19 20  2  0
 20 21  1  0
 12 22  1  0
 22 23  1  0
 23 24  1  0
  6  2  1  0
 24 10  1  0
 10  5  1  0
 21 13  1  0
 21 17  1  0
  1 25  1  0
  1 26  1  0
  1 27  1  0
  2 28  1  0
  3 29  1  0
  4 30  1  0
  4 31  1  0
  5 32  1  0
  7 33  1  0
  8 34  1  0
  8 35  1  0
  8 36  1  0
  9 37  1  0
 11 38  1  0
 11 39  1  0
 14 40  1  0
 15 41  1  0
 16 42  1  0
 20 43  1  0
 22 44  1  0
 22 45  1  0
 23 46  1  0
 23 47  1  0
M  END
>  <Energy>  (465) 
125.33831935212928

>  <compound_id>  (465) 
763

>  <target_id>  (465) 
1

>  <reference_id>  (465) 
138

>  <inspiration_ids>  (465) 
[64, 138]

>  <energy_score>  (465) 
-39.617970018413644

>  <distance_score>  (465) 
2.4269043557444268

>  <path>  (465) 
/opt/xchem-fragalysis-2/maxwin/BulkDock/SCRATCH/505733/C763-P138/C763-P138.minimised.mol

>  <scratch_subdir>  (465) 
/opt/xchem-fragalysis-2/maxwin/BulkDock/SCRATCH/505733/C763-P138

>  <fragmenstein_runtime>  (465) 
3.6283810138702393

>  <fragmenstein_outcome>  (465) 
too moved

>  <fragmenstein_mode>  (465) 
expansion

>  <fragmenstein_error>  (465) 


$$$$
C765-P65
     RDKit          3D

 49 52  0  0  0  0  0  0  0  0999 V2000
   -6.9077   -3.7424    5.7925 C   0  0  0  0  0  0  0  0  0  0  0  0
   -7.2155   -2.4240    6.4735 C   0  0  0  0  0  0  0  0  0  0  0  0
   -8.3913   -1.8736    5.8174 N   0  0  0  0  0  0  0  0  0  0  0  0
   -9.0964   -0.7991    6.5683 C   0  0  0  0  0  0  0  0  0  0  0  0
  -10.0182   -1.3535    7.6631 C   0  0  0  0  0  0  0  0  0  0  0  0
  -10.8635   -0.2483    8.3552 C   0  0  0  0  0  0  0  0  0  0  0  0
  -11.8585    0.4849    7.5478 N   0  0  0  0  0  0  0  0  0  0  0  0
  -12.8871    1.1708    8.3743 C   0  0  0  0  0  0  0  0  0  0  0  0
  -13.9801    0.2452    8.9367 C   0  0  0  0  0  0  0  0  0  0  0  0
  -14.6321   -0.4688    7.8819 O   0  0  0  0  0  0  0  0  0  0  0  0
  -13.6665   -1.2494    7.1620 C   0  0  0  0  0  0  0  0  0  0  0  0
  -12.5859   -0.3425    6.5564 C   0  0  0  0  0  0  0  0  0  0  0  0
   -9.9468    0.7585    8.9049 N   0  0  0  0  0  0  0  0  0  0  0  0
   -9.1114    1.3699    7.8640 C   0  0  0  0  0  0  0  0  0  0  0  0
   -8.2136    0.3544    7.1163 C   0  0  0  0  0  0  0  0  0  0  0  0
   -7.2077   -0.1320    8.0434 N   0  0  0  0  0  0  0  0  0  0  0  0
   -6.0097   -0.7113    7.5375 C   0  0  0  0  0  0  0  0  0  0  0  0
   -4.8605    0.1741    7.3360 N   0  0  0  0  0  0  0  0  0  0  0  0
   -5.2012    1.8505    6.9547 Cl  0  0  0  0  0  0  0  0  0  0  0  0
   -4.0878   -0.5021    6.2798 C   0  0  0  0  0  0  0  0  0  0  0  0
   -4.8291   -1.8090    5.9955 C   0  0  0  0  0  0  0  0  0  0  0  0
   -6.1972   -1.4183    6.2977 N   0  0  0  0  0  0  0  0  0  0  0  0
   -7.7137   -4.4369    6.0354 H   0  0  0  0  0  0  0  0  0  0  0  0
   -6.8166   -3.6558    4.7043 H   0  0  0  0  0  0  0  0  0  0  0  0
   -5.9932   -4.1828    6.1824 H   0  0  0  0  0  0  0  0  0  0  0  0
   -7.4266   -2.6795    7.5191 H   0  0  0  0  0  0  0  0  0  0  0  0
   -8.0295   -1.4464    4.9676 H   0  0  0  0  0  0  0  0  0  0  0  0
   -9.7468   -0.3403    5.8124 H   0  0  0  0  0  0  0  0  0  0  0  0
  -10.6700   -2.1346    7.2546 H   0  0  0  0  0  0  0  0  0  0  0  0
   -9.4127   -1.8539    8.4305 H   0  0  0  0  0  0  0  0  0  0  0  0
  -11.3657   -0.7376    9.1971 H   0  0  0  0  0  0  0  0  0  0  0  0
  -13.3718    1.9114    7.7238 H   0  0  0  0  0  0  0  0  0  0  0  0
  -12.4448    1.7494    9.1909 H   0  0  0  0  0  0  0  0  0  0  0  0
  -13.5800   -0.4642    9.6695 H   0  0  0  0  0  0  0  0  0  0  0  0
  -14.7420    0.8454    9.4445 H   0  0  0  0  0  0  0  0  0  0  0  0
  -14.2103   -1.7641    6.3648 H   0  0  0  0  0  0  0  0  0  0  0  0
  -13.2365   -2.0098    7.8228 H   0  0  0  0  0  0  0  0  0  0  0  0
  -13.0823    0.3564    5.8691 H   0  0  0  0  0  0  0  0  0  0  0  0
  -11.9077   -0.9164    5.9227 H   0  0  0  0  0  0  0  0  0  0  0  0
  -10.4857    1.4829    9.3596 H   0  0  0  0  0  0  0  0  0  0  0  0
   -9.7316    1.9102    7.1375 H   0  0  0  0  0  0  0  0  0  0  0  0
   -8.4852    2.1392    8.3337 H   0  0  0  0  0  0  0  0  0  0  0  0
   -7.7539    0.8868    6.2754 H   0  0  0  0  0  0  0  0  0  0  0  0
   -6.9586    0.5642    8.7400 H   0  0  0  0  0  0  0  0  0  0  0  0
   -5.6787   -1.4128    8.3129 H   0  0  0  0  0  0  0  0  0  0  0  0
   -3.0689   -0.7005    6.6239 H   0  0  0  0  0  0  0  0  0  0  0  0
   -4.0406    0.0891    5.3580 H   0  0  0  0  0  0  0  0  0  0  0  0
   -4.4555   -2.6016    6.6572 H   0  0  0  0  0  0  0  0  0  0  0  0
   -4.7021   -2.1187    4.9535 H   0  0  0  0  0  0  0  0  0  0  0  0
  1  2  1  0
  2  3  1  0
  3  4  1  0
  4  5  1  0
  5  6  1  0
  6  7  1  0
  7  8  1  0
  8  9  1  0
  9 10  1  0
 10 11  1  0
 11 12  1  0
  6 13  1  0
 13 14  1  0
 14 15  1  0
 15 16  1  0
 16 17  1  0
 17 18  1  0
 18 19  1  0
 18 20  1  0
 20 21  1  0
 21 22  1  0
 22  2  1  0
 15  4  1  0
 22 17  1  0
 12  7  1  0
  1 23  1  0
  1 24  1  0
  1 25  1  0
  2 26  1  0
  3 27  1  0
  4 28  1  0
  5 29  1  0
  5 30  1  0
  6 31  1  0
  8 32  1  0
  8 33  1  0
  9 34  1  0
  9 35  1  0
 11 36  1  0
 11 37  1  0
 12 38  1  0
 12 39  1  0
 13 40  1  0
 14 41  1  0
 14 42  1  0
 15 43  1  0
 16 44  1  0
 17 45  1  0
 20 46  1  0
 20 47  1  0
 21 48  1  0
 21 49  1  0
M  END
>  <Energy>  (466) 
-46.668838762161798

>  <compound_id>  (466) 
765

>  <target_id>  (466) 
1

>  <reference_id>  (466) 
65

>  <inspiration_ids>  (466) 
[65, 17]

>  <energy_score>  (466) 
-69.24607727534422

>  <distance_score>  (466) 
1.1876648457011711

>  <path>  (466) 
/opt/xchem-fragalysis-2/maxwin/BulkDock/SCRATCH/505733/C765-P65/C765-P65.minimised.mol

>  <scratch_subdir>  (466) 
/opt/xchem-fragalysis-2/maxwin/BulkDock/SCRATCH/505733/C765-P65

>  <fragmenstein_runtime>  (466) 
4.309252023696899

>  <fragmenstein_outcome>  (466) 
too moved

>  <fragmenstein_mode>  (466) 
expansion

>  <fragmenstein_error>  (466) 


$$$$
C765-P17
     RDKit          3D

 49 52  0  0  0  0  0  0  0  0999 V2000
   -7.9157   -2.9558    5.8221 C   0  0  0  0  0  0  0  0  0  0  0  0
   -7.3883   -2.6395    7.2235 C   0  0  0  0  0  0  0  0  0  0  0  0
   -8.3972   -2.2451    8.1939 N   0  0  0  0  0  0  0  0  0  0  0  0
   -9.2267   -1.0217    8.0357 C   0  0  0  0  0  0  0  0  0  0  0  0
   -9.5875   -0.5273    9.4649 C   0  0  0  0  0  0  0  0  0  0  0  0
  -10.3086    0.8375    9.5688 C   0  0  0  0  0  0  0  0  0  0  0  0
  -11.6879    0.8843   10.0081 N   0  0  0  0  0  0  0  0  0  0  0  0
  -11.9113    0.5211   11.4030 C   0  0  0  0  0  0  0  0  0  0  0  0
  -13.3053    1.0063   11.8565 C   0  0  0  0  0  0  0  0  0  0  0  0
  -14.3140    0.9942   10.8327 O   0  0  0  0  0  0  0  0  0  0  0  0
  -14.0401    0.0168    9.8270 C   0  0  0  0  0  0  0  0  0  0  0  0
  -12.6794    0.2466    9.1338 C   0  0  0  0  0  0  0  0  0  0  0  0
  -10.2630    1.6168    8.3454 N   0  0  0  0  0  0  0  0  0  0  0  0
   -8.9298    1.5487    7.7787 C   0  0  0  0  0  0  0  0  0  0  0  0
   -8.7031    0.1594    7.1459 C   0  0  0  0  0  0  0  0  0  0  0  0
   -7.3278    0.1250    6.6674 N   0  0  0  0  0  0  0  0  0  0  0  0
   -6.4244   -0.4073    7.6483 C   0  0  0  0  0  0  0  0  0  0  0  0
   -5.1192    0.2196    7.5181 N   0  0  0  0  0  0  0  0  0  0  0  0
   -5.1581    1.9328    7.1741 Cl  0  0  0  0  0  0  0  0  0  0  0  0
   -4.3270   -0.6138    6.6256 C   0  0  0  0  0  0  0  0  0  0  0  0
   -5.1495   -1.8817    6.3883 C   0  0  0  0  0  0  0  0  0  0  0  0
   -6.2182   -1.7963    7.3672 N   0  0  0  0  0  0  0  0  0  0  0  0
   -7.1481   -3.4318    5.2029 H   0  0  0  0  0  0  0  0  0  0  0  0
   -8.7471   -3.6680    5.8901 H   0  0  0  0  0  0  0  0  0  0  0  0
   -8.2937   -2.0812    5.2886 H   0  0  0  0  0  0  0  0  0  0  0  0
   -7.0470   -3.6246    7.5622 H   0  0  0  0  0  0  0  0  0  0  0  0
   -9.0242   -3.0239    8.4150 H   0  0  0  0  0  0  0  0  0  0  0  0
  -10.1613   -1.3554    7.5635 H   0  0  0  0  0  0  0  0  0  0  0  0
  -10.1570   -1.2893   10.0019 H   0  0  0  0  0  0  0  0  0  0  0  0
   -8.6469   -0.4242   10.0247 H   0  0  0  0  0  0  0  0  0  0  0  0
   -9.7392    1.4125   10.3142 H   0  0  0  0  0  0  0  0  0  0  0  0
  -11.8370   -0.5655   11.5338 H   0  0  0  0  0  0  0  0  0  0  0  0
  -11.1645    0.9693   12.0685 H   0  0  0  0  0  0  0  0  0  0  0  0
  -13.6594    0.3935   12.6924 H   0  0  0  0  0  0  0  0  0  0  0  0
  -13.2404    2.0399   12.2134 H   0  0  0  0  0  0  0  0  0  0  0  0
  -14.8469    0.0531    9.0879 H   0  0  0  0  0  0  0  0  0  0  0  0
  -14.0769   -0.9645   10.3011 H   0  0  0  0  0  0  0  0  0  0  0  0
  -12.8512    0.9008    8.2707 H   0  0  0  0  0  0  0  0  0  0  0  0
  -12.3307   -0.7165    8.7434 H   0  0  0  0  0  0  0  0  0  0  0  0
  -10.4998    2.5743    8.5986 H   0  0  0  0  0  0  0  0  0  0  0  0
   -8.8429    2.3142    6.9971 H   0  0  0  0  0  0  0  0  0  0  0  0
   -8.1696    1.7921    8.5320 H   0  0  0  0  0  0  0  0  0  0  0  0
   -9.3205    0.1354    6.2356 H   0  0  0  0  0  0  0  0  0  0  0  0
   -7.2476   -0.4301    5.8303 H   0  0  0  0  0  0  0  0  0  0  0  0
   -6.7423   -0.2324    8.6820 H   0  0  0  0  0  0  0  0  0  0  0  0
   -3.3815   -0.8616    7.1181 H   0  0  0  0  0  0  0  0  0  0  0  0
   -4.1144   -0.1302    5.6661 H   0  0  0  0  0  0  0  0  0  0  0  0
   -4.5463   -2.7836    6.5339 H   0  0  0  0  0  0  0  0  0  0  0  0
   -5.5201   -1.8693    5.3574 H   0  0  0  0  0  0  0  0  0  0  0  0
  1  2  1  0
  2  3  1  0
  3  4  1  0
  4  5  1  0
  5  6  1  0
  6  7  1  0
  7  8  1  0
  8  9  1  0
  9 10  1  0
 10 11  1  0
 11 12  1  0
  6 13  1  0
 13 14  1  0
 14 15  1  0
 15 16  1  0
 16 17  1  0
 17 18  1  0
 18 19  1  0
 18 20  1  0
 20 21  1  0
 21 22  1  0
 22  2  1  0
 15  4  1  0
 22 17  1  0
 12  7  1  0
  1 23  1  0
  1 24  1  0
  1 25  1  0
  2 26  1  0
  3 27  1  0
  4 28  1  0
  5 29  1  0
  5 30  1  0
  6 31  1  0
  8 32  1  0
  8 33  1  0
  9 34  1  0
  9 35  1  0
 11 36  1  0
 11 37  1  0
 12 38  1  0
 12 39  1  0
 13 40  1  0
 14 41  1  0
 14 42  1  0
 15 43  1  0
 16 44  1  0
 17 45  1  0
 20 46  1  0
 20 47  1  0
 21 48  1  0
 21 49  1  0
M  END
>  <Energy>  (467) 
-24.743948158907195

>  <compound_id>  (467) 
765

>  <target_id>  (467) 
1

>  <reference_id>  (467) 
17

>  <inspiration_ids>  (467) 
[65, 17]

>  <energy_score>  (467) 
-47.32118667209065

>  <distance_score>  (467) 
1.2734909256850204

>  <path>  (467) 
/opt/xchem-fragalysis-2/maxwin/BulkDock/SCRATCH/505733/C765-P17/C765-P17.minimised.mol

>  <scratch_subdir>  (467) 
/opt/xchem-fragalysis-2/maxwin/BulkDock/SCRATCH/505733/C765-P17

>  <fragmenstein_runtime>  (467) 
4.447072982788086

>  <fragmenstein_outcome>  (467) 
too moved

>  <fragmenstein_mode>  (467) 
expansion

>  <fragmenstein_error>  (467) 


$$$$
C766-P65
     RDKit          3D

 46 51  0  0  0  0  0  0  0  0999 V2000
   -7.9824    0.7994    5.9619 F   0  0  0  0  0  0  0  0  0  0  0  0
   -7.1643    0.6934    4.9073 C   0  0  0  0  0  0  0  0  0  0  0  0
   -6.5724    1.8757    4.4423 C   0  0  0  0  0  0  0  0  0  0  0  0
   -5.7877    1.7538    3.3017 C   0  0  0  0  0  0  0  0  0  0  0  0
   -5.1135    2.6656    2.5295 N   0  0  0  0  0  0  0  0  0  0  0  0
   -4.4727    1.9772    1.5412 C   0  0  0  0  0  0  0  0  0  0  0  0
   -3.4444    2.8192    0.4363 S   0  0  0  0  0  0  0  0  0  0  0  0
   -3.1168    1.5079   -0.6555 C   0  0  0  0  0  0  0  0  0  0  0  0
   -3.6412    1.5107   -1.8997 C   0  0  0  0  0  0  0  0  0  0  0  0
   -3.3648    0.4027   -2.8032 C   0  0  0  0  0  0  0  0  0  0  0  0
   -2.5887   -0.6315   -2.4294 C   0  0  0  0  0  0  0  0  0  0  0  0
   -2.0197   -0.6433   -1.1286 C   0  0  0  0  0  0  0  0  0  0  0  0
   -1.2435   -1.5077   -0.5105 N   0  0  0  0  0  0  0  0  0  0  0  0
   -0.9799   -1.0143    0.7455 N   0  0  0  0  0  0  0  0  0  0  0  0
   -1.6044    0.1366    0.8618 C   0  0  0  0  0  0  0  0  0  0  0  0
   -2.2971    0.4275   -0.2864 N   0  0  0  0  0  0  0  0  0  0  0  0
   -4.7238    0.6918    1.5914 N   0  0  0  0  0  0  0  0  0  0  0  0
   -5.5557    0.5356    2.6703 C   0  0  0  0  0  0  0  0  0  0  0  0
   -6.1460   -0.6372    3.1662 C   0  0  0  0  0  0  0  0  0  0  0  0
   -6.9696   -0.5667    4.2984 C   0  0  0  0  0  0  0  0  0  0  0  0
   -7.5351   -1.8570    4.9053 C   0  0  0  0  0  0  0  0  0  0  0  0
   -7.0615   -2.0041    6.2994 C   0  0  0  0  0  0  0  0  0  0  0  0
   -7.7530   -1.7368    7.3861 N   0  0  0  0  0  0  0  0  0  0  0  0
   -6.8824   -1.1303    8.2619 N   0  0  0  0  0  0  0  0  0  0  0  0
   -5.6835   -1.1539    7.7170 C   0  0  0  0  0  0  0  0  0  0  0  0
   -5.7432   -1.9794    6.6344 N   0  0  0  0  0  0  0  0  0  0  0  0
   -4.5851   -2.2628    5.8358 C   0  0  0  0  0  0  0  0  0  0  0  0
   -3.6954   -1.0314    5.8065 C   0  0  0  0  0  0  0  0  0  0  0  0
   -3.2975   -0.6156    7.1528 N   0  0  0  0  0  0  0  0  0  0  0  0
   -4.4682   -0.3454    8.0146 C   0  0  0  0  0  0  0  0  0  0  0  0
   -6.7700    2.8204    4.9338 H   0  0  0  0  0  0  0  0  0  0  0  0
   -5.0807    3.6656    2.6590 H   0  0  0  0  0  0  0  0  0  0  0  0
   -4.2820    2.3084   -2.2631 H   0  0  0  0  0  0  0  0  0  0  0  0
   -3.8119    0.4304   -3.7929 H   0  0  0  0  0  0  0  0  0  0  0  0
   -2.3842   -1.4623   -3.0956 H   0  0  0  0  0  0  0  0  0  0  0  0
   -1.5945    0.7762    1.7311 H   0  0  0  0  0  0  0  0  0  0  0  0
   -5.9519   -1.5772    2.6597 H   0  0  0  0  0  0  0  0  0  0  0  0
   -8.6295   -1.7990    4.8757 H   0  0  0  0  0  0  0  0  0  0  0  0
   -7.2461   -2.7305    4.3098 H   0  0  0  0  0  0  0  0  0  0  0  0
   -4.8781   -2.5774    4.8324 H   0  0  0  0  0  0  0  0  0  0  0  0
   -4.0822   -3.1091    6.3158 H   0  0  0  0  0  0  0  0  0  0  0  0
   -4.1771   -0.1888    5.3034 H   0  0  0  0  0  0  0  0  0  0  0  0
   -2.8132   -1.2836    5.2181 H   0  0  0  0  0  0  0  0  0  0  0  0
   -2.7576   -1.3636    7.5961 H   0  0  0  0  0  0  0  0  0  0  0  0
   -4.1439   -0.5283    9.0391 H   0  0  0  0  0  0  0  0  0  0  0  0
   -4.7100    0.7157    7.8980 H   0  0  0  0  0  0  0  0  0  0  0  0
  1  2  1  0
  2  3  2  0
  3  4  1  0
  4  5  1  0
  5  6  1  0
  6  7  1  0
  7  8  1  0
  8  9  2  0
  9 10  1  0
 10 11  2  0
 11 12  1  0
 12 13  2  0
 13 14  1  0
 14 15  2  0
 15 16  1  0
  6 17  2  0
 17 18  1  0
 18 19  1  0
 19 20  2  0
 20 21  1  0
 21 22  1  0
 22 23  2  0
 23 24  1  0
 24 25  2  0
 25 26  1  0
 26 27  1  0
 27 28  1  0
 28 29  1  0
 29 30  1  0
 20  2  1  0
 26 22  1  0
 18  4  2  0
 30 25  1  0
 16  8  1  0
 16 12  1  0
  3 31  1  0
  5 32  1  0
  9 33  1  0
 10 34  1  0
 11 35  1  0
 15 36  1  0
 19 37  1  0
 21 38  1  0
 21 39  1  0
 27 40  1  0
 27 41  1  0
 28 42  1  0
 28 43  1  0
 29 44  1  0
 30 45  1  0
 30 46  1  0
M  END
>  <Energy>  (468) 
59.53987819222219

>  <compound_id>  (468) 
766

>  <target_id>  (468) 
1

>  <reference_id>  (468) 
65

>  <inspiration_ids>  (468) 
[65, 24]

>  <energy_score>  (468) 
-27.363095087492894

>  <distance_score>  (468) 
1.7654086212101283

>  <path>  (468) 
/opt/xchem-fragalysis-2/maxwin/BulkDock/SCRATCH/505733/C766-P65/C766-P65.minimised.mol

>  <scratch_subdir>  (468) 
/opt/xchem-fragalysis-2/maxwin/BulkDock/SCRATCH/505733/C766-P65

>  <fragmenstein_runtime>  (468) 
3.387479066848755

>  <fragmenstein_outcome>  (468) 
too moved

>  <fragmenstein_mode>  (468) 
expansion

>  <fragmenstein_error>  (468) 


$$$$
C766-P24
     RDKit          3D

 46 51  0  0  0  0  0  0  0  0999 V2000
   -3.7843   -0.4069    4.3763 F   0  0  0  0  0  0  0  0  0  0  0  0
   -4.9162    0.2995    4.2546 C   0  0  0  0  0  0  0  0  0  0  0  0
   -4.7889    1.6845    4.0936 C   0  0  0  0  0  0  0  0  0  0  0  0
   -5.9774    2.3946    3.9838 C   0  0  0  0  0  0  0  0  0  0  0  0
   -6.2494    3.7313    3.8358 N   0  0  0  0  0  0  0  0  0  0  0  0
   -7.6054    3.8741    3.7984 C   0  0  0  0  0  0  0  0  0  0  0  0
   -8.2996    5.4477    3.6374 S   0  0  0  0  0  0  0  0  0  0  0  0
   -9.9562    5.0122    3.9293 C   0  0  0  0  0  0  0  0  0  0  0  0
  -10.5130    5.1962    5.1453 C   0  0  0  0  0  0  0  0  0  0  0  0
  -11.9075    4.8367    5.3620 C   0  0  0  0  0  0  0  0  0  0  0  0
  -12.6697    4.3469    4.3664 C   0  0  0  0  0  0  0  0  0  0  0  0
  -12.1052    4.1720    3.0750 C   0  0  0  0  0  0  0  0  0  0  0  0
  -12.6141    3.7608    1.9333 N   0  0  0  0  0  0  0  0  0  0  0  0
  -11.6099    3.7835    0.9927 N   0  0  0  0  0  0  0  0  0  0  0  0
  -10.5155    4.2049    1.5867 C   0  0  0  0  0  0  0  0  0  0  0  0
  -10.7633    4.4926    2.9043 N   0  0  0  0  0  0  0  0  0  0  0  0
   -8.2260    2.7243    3.8900 N   0  0  0  0  0  0  0  0  0  0  0  0
   -7.2292    1.7898    4.0240 C   0  0  0  0  0  0  0  0  0  0  0  0
   -7.3245    0.4022    4.2017 C   0  0  0  0  0  0  0  0  0  0  0  0
   -6.1545   -0.3629    4.3211 C   0  0  0  0  0  0  0  0  0  0  0  0
   -6.2827   -1.8400    4.6920 C   0  0  0  0  0  0  0  0  0  0  0  0
   -6.6455   -1.9528    6.1207 C   0  0  0  0  0  0  0  0  0  0  0  0
   -7.8622   -1.9996    6.6252 N   0  0  0  0  0  0  0  0  0  0  0  0
   -7.8315   -1.2983    7.8101 N   0  0  0  0  0  0  0  0  0  0  0  0
   -6.5892   -0.9115    7.9910 C   0  0  0  0  0  0  0  0  0  0  0  0
   -5.7924   -1.5905    7.1163 N   0  0  0  0  0  0  0  0  0  0  0  0
   -4.3561   -1.4802    7.1200 C   0  0  0  0  0  0  0  0  0  0  0  0
   -3.9399   -0.1078    7.6298 C   0  0  0  0  0  0  0  0  0  0  0  0
   -4.5865    0.2215    8.8969 N   0  0  0  0  0  0  0  0  0  0  0  0
   -6.0636    0.2051    8.7972 C   0  0  0  0  0  0  0  0  0  0  0  0
   -3.8192    2.1652    4.0616 H   0  0  0  0  0  0  0  0  0  0  0  0
   -5.5792    4.4842    3.7844 H   0  0  0  0  0  0  0  0  0  0  0  0
   -9.9576    5.5937    5.9892 H   0  0  0  0  0  0  0  0  0  0  0  0
  -12.3161    4.9687    6.3597 H   0  0  0  0  0  0  0  0  0  0  0  0
  -13.7071    4.0737    4.5225 H   0  0  0  0  0  0  0  0  0  0  0  0
   -9.5484    4.3188    1.1216 H   0  0  0  0  0  0  0  0  0  0  0  0
   -8.3084   -0.0542    4.2880 H   0  0  0  0  0  0  0  0  0  0  0  0
   -7.0313   -2.3207    4.0529 H   0  0  0  0  0  0  0  0  0  0  0  0
   -5.3358   -2.3349    4.5189 H   0  0  0  0  0  0  0  0  0  0  0  0
   -3.9478   -1.6958    6.1354 H   0  0  0  0  0  0  0  0  0  0  0  0
   -3.9775   -2.2627    7.7808 H   0  0  0  0  0  0  0  0  0  0  0  0
   -2.8604   -0.1085    7.7865 H   0  0  0  0  0  0  0  0  0  0  0  0
   -4.1626    0.6785    6.9035 H   0  0  0  0  0  0  0  0  0  0  0  0
   -4.2985   -0.4483    9.6175 H   0  0  0  0  0  0  0  0  0  0  0  0
   -6.5160    0.1550    9.7905 H   0  0  0  0  0  0  0  0  0  0  0  0
   -6.3883    1.1510    8.3478 H   0  0  0  0  0  0  0  0  0  0  0  0
  1  2  1  0
  2  3  2  0
  3  4  1  0
  4  5  1  0
  5  6  1  0
  6  7  1  0
  7  8  1  0
  8  9  2  0
  9 10  1  0
 10 11  2  0
 11 12  1  0
 12 13  2  0
 13 14  1  0
 14 15  2  0
 15 16  1  0
  6 17  2  0
 17 18  1  0
 18 19  1  0
 19 20  2  0
 20 21  1  0
 21 22  1  0
 22 23  2  0
 23 24  1  0
 24 25  2  0
 25 26  1  0
 26 27  1  0
 27 28  1  0
 28 29  1  0
 29 30  1  0
 20  2  1  0
 26 22  1  0
 18  4  2  0
 30 25  1  0
 16  8  1  0
 16 12  1  0
  3 31  1  0
  5 32  1  0
  9 33  1  0
 10 34  1  0
 11 35  1  0
 15 36  1  0
 19 37  1  0
 21 38  1  0
 21 39  1  0
 27 40  1  0
 27 41  1  0
 28 42  1  0
 28 43  1  0
 29 44  1  0
 30 45  1  0
 30 46  1  0
M  END
>  <Energy>  (469) 
56.431137680134263

>  <compound_id>  (469) 
766

>  <target_id>  (469) 
1

>  <reference_id>  (469) 
24

>  <inspiration_ids>  (469) 
[65, 24]

>  <energy_score>  (469) 
-30.471835599581823

>  <distance_score>  (469) 
1.5740990438155038

>  <path>  (469) 
/opt/xchem-fragalysis-2/maxwin/BulkDock/SCRATCH/505733/C766-P24/C766-P24.minimised.mol

>  <scratch_subdir>  (469) 
/opt/xchem-fragalysis-2/maxwin/BulkDock/SCRATCH/505733/C766-P24

>  <fragmenstein_runtime>  (469) 
3.7001547813415527

>  <fragmenstein_outcome>  (469) 
too moved

>  <fragmenstein_mode>  (469) 
expansion

>  <fragmenstein_error>  (469) 


$$$$
C767-P65
     RDKit          3D

 27 28  0  0  0  0  0  0  0  0999 V2000
   -6.0174    2.1059    5.6996 N   0  0  0  0  0  0  0  0  0  0  0  0
   -6.2794    1.1108    6.7237 C   0  0  0  0  0  0  0  0  0  0  0  0
   -5.3350   -0.0747    6.6264 C   0  0  0  0  0  0  0  0  0  0  0  0
   -5.5890   -1.1672    5.7745 C   0  0  0  0  0  0  0  0  0  0  0  0
   -4.9087   -2.3638    5.9427 C   0  0  0  0  0  0  0  0  0  0  0  0
   -3.9211   -2.4545    6.9127 C   0  0  0  0  0  0  0  0  0  0  0  0
   -3.5451   -1.3345    7.6462 C   0  0  0  0  0  0  0  0  0  0  0  0
   -4.2428   -0.1437    7.4998 C   0  0  0  0  0  0  0  0  0  0  0  0
   -7.6639    0.4847    6.7225 C   0  0  0  0  0  0  0  0  0  0  0  0
   -8.0823   -0.3402    7.8440 C   0  0  0  0  0  0  0  0  0  0  0  0
   -9.2978   -0.9446    7.6814 C   0  0  0  0  0  0  0  0  0  0  0  0
   -9.9891   -0.5283    6.1959 S   0  0  0  0  0  0  0  0  0  0  0  0
   -8.6620    0.4790    5.7476 C   0  0  0  0  0  0  0  0  0  0  0  0
   -8.7531    1.0853    4.4399 C   0  0  0  0  0  0  0  0  0  0  0  0
   -9.7441    1.5271    3.8738 O   0  0  0  0  0  0  0  0  0  0  0  0
   -7.5773    1.0518    3.7662 O   0  0  0  0  0  0  0  0  0  0  0  0
   -6.2253    1.6597    4.8009 H   0  0  0  0  0  0  0  0  0  0  0  0
   -5.0099    2.2329    5.6908 H   0  0  0  0  0  0  0  0  0  0  0  0
   -6.1515    1.6145    7.6855 H   0  0  0  0  0  0  0  0  0  0  0  0
   -6.3907   -1.1346    5.0414 H   0  0  0  0  0  0  0  0  0  0  0  0
   -5.1775   -3.2322    5.3491 H   0  0  0  0  0  0  0  0  0  0  0  0
   -3.4373   -3.4083    7.1061 H   0  0  0  0  0  0  0  0  0  0  0  0
   -2.7475   -1.4111    8.3786 H   0  0  0  0  0  0  0  0  0  0  0  0
   -3.9840    0.6985    8.1345 H   0  0  0  0  0  0  0  0  0  0  0  0
   -7.4699   -0.5409    8.7109 H   0  0  0  0  0  0  0  0  0  0  0  0
   -9.7950   -1.6212    8.3646 H   0  0  0  0  0  0  0  0  0  0  0  0
   -7.8359    1.4468    2.9065 H   0  0  0  0  0  0  0  0  0  0  0  0
  1  2  1  0
  2  3  1  0
  3  4  2  0
  4  5  1  0
  5  6  2  0
  6  7  1  0
  7  8  2  0
  2  9  1  0
  9 10  1  0
 10 11  2  0
 11 12  1  0
 12 13  1  0
 13 14  1  0
 14 15  2  0
 14 16  1  0
  8  3  1  0
 13  9  2  0
  1 17  1  0
  1 18  1  0
  2 19  1  0
  4 20  1  0
  5 21  1  0
  6 22  1  0
  7 23  1  0
  8 24  1  0
 10 25  1  0
 11 26  1  0
 16 27  1  0
M  END
>  <Energy>  (470) 
11.679620574488549

>  <compound_id>  (470) 
767

>  <target_id>  (470) 
1

>  <reference_id>  (470) 
65

>  <inspiration_ids>  (470) 
[65, 33]

>  <energy_score>  (470) 
-46.45522464763829

>  <distance_score>  (470) 
2.1741121410941036

>  <path>  (470) 
/opt/xchem-fragalysis-2/maxwin/BulkDock/SCRATCH/505733/C767-P65/C767-P65.minimised.mol

>  <scratch_subdir>  (470) 
/opt/xchem-fragalysis-2/maxwin/BulkDock/SCRATCH/505733/C767-P65

>  <fragmenstein_runtime>  (470) 
1.5990519523620605

>  <fragmenstein_outcome>  (470) 
too moved

>  <fragmenstein_mode>  (470) 
expansion

>  <fragmenstein_error>  (470) 


$$$$
C767-P33
     RDKit          3D

 27 28  0  0  0  0  0  0  0  0999 V2000
   -5.9411    2.3368    5.7479 N   0  0  0  0  0  0  0  0  0  0  0  0
   -6.1132    1.3792    6.8238 C   0  0  0  0  0  0  0  0  0  0  0  0
   -5.2563    0.1334    6.7001 C   0  0  0  0  0  0  0  0  0  0  0  0
   -5.5191   -0.8740    5.7512 C   0  0  0  0  0  0  0  0  0  0  0  0
   -4.9406   -2.1323    5.8691 C   0  0  0  0  0  0  0  0  0  0  0  0
   -4.0337   -2.3727    6.8900 C   0  0  0  0  0  0  0  0  0  0  0  0
   -3.6473   -1.3426    7.7387 C   0  0  0  0  0  0  0  0  0  0  0  0
   -4.2618   -0.0994    7.6574 C   0  0  0  0  0  0  0  0  0  0  0  0
   -7.5124    0.8042    7.0045 C   0  0  0  0  0  0  0  0  0  0  0  0
   -7.9315    0.3466    8.3161 C   0  0  0  0  0  0  0  0  0  0  0  0
   -9.0937   -0.3784    8.2945 C   0  0  0  0  0  0  0  0  0  0  0  0
   -9.7317   -0.4910    6.7316 S   0  0  0  0  0  0  0  0  0  0  0  0
   -8.5033    0.5153    6.0563 C   0  0  0  0  0  0  0  0  0  0  0  0
   -8.5539    0.8335    4.6398 C   0  0  0  0  0  0  0  0  0  0  0  0
   -7.6728    1.3342    3.9530 O   0  0  0  0  0  0  0  0  0  0  0  0
   -9.7378    0.5336    4.0555 O   0  0  0  0  0  0  0  0  0  0  0  0
   -6.6022    3.0978    5.8941 H   0  0  0  0  0  0  0  0  0  0  0  0
   -6.2418    1.8949    4.8725 H   0  0  0  0  0  0  0  0  0  0  0  0
   -5.8523    1.9081    7.7479 H   0  0  0  0  0  0  0  0  0  0  0  0
   -6.2342   -0.7173    4.9513 H   0  0  0  0  0  0  0  0  0  0  0  0
   -5.2109   -2.9254    5.1781 H   0  0  0  0  0  0  0  0  0  0  0  0
   -3.6056   -3.3631    7.0189 H   0  0  0  0  0  0  0  0  0  0  0  0
   -2.8923   -1.5246    8.4935 H   0  0  0  0  0  0  0  0  0  0  0  0
   -3.9995    0.6671    8.3803 H   0  0  0  0  0  0  0  0  0  0  0  0
   -7.3454    0.4693    9.2193 H   0  0  0  0  0  0  0  0  0  0  0  0
   -9.5884   -0.8715    9.1214 H   0  0  0  0  0  0  0  0  0  0  0  0
   -9.6091    0.8034    3.1238 H   0  0  0  0  0  0  0  0  0  0  0  0
  1  2  1  0
  2  3  1  0
  3  4  2  0
  4  5  1  0
  5  6  2  0
  6  7  1  0
  7  8  2  0
  2  9  1  0
  9 10  1  0
 10 11  2  0
 11 12  1  0
 12 13  1  0
 13 14  1  0
 14 15  2  0
 14 16  1  0
  8  3  1  0
 13  9  2  0
  1 17  1  0
  1 18  1  0
  2 19  1  0
  4 20  1  0
  5 21  1  0
  6 22  1  0
  7 23  1  0
  8 24  1  0
 10 25  1  0
 11 26  1  0
 16 27  1  0
M  END
>  <Energy>  (471) 
11.136958964202492

>  <compound_id>  (471) 
767

>  <target_id>  (471) 
1

>  <reference_id>  (471) 
33

>  <inspiration_ids>  (471) 
[65, 33]

>  <energy_score>  (471) 
-46.99788625792465

>  <distance_score>  (471) 
1.9828856462934068

>  <path>  (471) 
/opt/xchem-fragalysis-2/maxwin/BulkDock/SCRATCH/505733/C767-P33/C767-P33.minimised.mol

>  <scratch_subdir>  (471) 
/opt/xchem-fragalysis-2/maxwin/BulkDock/SCRATCH/505733/C767-P33

>  <fragmenstein_runtime>  (471) 
1.5812125205993652

>  <fragmenstein_outcome>  (471) 
too moved

>  <fragmenstein_mode>  (471) 
expansion

>  <fragmenstein_error>  (471) 


$$$$
C768-P65
     RDKit          3D

 23 24  0  0  0  0  0  0  0  0999 V2000
   -5.2554   -2.3037    6.2827 C   0  0  0  0  0  0  0  0  0  0  0  0
   -5.4606   -0.8631    6.4533 N   0  0  0  0  0  0  0  0  0  0  0  0
   -5.0872   -0.0613    5.2924 C   0  0  0  0  0  0  0  0  0  0  0  0
   -6.7569   -0.5954    6.8950 C   0  0  0  0  0  0  0  0  0  0  0  0
   -7.0810    0.6540    7.4243 C   0  0  0  0  0  0  0  0  0  0  0  0
   -8.3250    0.8009    8.0734 C   0  0  0  0  0  0  0  0  0  0  0  0
   -8.8824    1.8768    8.8501 C   0  0  0  0  0  0  0  0  0  0  0  0
  -10.0709    1.5364    9.4346 C   0  0  0  0  0  0  0  0  0  0  0  0
  -10.7218    2.3365   10.2975 F   0  0  0  0  0  0  0  0  0  0  0  0
  -10.6265    0.0197    8.9549 S   0  0  0  0  0  0  0  0  0  0  0  0
   -9.1782   -0.2985    8.0621 C   0  0  0  0  0  0  0  0  0  0  0  0
   -8.8219   -1.4593    7.3948 C   0  0  0  0  0  0  0  0  0  0  0  0
   -9.6438   -2.5363    7.2560 O   0  0  0  0  0  0  0  0  0  0  0  0
   -7.6309   -1.6069    6.8374 N   0  0  0  0  0  0  0  0  0  0  0  0
   -4.1974   -2.4914    6.0682 H   0  0  0  0  0  0  0  0  0  0  0  0
   -5.4831   -2.8644    7.1945 H   0  0  0  0  0  0  0  0  0  0  0  0
   -5.8310   -2.7123    5.4425 H   0  0  0  0  0  0  0  0  0  0  0  0
   -5.0896    1.0095    5.5207 H   0  0  0  0  0  0  0  0  0  0  0  0
   -5.7581   -0.2434    4.4444 H   0  0  0  0  0  0  0  0  0  0  0  0
   -4.0695   -0.3146    4.9752 H   0  0  0  0  0  0  0  0  0  0  0  0
   -6.3455    1.4480    7.4574 H   0  0  0  0  0  0  0  0  0  0  0  0
   -8.3874    2.8205    9.0332 H   0  0  0  0  0  0  0  0  0  0  0  0
   -9.0678   -3.1469    6.7681 H   0  0  0  0  0  0  0  0  0  0  0  0
  1  2  1  0
  2  3  1  0
  2  4  1  0
  4  5  2  0
  5  6  1  0
  6  7  1  0
  7  8  2  0
  8  9  1  0
  8 10  1  0
 10 11  1  0
 11 12  1  0
 12 13  1  0
 12 14  2  0
 14  4  1  0
 11  6  2  0
  1 15  1  0
  1 16  1  0
  1 17  1  0
  3 18  1  0
  3 19  1  0
  3 20  1  0
  5 21  1  0
  7 22  1  0
 13 23  1  0
M  END
>  <Energy>  (472) 
-38.827318628326161

>  <compound_id>  (472) 
768

>  <target_id>  (472) 
1

>  <reference_id>  (472) 
65

>  <inspiration_ids>  (472) 
[65, 37]

>  <energy_score>  (472) 
-47.18715182430496

>  <distance_score>  (472) 
2.8110852644489936

>  <path>  (472) 
/opt/xchem-fragalysis-2/maxwin/BulkDock/SCRATCH/505733/C768-P65/C768-P65.minimised.mol

>  <scratch_subdir>  (472) 
/opt/xchem-fragalysis-2/maxwin/BulkDock/SCRATCH/505733/C768-P65

>  <fragmenstein_runtime>  (472) 
3.8886845111846924

>  <fragmenstein_outcome>  (472) 
too moved

>  <fragmenstein_mode>  (472) 
expansion

>  <fragmenstein_error>  (472) 


$$$$
C768-P37
     RDKit          3D

 23 24  0  0  0  0  0  0  0  0999 V2000
   -6.1854    0.2495    6.1246 C   0  0  0  0  0  0  0  0  0  0  0  0
   -5.7900   -0.6006    7.2502 N   0  0  0  0  0  0  0  0  0  0  0  0
   -4.6300   -0.1624    8.0064 C   0  0  0  0  0  0  0  0  0  0  0  0
   -6.9861   -0.7879    7.9282 C   0  0  0  0  0  0  0  0  0  0  0  0
   -7.3792    0.1288    8.8968 C   0  0  0  0  0  0  0  0  0  0  0  0
   -8.7463    0.3020    9.1193 C   0  0  0  0  0  0  0  0  0  0  0  0
   -9.4364    1.2342    9.9501 C   0  0  0  0  0  0  0  0  0  0  0  0
  -10.7877    1.1142    9.8406 C   0  0  0  0  0  0  0  0  0  0  0  0
  -11.6253    1.8886   10.5479 F   0  0  0  0  0  0  0  0  0  0  0  0
  -11.2634   -0.0764    8.7419 S   0  0  0  0  0  0  0  0  0  0  0  0
   -9.6177   -0.5012    8.3864 C   0  0  0  0  0  0  0  0  0  0  0  0
   -9.1266   -1.4829    7.5299 C   0  0  0  0  0  0  0  0  0  0  0  0
   -9.9163   -2.3013    6.7725 O   0  0  0  0  0  0  0  0  0  0  0  0
   -7.8257   -1.6296    7.3124 N   0  0  0  0  0  0  0  0  0  0  0  0
   -6.5921   -0.3428    5.2980 H   0  0  0  0  0  0  0  0  0  0  0  0
   -6.9239    1.0235    6.3815 H   0  0  0  0  0  0  0  0  0  0  0  0
   -5.3251    0.8206    5.7721 H   0  0  0  0  0  0  0  0  0  0  0  0
   -3.7163   -0.4314    7.4696 H   0  0  0  0  0  0  0  0  0  0  0  0
   -4.5698   -0.6406    8.9860 H   0  0  0  0  0  0  0  0  0  0  0  0
   -4.6289    0.9219    8.1277 H   0  0  0  0  0  0  0  0  0  0  0  0
   -6.6834    0.8170    9.3377 H   0  0  0  0  0  0  0  0  0  0  0  0
   -8.9690    1.9589   10.6008 H   0  0  0  0  0  0  0  0  0  0  0  0
   -9.2238   -2.8643    6.3803 H   0  0  0  0  0  0  0  0  0  0  0  0
  1  2  1  0
  2  3  1  0
  2  4  1  0
  4  5  2  0
  5  6  1  0
  6  7  1  0
  7  8  2  0
  8  9  1  0
  8 10  1  0
 10 11  1  0
 11 12  1  0
 12 13  1  0
 12 14  2  0
 14  4  1  0
 11  6  2  0
  1 15  1  0
  1 16  1  0
  1 17  1  0
  3 18  1  0
  3 19  1  0
  3 20  1  0
  5 21  1  0
  7 22  1  0
 13 23  1  0
M  END
>  <Energy>  (473) 
-23.836043601448665

>  <compound_id>  (473) 
768

>  <target_id>  (473) 
1

>  <reference_id>  (473) 
37

>  <inspiration_ids>  (473) 
[65, 37]

>  <energy_score>  (473) 
-32.19587679742932

>  <distance_score>  (473) 
2.8811271794536655

>  <path>  (473) 
/opt/xchem-fragalysis-2/maxwin/BulkDock/SCRATCH/505733/C768-P37/C768-P37.minimised.mol

>  <scratch_subdir>  (473) 
/opt/xchem-fragalysis-2/maxwin/BulkDock/SCRATCH/505733/C768-P37

>  <fragmenstein_runtime>  (473) 
3.8910861015319824

>  <fragmenstein_outcome>  (473) 
too moved

>  <fragmenstein_mode>  (473) 
expansion

>  <fragmenstein_error>  (473) 


$$$$
C771-P65
     RDKit          3D

 35 36  0  0  0  0  0  0  0  0999 V2000
   -5.8836    0.0166    1.9394 C   0  0  0  0  0  0  0  0  0  0  0  0
   -5.0372   -0.7665    2.9225 C   0  0  0  0  0  0  0  0  0  0  0  0
   -4.1985   -1.5283    2.5240 O   0  0  0  0  0  0  0  0  0  0  0  0
   -5.3965   -0.3957    4.2502 N   0  0  0  0  0  0  0  0  0  0  0  0
   -4.7702   -0.7503    5.5732 C   0  0  0  0  0  0  0  0  0  0  0  0
   -4.9354    0.3232    6.6694 C   0  0  0  0  0  0  0  0  0  0  0  0
   -6.1697    1.0910    6.5807 N   0  0  0  0  0  0  0  0  0  0  0  0
   -5.9496    2.4930    6.5341 O   0  0  0  0  0  0  0  0  0  0  0  0
   -7.3715    0.6733    6.0463 C   0  0  0  0  0  0  0  0  0  0  0  0
   -8.2004    1.5142    5.6834 O   0  0  0  0  0  0  0  0  0  0  0  0
   -7.5559   -0.8332    5.8413 C   0  0  0  0  0  0  0  0  0  0  0  0
   -6.5040   -1.3221    4.7743 C   0  0  0  0  0  0  0  0  0  0  0  0
   -7.3085   -1.7569    7.4182 S   0  0  0  0  0  0  0  0  0  0  0  0
   -8.5458   -3.0437    7.1168 C   0  0  0  0  0  0  0  0  0  0  0  0
   -9.0228   -2.8103    5.6974 C   0  0  0  0  0  0  0  0  0  0  0  0
   -8.9990   -1.2929    5.4434 C   0  0  0  0  0  0  0  0  0  0  0  0
  -10.1671   -0.6258    6.1904 C   0  0  0  0  0  0  0  0  0  0  0  0
   -6.5398    0.7332    2.4422 H   0  0  0  0  0  0  0  0  0  0  0  0
   -5.2237    0.5700    1.2654 H   0  0  0  0  0  0  0  0  0  0  0  0
   -6.4990   -0.6806    1.3643 H   0  0  0  0  0  0  0  0  0  0  0  0
   -3.6993   -0.6895    5.3179 H   0  0  0  0  0  0  0  0  0  0  0  0
   -4.7626   -1.7908    5.9412 H   0  0  0  0  0  0  0  0  0  0  0  0
   -4.0977    1.0278    6.6225 H   0  0  0  0  0  0  0  0  0  0  0  0
   -4.8815   -0.1391    7.6595 H   0  0  0  0  0  0  0  0  0  0  0  0
   -6.8255    2.8150    6.2259 H   0  0  0  0  0  0  0  0  0  0  0  0
   -7.1188   -1.4134    3.8630 H   0  0  0  0  0  0  0  0  0  0  0  0
   -6.1961   -2.3818    4.8579 H   0  0  0  0  0  0  0  0  0  0  0  0
   -9.3592   -2.9232    7.8358 H   0  0  0  0  0  0  0  0  0  0  0  0
   -8.1154   -4.0411    7.2433 H   0  0  0  0  0  0  0  0  0  0  0  0
  -10.0161   -3.2418    5.5514 H   0  0  0  0  0  0  0  0  0  0  0  0
   -8.3638   -3.3239    4.9876 H   0  0  0  0  0  0  0  0  0  0  0  0
   -9.1740   -1.1079    4.3758 H   0  0  0  0  0  0  0  0  0  0  0  0
  -10.3277    0.3963    5.8362 H   0  0  0  0  0  0  0  0  0  0  0  0
  -10.0137   -0.5828    7.2726 H   0  0  0  0  0  0  0  0  0  0  0  0
  -11.1023   -1.1647    6.0073 H   0  0  0  0  0  0  0  0  0  0  0  0
  1  2  1  0
  2  3  2  0
  2  4  1  0
  4  5  1  0
  5  6  1  0
  6  7  1  0
  7  8  1  0
  7  9  1  0
  9 10  2  0
  9 11  1  0
 11 12  1  0
 11 13  1  0
 13 14  1  0
 14 15  1  0
 15 16  1  0
 16 17  1  0
 12  4  1  0
 16 11  1  0
  1 18  1  0
  1 19  1  0
  1 20  1  0
  5 21  1  0
  5 22  1  0
  6 23  1  0
  6 24  1  0
  8 25  1  0
 12 26  1  0
 12 27  1  0
 14 28  1  0
 14 29  1  0
 15 30  1  0
 15 31  1  0
 16 32  1  0
 17 33  1  0
 17 34  1  0
 17 35  1  0
M  END
>  <Energy>  (474) 
162.25328063822818

>  <compound_id>  (474) 
771

>  <target_id>  (474) 
1

>  <reference_id>  (474) 
65

>  <inspiration_ids>  (474) 
[65, 73]

>  <energy_score>  (474) 
33.495654145915694

>  <distance_score>  (474) 
2.6504557957578876

>  <path>  (474) 
/opt/xchem-fragalysis-2/maxwin/BulkDock/SCRATCH/505733/C771-P65/C771-P65.minimised.mol

>  <scratch_subdir>  (474) 
/opt/xchem-fragalysis-2/maxwin/BulkDock/SCRATCH/505733/C771-P65

>  <fragmenstein_runtime>  (474) 
4.7795000076293945

>  <fragmenstein_outcome>  (474) 
too moved

>  <fragmenstein_mode>  (474) 
expansion

>  <fragmenstein_error>  (474) 


$$$$
C771-P73
     RDKit          3D

 35 36  0  0  0  0  0  0  0  0999 V2000
  -10.9898   -0.1601    9.5574 C   0  0  0  0  0  0  0  0  0  0  0  0
  -10.4765    1.1694    9.0485 C   0  0  0  0  0  0  0  0  0  0  0  0
  -11.1004    2.1638    9.1189 O   0  0  0  0  0  0  0  0  0  0  0  0
   -9.0844    0.9195    8.4928 N   0  0  0  0  0  0  0  0  0  0  0  0
   -8.0562    1.8785    7.9646 C   0  0  0  0  0  0  0  0  0  0  0  0
   -6.6099    1.3850    7.7995 C   0  0  0  0  0  0  0  0  0  0  0  0
   -6.3638    0.8656    6.4734 N   0  0  0  0  0  0  0  0  0  0  0  0
   -5.0904    1.2016    5.9732 O   0  0  0  0  0  0  0  0  0  0  0  0
   -6.9973   -0.1816    5.8562 C   0  0  0  0  0  0  0  0  0  0  0  0
   -6.5119   -0.6702    4.8316 O   0  0  0  0  0  0  0  0  0  0  0  0
   -8.3120   -0.6873    6.5135 C   0  0  0  0  0  0  0  0  0  0  0  0
   -9.1388    0.5589    6.9875 C   0  0  0  0  0  0  0  0  0  0  0  0
   -7.7958   -1.8211    7.8670 S   0  0  0  0  0  0  0  0  0  0  0  0
   -8.0928   -3.3715    6.9980 C   0  0  0  0  0  0  0  0  0  0  0  0
   -8.3516   -2.9845    5.5616 C   0  0  0  0  0  0  0  0  0  0  0  0
   -9.0988   -1.6466    5.5472 C   0  0  0  0  0  0  0  0  0  0  0  0
  -10.5869   -1.9288    5.8562 C   0  0  0  0  0  0  0  0  0  0  0  0
  -11.6873    0.0174   10.3812 H   0  0  0  0  0  0  0  0  0  0  0  0
  -11.5135   -0.6822    8.7535 H   0  0  0  0  0  0  0  0  0  0  0  0
  -10.1739   -0.7802    9.9363 H   0  0  0  0  0  0  0  0  0  0  0  0
   -8.3904    2.6487    7.2471 H   0  0  0  0  0  0  0  0  0  0  0  0
   -7.9760    2.5266    8.8536 H   0  0  0  0  0  0  0  0  0  0  0  0
   -6.3441    0.6292    8.5437 H   0  0  0  0  0  0  0  0  0  0  0  0
   -5.9416    2.2420    7.9304 H   0  0  0  0  0  0  0  0  0  0  0  0
   -4.9035    0.4538    5.3620 H   0  0  0  0  0  0  0  0  0  0  0  0
   -9.1987    1.3584    6.2253 H   0  0  0  0  0  0  0  0  0  0  0  0
  -10.1824    0.2336    6.9176 H   0  0  0  0  0  0  0  0  0  0  0  0
   -8.9604   -3.8652    7.4418 H   0  0  0  0  0  0  0  0  0  0  0  0
   -7.2362   -4.0445    7.0858 H   0  0  0  0  0  0  0  0  0  0  0  0
   -8.9398   -3.7484    5.0508 H   0  0  0  0  0  0  0  0  0  0  0  0
   -7.4042   -2.9181    5.0157 H   0  0  0  0  0  0  0  0  0  0  0  0
   -9.0651   -1.2407    4.5275 H   0  0  0  0  0  0  0  0  0  0  0  0
  -11.2052   -1.0544    5.6305 H   0  0  0  0  0  0  0  0  0  0  0  0
  -10.7475   -2.2050    6.9022 H   0  0  0  0  0  0  0  0  0  0  0  0
  -10.9689   -2.7440    5.2313 H   0  0  0  0  0  0  0  0  0  0  0  0
  1  2  1  0
  2  3  2  0
  2  4  1  0
  4  5  1  0
  5  6  1  0
  6  7  1  0
  7  8  1  0
  7  9  1  0
  9 10  2  0
  9 11  1  0
 11 12  1  0
 11 13  1  0
 13 14  1  0
 14 15  1  0
 15 16  1  0
 16 17  1  0
 12  4  1  0
 16 11  1  0
  1 18  1  0
  1 19  1  0
  1 20  1  0
  5 21  1  0
  5 22  1  0
  6 23  1  0
  6 24  1  0
  8 25  1  0
 12 26  1  0
 12 27  1  0
 14 28  1  0
 14 29  1  0
 15 30  1  0
 15 31  1  0
 16 32  1  0
 17 33  1  0
 17 34  1  0
 17 35  1  0
M  END
>  <Energy>  (475) 
166.515316897074

>  <compound_id>  (475) 
771

>  <target_id>  (475) 
1

>  <reference_id>  (475) 
73

>  <inspiration_ids>  (475) 
[65, 73]

>  <energy_score>  (475) 
25.111089696436068

>  <distance_score>  (475) 
3.6750079807678375

>  <path>  (475) 
/opt/xchem-fragalysis-2/maxwin/BulkDock/SCRATCH/505733/C771-P73/C771-P73.minimised.mol

>  <scratch_subdir>  (475) 
/opt/xchem-fragalysis-2/maxwin/BulkDock/SCRATCH/505733/C771-P73

>  <fragmenstein_runtime>  (475) 
3.5140323638916016

>  <fragmenstein_outcome>  (475) 
too moved

>  <fragmenstein_mode>  (475) 
expansion

>  <fragmenstein_error>  (475) 


$$$$
C772-P65
     RDKit          3D

 21 21  0  0  0  0  0  0  0  0999 V2000
   -6.0869    1.4487    6.9669 C   0  0  0  0  0  0  0  0  0  0  0  0
   -6.5472    0.0381    6.9789 C   0  0  0  0  0  0  0  0  0  0  0  0
   -5.9550   -1.0454    6.4444 C   0  0  0  0  0  0  0  0  0  0  0  0
   -4.6869   -1.0325    5.7367 C   0  0  0  0  0  0  0  0  0  0  0  0
   -3.8678   -0.1340    5.7253 O   0  0  0  0  0  0  0  0  0  0  0  0
   -4.4766   -2.1555    5.0380 O   0  0  0  0  0  0  0  0  0  0  0  0
   -6.6827   -2.2863    6.8607 C   0  0  0  0  0  0  0  0  0  0  0  0
   -7.2062   -3.2306    5.7899 C   0  0  0  0  0  0  0  0  0  0  0  0
   -7.9340   -4.2569    6.4667 O   0  0  0  0  0  0  0  0  0  0  0  0
   -7.8291   -1.7028    7.6586 C   0  0  0  0  0  0  0  0  0  0  0  0
   -7.7331   -0.3701    7.6931 C   0  0  0  0  0  0  0  0  0  0  0  0
   -6.7677    2.1032    7.5214 H   0  0  0  0  0  0  0  0  0  0  0  0
   -6.0413    1.8266    5.9400 H   0  0  0  0  0  0  0  0  0  0  0  0
   -5.0933    1.5442    7.4154 H   0  0  0  0  0  0  0  0  0  0  0  0
   -3.5982   -1.9871    4.6417 H   0  0  0  0  0  0  0  0  0  0  0  0
   -6.0296   -2.8609    7.5180 H   0  0  0  0  0  0  0  0  0  0  0  0
   -7.8792   -2.7299    5.0856 H   0  0  0  0  0  0  0  0  0  0  0  0
   -6.3962   -3.7057    5.2306 H   0  0  0  0  0  0  0  0  0  0  0  0
   -8.1788   -4.9320    5.8032 H   0  0  0  0  0  0  0  0  0  0  0  0
   -8.6045   -2.2921    8.1316 H   0  0  0  0  0  0  0  0  0  0  0  0
   -8.4125    0.2956    8.2039 H   0  0  0  0  0  0  0  0  0  0  0  0
  1  2  1  0
  2  3  2  0
  3  4  1  0
  4  5  2  0
  4  6  1  0
  3  7  1  0
  7  8  1  0
  8  9  1  0
  7 10  1  0
 10 11  2  0
 11  2  1  0
  1 12  1  0
  1 13  1  0
  1 14  1  0
  6 15  1  0
  7 16  1  0
  8 17  1  0
  8 18  1  0
  9 19  1  0
 10 20  1  0
 11 21  1  0
M  END
>  <Energy>  (476) 
5.2632872293953774

>  <compound_id>  (476) 
772

>  <target_id>  (476) 
1

>  <reference_id>  (476) 
65

>  <inspiration_ids>  (476) 
[65, 74]

>  <energy_score>  (476) 
-19.19657954842043

>  <distance_score>  (476) 
1.1208354599396462

>  <path>  (476) 
/opt/xchem-fragalysis-2/maxwin/BulkDock/SCRATCH/505733/C772-P65/C772-P65.minimised.mol

>  <scratch_subdir>  (476) 
/opt/xchem-fragalysis-2/maxwin/BulkDock/SCRATCH/505733/C772-P65

>  <fragmenstein_runtime>  (476) 
1.195328712463379

>  <fragmenstein_outcome>  (476) 
too moved

>  <fragmenstein_mode>  (476) 
expansion

>  <fragmenstein_error>  (476) 


$$$$
C772-P74
     RDKit          3D

 21 21  0  0  0  0  0  0  0  0999 V2000
   -6.4856    1.5203    6.8827 C   0  0  0  0  0  0  0  0  0  0  0  0
   -6.6461    0.0503    6.9677 C   0  0  0  0  0  0  0  0  0  0  0  0
   -6.0658   -0.9516    6.2775 C   0  0  0  0  0  0  0  0  0  0  0  0
   -5.0837   -0.8178    5.2039 C   0  0  0  0  0  0  0  0  0  0  0  0
   -4.7605    0.1988    4.6190 O   0  0  0  0  0  0  0  0  0  0  0  0
   -4.5377   -1.9971    4.8699 O   0  0  0  0  0  0  0  0  0  0  0  0
   -6.5610   -2.2771    6.7964 C   0  0  0  0  0  0  0  0  0  0  0  0
   -7.1922   -3.2270    5.7803 C   0  0  0  0  0  0  0  0  0  0  0  0
   -7.7722   -4.3192    6.4918 O   0  0  0  0  0  0  0  0  0  0  0  0
   -7.5878   -1.8282    7.8131 C   0  0  0  0  0  0  0  0  0  0  0  0
   -7.5948   -0.4965    7.9092 C   0  0  0  0  0  0  0  0  0  0  0  0
   -7.4559    2.0008    6.7136 H   0  0  0  0  0  0  0  0  0  0  0  0
   -5.8346    1.8319    6.0639 H   0  0  0  0  0  0  0  0  0  0  0  0
   -6.0706    1.9203    7.8082 H   0  0  0  0  0  0  0  0  0  0  0  0
   -3.9191   -1.7601    4.1484 H   0  0  0  0  0  0  0  0  0  0  0  0
   -5.7503   -2.7976    7.3179 H   0  0  0  0  0  0  0  0  0  0  0  0
   -7.9815   -2.7375    5.1992 H   0  0  0  0  0  0  0  0  0  0  0  0
   -6.4485   -3.6292    5.0871 H   0  0  0  0  0  0  0  0  0  0  0  0
   -8.0728   -4.9820    5.8376 H   0  0  0  0  0  0  0  0  0  0  0  0
   -8.2204   -2.5035    8.3738 H   0  0  0  0  0  0  0  0  0  0  0  0
   -8.2306    0.0848    8.5615 H   0  0  0  0  0  0  0  0  0  0  0  0
  1  2  1  0
  2  3  2  0
  3  4  1  0
  4  5  2  0
  4  6  1  0
  3  7  1  0
  7  8  1  0
  8  9  1  0
  7 10  1  0
 10 11  2  0
 11  2  1  0
  1 12  1  0
  1 13  1  0
  1 14  1  0
  6 15  1  0
  7 16  1  0
  8 17  1  0
  8 18  1  0
  9 19  1  0
 10 20  1  0
 11 21  1  0
M  END
>  <Energy>  (477) 
3.0512305413100069

>  <compound_id>  (477) 
772

>  <target_id>  (477) 
1

>  <reference_id>  (477) 
74

>  <inspiration_ids>  (477) 
[65, 74]

>  <energy_score>  (477) 
-21.408636236505828

>  <distance_score>  (477) 
1.4323493101899711

>  <path>  (477) 
/opt/xchem-fragalysis-2/maxwin/BulkDock/SCRATCH/505733/C772-P74/C772-P74.minimised.mol

>  <scratch_subdir>  (477) 
/opt/xchem-fragalysis-2/maxwin/BulkDock/SCRATCH/505733/C772-P74

>  <fragmenstein_runtime>  (477) 
1.2717502117156982

>  <fragmenstein_outcome>  (477) 
too moved

>  <fragmenstein_mode>  (477) 
expansion

>  <fragmenstein_error>  (477) 


$$$$
C773-P65
     RDKit          3D

 36 38  0  0  0  0  0  0  0  0999 V2000
   -9.7832    4.0256    7.7424 C   0  0  0  0  0  0  0  0  0  0  0  0
   -9.5291    3.6594    6.3143 C   0  0  0  0  0  0  0  0  0  0  0  0
  -10.2746    4.1934    5.2166 C   0  0  0  0  0  0  0  0  0  0  0  0
   -9.8618    3.6986    4.0032 C   0  0  0  0  0  0  0  0  0  0  0  0
   -8.5680    2.6088    4.1642 S   0  0  0  0  0  0  0  0  0  0  0  0
   -8.5670    2.7528    5.8756 C   0  0  0  0  0  0  0  0  0  0  0  0
   -7.6030    2.0135    6.7013 C   0  0  0  0  0  0  0  0  0  0  0  0
   -7.3178    2.4168    7.8237 O   0  0  0  0  0  0  0  0  0  0  0  0
   -7.0010    0.9276    6.0724 N   0  0  0  0  0  0  0  0  0  0  0  0
   -7.2684   -0.7248    5.9830 C   0  0  0  0  0  0  0  0  0  0  0  0
   -7.4070   -1.1783    4.4925 C   0  0  0  0  0  0  0  0  0  0  0  0
   -6.8504   -2.3498    3.9749 C   0  0  0  0  0  0  0  0  0  0  0  0
   -5.9379   -3.0826    4.7364 C   0  0  0  0  0  0  0  0  0  0  0  0
   -5.4795   -2.6330    5.9791 C   0  0  0  0  0  0  0  0  0  0  0  0
   -6.0111   -1.4713    6.5409 C   0  0  0  0  0  0  0  0  0  0  0  0
   -8.0015   -0.5683    6.4996 N   0  0  0  0  0  0  0  0  0  0  0  0
   -9.6283   -0.2387    6.4286 C   0  0  0  0  0  0  0  0  0  0  0  0
   -9.7534   -1.1682    7.6624 C   0  0  0  0  0  0  0  0  0  0  0  0
  -10.8917   -0.9514    8.5242 O   0  0  0  0  0  0  0  0  0  0  0  0
   -8.4212   -0.5090    8.1074 C   0  0  0  0  0  0  0  0  0  0  0  0
   -8.9356    4.5853    8.1504 H   0  0  0  0  0  0  0  0  0  0  0  0
   -9.9430    3.1283    8.3496 H   0  0  0  0  0  0  0  0  0  0  0  0
  -10.6760    4.6531    7.8356 H   0  0  0  0  0  0  0  0  0  0  0  0
  -11.0831    4.9087    5.3152 H   0  0  0  0  0  0  0  0  0  0  0  0
  -10.2574    3.9368    3.0254 H   0  0  0  0  0  0  0  0  0  0  0  0
   -8.0144   -0.5445    3.8463 H   0  0  0  0  0  0  0  0  0  0  0  0
   -7.0868   -2.6591    2.9615 H   0  0  0  0  0  0  0  0  0  0  0  0
   -5.5077   -3.9843    4.3074 H   0  0  0  0  0  0  0  0  0  0  0  0
   -4.6736   -3.1551    6.4869 H   0  0  0  0  0  0  0  0  0  0  0  0
   -5.5574   -1.0525    7.4417 H   0  0  0  0  0  0  0  0  0  0  0  0
   -9.9365    0.7876    6.6267 H   0  0  0  0  0  0  0  0  0  0  0  0
  -10.1018   -0.6071    5.5138 H   0  0  0  0  0  0  0  0  0  0  0  0
   -9.6633   -2.2335    7.4086 H   0  0  0  0  0  0  0  0  0  0  0  0
  -10.9319   -1.7773    9.0576 H   0  0  0  0  0  0  0  0  0  0  0  0
   -7.7762   -1.1315    8.7282 H   0  0  0  0  0  0  0  0  0  0  0  0
   -8.5348    0.4842    8.5462 H   0  0  0  0  0  0  0  0  0  0  0  0
  1  2  1  0
  2  3  1  0
  3  4  2  0
  4  5  1  0
  5  6  1  0
  6  7  1  0
  7  8  2  0
  7  9  1  0
  9 10  1  0
 10 11  2  0
 11 12  1  0
 12 13  2  0
 13 14  1  0
 14 15  2  0
  9 16  1  0
 16 17  1  0
 17 18  1  0
 18 19  1  0
 18 20  1  0
  6  2  2  0
 15 10  1  0
 20 16  1  0
  1 21  1  0
  1 22  1  0
  1 23  1  0
  3 24  1  0
  4 25  1  0
 11 26  1  0
 12 27  1  0
 13 28  1  0
 14 29  1  0
 15 30  1  0
 17 31  1  0
 17 32  1  0
 18 33  1  0
 19 34  1  0
 20 35  1  0
 20 36  1  0
M  END
>  <Energy>  (478) 
598.11029469334972

>  <compound_id>  (478) 
773

>  <target_id>  (478) 
1

>  <reference_id>  (478) 
65

>  <inspiration_ids>  (478) 
[65, 84]

>  <energy_score>  (478) 
424.49626716133116

>  <distance_score>  (478) 
4.284672488032896

>  <path>  (478) 
/opt/xchem-fragalysis-2/maxwin/BulkDock/SCRATCH/505733/C773-P65/C773-P65.minimised.mol

>  <scratch_subdir>  (478) 
/opt/xchem-fragalysis-2/maxwin/BulkDock/SCRATCH/505733/C773-P65

>  <fragmenstein_runtime>  (478) 
3.6725120544433594

>  <fragmenstein_outcome>  (478) 
too moved

>  <fragmenstein_mode>  (478) 
expansion

>  <fragmenstein_error>  (478) 


$$$$
C773-P84
     RDKit          3D

 36 38  0  0  0  0  0  0  0  0999 V2000
   -9.8443    2.3815    4.1507 C   0  0  0  0  0  0  0  0  0  0  0  0
   -8.7760    2.4246    5.1929 C   0  0  0  0  0  0  0  0  0  0  0  0
   -8.8450    3.2938    6.3338 C   0  0  0  0  0  0  0  0  0  0  0  0
   -7.7370    3.2101    7.1410 C   0  0  0  0  0  0  0  0  0  0  0  0
   -6.6016    2.0941    6.5463 S   0  0  0  0  0  0  0  0  0  0  0  0
   -7.6037    1.6745    5.2104 C   0  0  0  0  0  0  0  0  0  0  0  0
   -7.1029    0.6363    4.3066 C   0  0  0  0  0  0  0  0  0  0  0  0
   -5.9046    0.5154    4.0789 O   0  0  0  0  0  0  0  0  0  0  0  0
   -8.1062   -0.1375    3.7306 N   0  0  0  0  0  0  0  0  0  0  0  0
   -8.3831   -1.5774    4.8457 C   0  0  0  0  0  0  0  0  0  0  0  0
   -7.2017   -2.5380    5.0584 C   0  0  0  0  0  0  0  0  0  0  0  0
   -7.1400   -3.3836    6.1640 C   0  0  0  0  0  0  0  0  0  0  0  0
   -8.0388   -3.2299    7.2265 C   0  0  0  0  0  0  0  0  0  0  0  0
   -8.9254   -2.1538    7.3003 C   0  0  0  0  0  0  0  0  0  0  0  0
   -9.0445   -1.2846    6.2216 C   0  0  0  0  0  0  0  0  0  0  0  0
   -8.7998   -1.4167    4.0577 N   0  0  0  0  0  0  0  0  0  0  0  0
   -8.8633   -2.2018    2.5375 C   0  0  0  0  0  0  0  0  0  0  0  0
  -10.2918   -2.6208    2.9504 C   0  0  0  0  0  0  0  0  0  0  0  0
  -11.2192   -2.9497    1.8960 O   0  0  0  0  0  0  0  0  0  0  0  0
  -10.3834   -1.1845    3.5252 C   0  0  0  0  0  0  0  0  0  0  0  0
   -9.4272    2.2025    3.1552 H   0  0  0  0  0  0  0  0  0  0  0  0
  -10.3856    3.3326    4.1099 H   0  0  0  0  0  0  0  0  0  0  0  0
  -10.5666    1.5950    4.3850 H   0  0  0  0  0  0  0  0  0  0  0  0
   -9.6696    3.9647    6.5439 H   0  0  0  0  0  0  0  0  0  0  0  0
   -7.5374    3.7664    8.0463 H   0  0  0  0  0  0  0  0  0  0  0  0
   -6.4363   -2.5875    4.2854 H   0  0  0  0  0  0  0  0  0  0  0  0
   -6.3767   -4.1513    6.2135 H   0  0  0  0  0  0  0  0  0  0  0  0
   -7.9952   -3.9234    8.0624 H   0  0  0  0  0  0  0  0  0  0  0  0
   -9.5019   -1.9888    8.2066 H   0  0  0  0  0  0  0  0  0  0  0  0
   -9.6650   -0.3950    6.3121 H   0  0  0  0  0  0  0  0  0  0  0  0
   -8.7779   -1.5196    1.6817 H   0  0  0  0  0  0  0  0  0  0  0  0
   -8.1381   -3.0160    2.4448 H   0  0  0  0  0  0  0  0  0  0  0  0
  -10.2966   -3.4117    3.7137 H   0  0  0  0  0  0  0  0  0  0  0  0
  -11.8044   -3.6267    2.2937 H   0  0  0  0  0  0  0  0  0  0  0  0
  -10.4964   -0.3761    2.7910 H   0  0  0  0  0  0  0  0  0  0  0  0
  -11.1012   -1.0489    4.3402 H   0  0  0  0  0  0  0  0  0  0  0  0
  1  2  1  0
  2  3  1  0
  3  4  2  0
  4  5  1  0
  5  6  1  0
  6  7  1  0
  7  8  2  0
  7  9  1  0
  9 10  1  0
 10 11  2  0
 11 12  1  0
 12 13  2  0
 13 14  1  0
 14 15  2  0
  9 16  1  0
 16 17  1  0
 17 18  1  0
 18 19  1  0
 18 20  1  0
  6  2  2  0
 15 10  1  0
 20 16  1  0
  1 21  1  0
  1 22  1  0
  1 23  1  0
  3 24  1  0
  4 25  1  0
 11 26  1  0
 12 27  1  0
 13 28  1  0
 14 29  1  0
 15 30  1  0
 17 31  1  0
 17 32  1  0
 18 33  1  0
 19 34  1  0
 20 35  1  0
 20 36  1  0
M  END
>  <Energy>  (479) 
595.21762670743726

>  <compound_id>  (479) 
773

>  <target_id>  (479) 
1

>  <reference_id>  (479) 
84

>  <inspiration_ids>  (479) 
[65, 84]

>  <energy_score>  (479) 
421.60359917541723

>  <distance_score>  (479) 
4.337834740003211

>  <path>  (479) 
/opt/xchem-fragalysis-2/maxwin/BulkDock/SCRATCH/505733/C773-P84/C773-P84.minimised.mol

>  <scratch_subdir>  (479) 
/opt/xchem-fragalysis-2/maxwin/BulkDock/SCRATCH/505733/C773-P84

>  <fragmenstein_runtime>  (479) 
2.922611713409424

>  <fragmenstein_outcome>  (479) 
too moved

>  <fragmenstein_mode>  (479) 
expansion

>  <fragmenstein_error>  (479) 


$$$$
C774-P65
     RDKit          3D

 28 30  0  0  0  0  0  0  0  0999 V2000
   -4.4030   -1.8133    4.4274 O   0  0  0  0  0  0  0  0  0  0  0  0
   -5.2541   -1.6697    5.3003 C   0  0  0  0  0  0  0  0  0  0  0  0
   -6.2826   -2.5836    5.4692 N   0  0  0  0  0  0  0  0  0  0  0  0
   -7.3958   -2.2921    6.1905 C   0  0  0  0  0  0  0  0  0  0  0  0
   -7.6571   -1.0717    6.6625 C   0  0  0  0  0  0  0  0  0  0  0  0
   -8.9554   -0.9094    7.3810 C   0  0  0  0  0  0  0  0  0  0  0  0
   -9.7991   -2.1028    6.9428 C   0  0  0  0  0  0  0  0  0  0  0  0
   -8.6160   -3.4347    6.4975 S   0  0  0  0  0  0  0  0  0  0  0  0
   -6.6836    0.0346    6.5001 C   0  0  0  0  0  0  0  0  0  0  0  0
   -5.2693   -0.5671    6.3762 C   0  0  0  0  0  0  0  0  0  0  0  0
   -4.8197   -1.2516    7.6718 C   0  0  0  0  0  0  0  0  0  0  0  0
   -3.6909   -0.3970    8.1616 C   0  0  0  0  0  0  0  0  0  0  0  0
   -3.8957    0.9265    7.4766 C   0  0  0  0  0  0  0  0  0  0  0  0
   -4.2635    0.4777    6.1488 N   0  0  0  0  0  0  0  0  0  0  0  0
   -6.2531   -3.4333    4.9204 H   0  0  0  0  0  0  0  0  0  0  0  0
   -9.4565    0.0265    7.1138 H   0  0  0  0  0  0  0  0  0  0  0  0
   -8.7903   -0.9140    8.4642 H   0  0  0  0  0  0  0  0  0  0  0  0
  -10.5040   -2.4204    7.7057 H   0  0  0  0  0  0  0  0  0  0  0  0
  -10.3690   -1.8490    6.0421 H   0  0  0  0  0  0  0  0  0  0  0  0
   -6.7502    0.7110    7.3588 H   0  0  0  0  0  0  0  0  0  0  0  0
   -6.9461    0.6150    5.6067 H   0  0  0  0  0  0  0  0  0  0  0  0
   -5.6159   -1.2785    8.4196 H   0  0  0  0  0  0  0  0  0  0  0  0
   -4.4573   -2.2746    7.5213 H   0  0  0  0  0  0  0  0  0  0  0  0
   -3.6978   -0.3342    9.2387 H   0  0  0  0  0  0  0  0  0  0  0  0
   -2.7424   -0.8515    7.8610 H   0  0  0  0  0  0  0  0  0  0  0  0
   -2.9975    1.5374    7.4834 H   0  0  0  0  0  0  0  0  0  0  0  0
   -4.7008    1.5164    7.9112 H   0  0  0  0  0  0  0  0  0  0  0  0
   -4.6095    1.2207    5.5508 H   0  0  0  0  0  0  0  0  0  0  0  0
  1  2  2  0
  2  3  1  0
  3  4  1  0
  4  5  2  0
  5  6  1  0
  6  7  1  0
  7  8  1  0
  5  9  1  0
  9 10  1  0
 10 11  1  0
 11 12  1  0
 12 13  1  0
 13 14  1  0
 10  2  1  0
  8  4  1  0
 14 10  1  0
  3 15  1  0
  6 16  1  0
  6 17  1  0
  7 18  1  0
  7 19  1  0
  9 20  1  0
  9 21  1  0
 11 22  1  0
 11 23  1  0
 12 24  1  0
 12 25  1  0
 13 26  1  0
 13 27  1  0
 14 28  1  0
M  END
>  <Energy>  (480) 
29.185701185277235

>  <compound_id>  (480) 
774

>  <target_id>  (480) 
1

>  <reference_id>  (480) 
65

>  <inspiration_ids>  (480) 
[65, 91]

>  <energy_score>  (480) 
-24.024412460117077

>  <distance_score>  (480) 
2.4014878199809404

>  <path>  (480) 
/opt/xchem-fragalysis-2/maxwin/BulkDock/SCRATCH/505733/C774-P65/C774-P65.minimised.mol

>  <scratch_subdir>  (480) 
/opt/xchem-fragalysis-2/maxwin/BulkDock/SCRATCH/505733/C774-P65

>  <fragmenstein_runtime>  (480) 
1.2563097476959229

>  <fragmenstein_outcome>  (480) 
too moved

>  <fragmenstein_mode>  (480) 
expansion

>  <fragmenstein_error>  (480) 


$$$$
C776-P65
     RDKit          3D

 38 39  0  0  0  0  0  0  0  0999 V2000
   -4.5934    3.7167    7.1099 C   0  0  0  0  0  0  0  0  0  0  0  0
   -4.4929    2.1993    7.0403 C   0  0  0  0  0  0  0  0  0  0  0  0
   -3.9908    1.5804    7.9337 O   0  0  0  0  0  0  0  0  0  0  0  0
   -5.0760    1.7570    5.8289 N   0  0  0  0  0  0  0  0  0  0  0  0
   -5.1539    0.3677    5.2146 C   0  0  0  0  0  0  0  0  0  0  0  0
   -5.7264    0.2638    3.7917 C   0  0  0  0  0  0  0  0  0  0  0  0
   -7.1703    0.5247    3.8530 N   0  0  0  0  0  0  0  0  0  0  0  0
   -8.0549   -0.5305    3.9974 C   0  0  0  0  0  0  0  0  0  0  0  0
   -9.3849   -0.3961    4.0516 C   0  0  0  0  0  0  0  0  0  0  0  0
  -10.2776   -1.4302    4.6557 C   0  0  0  0  0  0  0  0  0  0  0  0
  -10.1387   -1.3088    6.1417 C   0  0  0  0  0  0  0  0  0  0  0  0
  -10.6877   -0.1973    6.8732 C   0  0  0  0  0  0  0  0  0  0  0  0
  -10.1853   -0.1105    8.1455 C   0  0  0  0  0  0  0  0  0  0  0  0
   -9.0519   -1.3352    8.4346 S   0  0  0  0  0  0  0  0  0  0  0  0
   -9.3851   -2.1348    6.9665 C   0  0  0  0  0  0  0  0  0  0  0  0
   -8.7975   -3.4378    6.7506 C   0  0  0  0  0  0  0  0  0  0  0  0
   -7.9156   -4.0042    7.3819 O   0  0  0  0  0  0  0  0  0  0  0  0
   -9.3665   -4.0771    5.7055 O   0  0  0  0  0  0  0  0  0  0  0  0
   -7.3831    1.7098    4.7155 C   0  0  0  0  0  0  0  0  0  0  0  0
   -6.5712    1.5172    6.0214 C   0  0  0  0  0  0  0  0  0  0  0  0
   -4.7409    4.1631    6.1228 H   0  0  0  0  0  0  0  0  0  0  0  0
   -5.4411    4.0034    7.7367 H   0  0  0  0  0  0  0  0  0  0  0  0
   -3.6686    4.1186    7.5333 H   0  0  0  0  0  0  0  0  0  0  0  0
   -5.4689   -0.4341    5.9049 H   0  0  0  0  0  0  0  0  0  0  0  0
   -4.0880    0.1185    5.1016 H   0  0  0  0  0  0  0  0  0  0  0  0
   -5.5180   -0.7232    3.3621 H   0  0  0  0  0  0  0  0  0  0  0  0
   -5.2539    1.0090    3.1403 H   0  0  0  0  0  0  0  0  0  0  0  0
   -7.5814   -1.4876    4.2115 H   0  0  0  0  0  0  0  0  0  0  0  0
   -9.8458    0.5619    3.8299 H   0  0  0  0  0  0  0  0  0  0  0  0
   -9.9740   -2.4044    4.2861 H   0  0  0  0  0  0  0  0  0  0  0  0
  -11.3093   -1.2492    4.3381 H   0  0  0  0  0  0  0  0  0  0  0  0
  -11.3552    0.5433    6.4500 H   0  0  0  0  0  0  0  0  0  0  0  0
  -10.3900    0.6403    8.8956 H   0  0  0  0  0  0  0  0  0  0  0  0
   -8.9023   -4.9477    5.6770 H   0  0  0  0  0  0  0  0  0  0  0  0
   -7.0367    2.6051    4.1838 H   0  0  0  0  0  0  0  0  0  0  0  0
   -8.4380    1.8757    4.9576 H   0  0  0  0  0  0  0  0  0  0  0  0
   -6.8992    2.3527    6.6597 H   0  0  0  0  0  0  0  0  0  0  0  0
   -6.8525    0.6491    6.6409 H   0  0  0  0  0  0  0  0  0  0  0  0
  1  2  1  0
  2  3  2  0
  2  4  1  0
  4  5  1  0
  5  6  1  0
  6  7  1  0
  7  8  1  0
  8  9  2  3
  9 10  1  0
 10 11  1  0
 11 12  1  0
 12 13  2  0
 13 14  1  0
 14 15  1  0
 15 16  1  0
 16 17  2  0
 16 18  1  0
  7 19  1  0
 19 20  1  0
 20  4  1  0
 15 11  2  0
  1 21  1  0
  1 22  1  0
  1 23  1  0
  5 24  1  0
  5 25  1  0
  6 26  1  0
  6 27  1  0
  8 28  1  0
  9 29  1  0
 10 30  1  0
 10 31  1  0
 12 32  1  0
 13 33  1  0
 18 34  1  0
 19 35  1  0
 19 36  1  0
 20 37  1  0
 20 38  1  0
M  END
>  <Energy>  (481) 
127.65564333279845

>  <compound_id>  (481) 
776

>  <target_id>  (481) 
1

>  <reference_id>  (481) 
65

>  <inspiration_ids>  (481) 
[65, 99]

>  <energy_score>  (481) 
11.673054096221477

>  <distance_score>  (481) 
3.6093139831332914

>  <path>  (481) 
/opt/xchem-fragalysis-2/maxwin/BulkDock/SCRATCH/505733/C776-P65/C776-P65.minimised.mol

>  <scratch_subdir>  (481) 
/opt/xchem-fragalysis-2/maxwin/BulkDock/SCRATCH/505733/C776-P65

>  <fragmenstein_runtime>  (481) 
6.721878528594971

>  <fragmenstein_outcome>  (481) 
too moved

>  <fragmenstein_mode>  (481) 
expansion

>  <fragmenstein_error>  (481) 


$$$$
C776-P99
     RDKit          3D

 38 39  0  0  0  0  0  0  0  0999 V2000
   -5.3004    5.3833    7.9595 C   0  0  0  0  0  0  0  0  0  0  0  0
   -5.4830    4.1837    7.0538 C   0  0  0  0  0  0  0  0  0  0  0  0
   -4.5662    3.4291    6.8641 O   0  0  0  0  0  0  0  0  0  0  0  0
   -6.7834    4.2204    6.4802 N   0  0  0  0  0  0  0  0  0  0  0  0
   -7.3951    3.3989    5.3703 C   0  0  0  0  0  0  0  0  0  0  0  0
   -6.9644    1.9182    5.2452 C   0  0  0  0  0  0  0  0  0  0  0  0
   -7.5646    1.1646    6.3435 N   0  0  0  0  0  0  0  0  0  0  0  0
   -7.9907   -0.1322    6.1760 C   0  0  0  0  0  0  0  0  0  0  0  0
   -8.5911   -0.9868    7.0160 C   0  0  0  0  0  0  0  0  0  0  0  0
   -9.1286   -2.3506    6.6338 C   0  0  0  0  0  0  0  0  0  0  0  0
   -8.9876   -2.6453    5.1579 C   0  0  0  0  0  0  0  0  0  0  0  0
   -9.9680   -2.2911    4.1774 C   0  0  0  0  0  0  0  0  0  0  0  0
   -9.5228   -2.4788    2.8892 C   0  0  0  0  0  0  0  0  0  0  0  0
   -7.9458   -3.1218    2.8404 S   0  0  0  0  0  0  0  0  0  0  0  0
   -7.8479   -3.1384    4.5402 C   0  0  0  0  0  0  0  0  0  0  0  0
   -6.6400   -3.5991    5.1673 C   0  0  0  0  0  0  0  0  0  0  0  0
   -5.5119   -3.1685    4.9843 O   0  0  0  0  0  0  0  0  0  0  0  0
   -6.9222   -4.6200    6.0128 O   0  0  0  0  0  0  0  0  0  0  0  0
   -7.4672    1.8844    7.6020 C   0  0  0  0  0  0  0  0  0  0  0  0
   -7.7642    3.3914    7.3344 C   0  0  0  0  0  0  0  0  0  0  0  0
   -4.7760    6.1670    7.4057 H   0  0  0  0  0  0  0  0  0  0  0  0
   -4.7031    5.0922    8.8278 H   0  0  0  0  0  0  0  0  0  0  0  0
   -6.2555    5.7799    8.3143 H   0  0  0  0  0  0  0  0  0  0  0  0
   -6.9433    3.8740    4.4856 H   0  0  0  0  0  0  0  0  0  0  0  0
   -8.4699    3.5770    5.2005 H   0  0  0  0  0  0  0  0  0  0  0  0
   -5.8750    1.8141    5.2690 H   0  0  0  0  0  0  0  0  0  0  0  0
   -7.3107    1.5428    4.2744 H   0  0  0  0  0  0  0  0  0  0  0  0
   -7.8246   -0.4350    5.1450 H   0  0  0  0  0  0  0  0  0  0  0  0
   -8.7719   -0.6957    8.0458 H   0  0  0  0  0  0  0  0  0  0  0  0
  -10.1913   -2.3922    6.9040 H   0  0  0  0  0  0  0  0  0  0  0  0
   -8.6259   -3.1151    7.2353 H   0  0  0  0  0  0  0  0  0  0  0  0
  -10.9375   -1.8649    4.4121 H   0  0  0  0  0  0  0  0  0  0  0  0
  -10.0491   -2.2523    1.9725 H   0  0  0  0  0  0  0  0  0  0  0  0
   -7.7835   -5.0337    5.7814 H   0  0  0  0  0  0  0  0  0  0  0  0
   -8.1954    1.5168    8.3328 H   0  0  0  0  0  0  0  0  0  0  0  0
   -6.4669    1.7483    8.0248 H   0  0  0  0  0  0  0  0  0  0  0  0
   -8.8230    3.5808    7.0870 H   0  0  0  0  0  0  0  0  0  0  0  0
   -7.6861    3.8643    8.3233 H   0  0  0  0  0  0  0  0  0  0  0  0
  1  2  1  0
  2  3  2  0
  2  4  1  0
  4  5  1  0
  5  6  1  0
  6  7  1  0
  7  8  1  0
  8  9  2  3
  9 10  1  0
 10 11  1  0
 11 12  1  0
 12 13  2  0
 13 14  1  0
 14 15  1  0
 15 16  1  0
 16 17  2  0
 16 18  1  0
  7 19  1  0
 19 20  1  0
 20  4  1  0
 15 11  2  0
  1 21  1  0
  1 22  1  0
  1 23  1  0
  5 24  1  0
  5 25  1  0
  6 26  1  0
  6 27  1  0
  8 28  1  0
  9 29  1  0
 10 30  1  0
 10 31  1  0
 12 32  1  0
 13 33  1  0
 18 34  1  0
 19 35  1  0
 19 36  1  0
 20 37  1  0
 20 38  1  0
M  END
>  <Energy>  (482) 
129.60988009430932

>  <compound_id>  (482) 
776

>  <target_id>  (482) 
1

>  <reference_id>  (482) 
99

>  <inspiration_ids>  (482) 
[65, 99]

>  <energy_score>  (482) 
13.627290857734096

>  <distance_score>  (482) 
3.764462391020256

>  <path>  (482) 
/opt/xchem-fragalysis-2/maxwin/BulkDock/SCRATCH/505733/C776-P99/C776-P99.minimised.mol

>  <scratch_subdir>  (482) 
/opt/xchem-fragalysis-2/maxwin/BulkDock/SCRATCH/505733/C776-P99

>  <fragmenstein_runtime>  (482) 
8.23106598854065

>  <fragmenstein_outcome>  (482) 
too moved

>  <fragmenstein_mode>  (482) 
expansion

>  <fragmenstein_error>  (482) 


$$$$
C780-P65
     RDKit          3D

 31 32  0  0  0  0  0  0  0  0999 V2000
   -4.5310   -2.5448    7.1447 N   0  0  0  0  0  0  0  0  0  0  0  0
   -4.0636   -1.3303    6.1182 S   0  0  0  0  0  0  0  0  0  0  0  0
   -2.6729   -1.1452    6.4348 O   0  0  0  0  0  0  0  0  0  0  0  0
   -4.4631   -1.6817    4.7743 O   0  0  0  0  0  0  0  0  0  0  0  0
   -4.9971    0.0603    6.6477 C   0  0  0  0  0  0  0  0  0  0  0  0
   -4.3396    1.1998    7.0974 C   0  0  0  0  0  0  0  0  0  0  0  0
   -3.1664    1.1041    7.7607 O   0  0  0  0  0  0  0  0  0  0  0  0
   -4.8727    2.4657    6.8947 C   0  0  0  0  0  0  0  0  0  0  0  0
   -6.0105    2.5987    6.1271 C   0  0  0  0  0  0  0  0  0  0  0  0
   -6.7065    1.4595    5.7380 C   0  0  0  0  0  0  0  0  0  0  0  0
   -6.2940    0.1815    6.1586 C   0  0  0  0  0  0  0  0  0  0  0  0
   -7.3849   -0.6555    6.7055 C   0  0  0  0  0  0  0  0  0  0  0  0
   -8.2680    0.1143    7.9967 S   0  0  0  0  0  0  0  0  0  0  0  0
   -9.3601   -1.1529    8.1442 C   0  0  0  0  0  0  0  0  0  0  0  0
   -9.0807   -2.1538    7.2574 C   0  0  0  0  0  0  0  0  0  0  0  0
   -7.9068   -1.9127    6.4570 C   0  0  0  0  0  0  0  0  0  0  0  0
   -7.4265   -2.9779    5.5282 C   0  0  0  0  0  0  0  0  0  0  0  0
   -7.0450   -4.2041    6.3319 C   0  0  0  0  0  0  0  0  0  0  0  0
   -8.1512   -4.8070    6.8506 F   0  0  0  0  0  0  0  0  0  0  0  0
   -3.6854   -2.8641    7.6287 H   0  0  0  0  0  0  0  0  0  0  0  0
   -5.2223   -2.2055    7.8154 H   0  0  0  0  0  0  0  0  0  0  0  0
   -2.7625    1.9855    7.8560 H   0  0  0  0  0  0  0  0  0  0  0  0
   -4.3708    3.3557    7.2651 H   0  0  0  0  0  0  0  0  0  0  0  0
   -6.4189    3.5819    5.9066 H   0  0  0  0  0  0  0  0  0  0  0  0
   -7.6972    1.5879    5.2980 H   0  0  0  0  0  0  0  0  0  0  0  0
  -10.1643   -1.1262    8.8668 H   0  0  0  0  0  0  0  0  0  0  0  0
   -9.6827   -3.0555    7.2074 H   0  0  0  0  0  0  0  0  0  0  0  0
   -8.2372   -3.2305    4.8340 H   0  0  0  0  0  0  0  0  0  0  0  0
   -6.5928   -2.6326    4.9224 H   0  0  0  0  0  0  0  0  0  0  0  0
   -6.4240   -3.9566    7.1839 H   0  0  0  0  0  0  0  0  0  0  0  0
   -6.5233   -4.9145    5.7014 H   0  0  0  0  0  0  0  0  0  0  0  0
  1  2  1  0
  2  3  2  0
  2  4  2  0
  2  5  1  0
  5  6  2  0
  6  7  1  0
  6  8  1  0
  8  9  2  0
  9 10  1  0
 10 11  2  0
 11 12  1  0
 12 13  1  0
 13 14  1  0
 14 15  2  0
 15 16  1  0
 16 17  1  0
 17 18  1  0
 18 19  1  0
 11  5  1  0
 16 12  2  0
  1 20  1  0
  1 21  1  0
  7 22  1  0
  8 23  1  0
  9 24  1  0
 10 25  1  0
 14 26  1  0
 15 27  1  0
 17 28  1  0
 17 29  1  0
 18 30  1  0
 18 31  1  0
M  END
>  <Energy>  (483) 
-11.799233620112245

>  <compound_id>  (483) 
780

>  <target_id>  (483) 
1

>  <reference_id>  (483) 
65

>  <inspiration_ids>  (483) 
[65, 143]

>  <energy_score>  (483) 
-40.299264998193195

>  <distance_score>  (483) 
2.0502203810805506

>  <path>  (483) 
/opt/xchem-fragalysis-2/maxwin/BulkDock/SCRATCH/505733/C780-P65/C780-P65.minimised.mol

>  <scratch_subdir>  (483) 
/opt/xchem-fragalysis-2/maxwin/BulkDock/SCRATCH/505733/C780-P65

>  <fragmenstein_runtime>  (483) 
2.0978333950042725

>  <fragmenstein_outcome>  (483) 
too moved

>  <fragmenstein_mode>  (483) 
expansion

>  <fragmenstein_error>  (483) 


$$$$
C780-P143
     RDKit          3D

 31 32  0  0  0  0  0  0  0  0999 V2000
   -3.0689   -1.4355    7.2616 N   0  0  0  0  0  0  0  0  0  0  0  0
   -4.3631   -1.8660    6.2788 S   0  0  0  0  0  0  0  0  0  0  0  0
   -3.9448   -1.7235    4.9040 O   0  0  0  0  0  0  0  0  0  0  0  0
   -4.8381   -3.1127    6.8208 O   0  0  0  0  0  0  0  0  0  0  0  0
   -5.5791   -0.6644    6.5712 C   0  0  0  0  0  0  0  0  0  0  0  0
   -5.4317    0.3218    7.5041 C   0  0  0  0  0  0  0  0  0  0  0  0
   -4.7563    0.0646    8.6521 O   0  0  0  0  0  0  0  0  0  0  0  0
   -5.8818    1.6075    7.1903 C   0  0  0  0  0  0  0  0  0  0  0  0
   -6.3082    1.8841    5.8978 C   0  0  0  0  0  0  0  0  0  0  0  0
   -6.5961    0.8204    5.0538 C   0  0  0  0  0  0  0  0  0  0  0  0
   -6.5267   -0.4675    5.5892 C   0  0  0  0  0  0  0  0  0  0  0  0
   -7.8356   -1.0301    6.0134 C   0  0  0  0  0  0  0  0  0  0  0  0
   -8.8884   -0.0223    6.9633 S   0  0  0  0  0  0  0  0  0  0  0  0
   -9.9746   -1.2768    7.2448 C   0  0  0  0  0  0  0  0  0  0  0  0
   -9.5890   -2.4226    6.6028 C   0  0  0  0  0  0  0  0  0  0  0  0
   -8.3160   -2.3191    5.9522 C   0  0  0  0  0  0  0  0  0  0  0  0
   -7.6318   -3.5035    5.3579 C   0  0  0  0  0  0  0  0  0  0  0  0
   -7.4413   -4.5717    6.4172 C   0  0  0  0  0  0  0  0  0  0  0  0
   -8.6400   -5.1012    6.7866 F   0  0  0  0  0  0  0  0  0  0  0  0
   -2.8753   -2.1633    7.9512 H   0  0  0  0  0  0  0  0  0  0  0  0
   -3.1511   -0.5049    7.6849 H   0  0  0  0  0  0  0  0  0  0  0  0
   -4.9677   -0.8482    8.9287 H   0  0  0  0  0  0  0  0  0  0  0  0
   -5.8264    2.4513    7.8642 H   0  0  0  0  0  0  0  0  0  0  0  0
   -6.5543    2.9000    5.5983 H   0  0  0  0  0  0  0  0  0  0  0  0
   -7.1777    1.0104    4.1527 H   0  0  0  0  0  0  0  0  0  0  0  0
  -10.8554   -1.1327    7.8551 H   0  0  0  0  0  0  0  0  0  0  0  0
  -10.1691   -3.3335    6.6590 H   0  0  0  0  0  0  0  0  0  0  0  0
   -8.2637   -3.8732    4.5447 H   0  0  0  0  0  0  0  0  0  0  0  0
   -6.6714   -3.2322    4.9123 H   0  0  0  0  0  0  0  0  0  0  0  0
   -6.9850   -4.1787    7.3229 H   0  0  0  0  0  0  0  0  0  0  0  0
   -6.8305   -5.3745    6.0222 H   0  0  0  0  0  0  0  0  0  0  0  0
  1  2  1  0
  2  3  2  0
  2  4  2  0
  2  5  1  0
  5  6  2  0
  6  7  1  0
  6  8  1  0
  8  9  2  0
  9 10  1  0
 10 11  2  0
 11 12  1  0
 12 13  1  0
 13 14  1  0
 14 15  2  0
 15 16  1  0
 16 17  1  0
 17 18  1  0
 18 19  1  0
 11  5  1  0
 16 12  2  0
  1 20  1  0
  1 21  1  0
  7 22  1  0
  8 23  1  0
  9 24  1  0
 10 25  1  0
 14 26  1  0
 15 27  1  0
 17 28  1  0
 17 29  1  0
 18 30  1  0
 18 31  1  0
M  END
>  <Energy>  (484) 
12.682225583240649

>  <compound_id>  (484) 
780

>  <target_id>  (484) 
1

>  <reference_id>  (484) 
143

>  <inspiration_ids>  (484) 
[65, 143]

>  <energy_score>  (484) 
-15.817805794837767

>  <distance_score>  (484) 
2.2174576486319637

>  <path>  (484) 
/opt/xchem-fragalysis-2/maxwin/BulkDock/SCRATCH/505733/C780-P143/C780-P143.minimised.mol

>  <scratch_subdir>  (484) 
/opt/xchem-fragalysis-2/maxwin/BulkDock/SCRATCH/505733/C780-P143

>  <fragmenstein_runtime>  (484) 
1.846355676651001

>  <fragmenstein_outcome>  (484) 
too moved

>  <fragmenstein_mode>  (484) 
expansion

>  <fragmenstein_error>  (484) 


$$$$
C783-P65
     RDKit          3D

 31 31  0  0  0  0  0  0  0  0999 V2000
   -6.1812   -3.5008    5.7814 C   0  0  0  0  0  0  0  0  0  0  0  0
   -7.1774   -2.6090    6.4303 C   0  0  0  0  0  0  0  0  0  0  0  0
   -8.1175   -3.0599    7.3280 C   0  0  0  0  0  0  0  0  0  0  0  0
   -9.1313   -1.8288    7.8820 S   0  0  0  0  0  0  0  0  0  0  0  0
   -8.4129   -0.6601    6.8731 C   0  0  0  0  0  0  0  0  0  0  0  0
   -8.9739    0.6864    6.8288 C   0  0  0  0  0  0  0  0  0  0  0  0
   -8.5818    1.6073    6.1246 O   0  0  0  0  0  0  0  0  0  0  0  0
  -10.0245    0.8639    7.6765 O   0  0  0  0  0  0  0  0  0  0  0  0
   -7.3166   -1.1926    6.1909 C   0  0  0  0  0  0  0  0  0  0  0  0
   -6.4494   -0.4345    5.2267 C   0  0  0  0  0  0  0  0  0  0  0  0
   -5.3898    0.5286    5.8146 C   0  0  0  0  0  0  0  0  0  0  0  0
   -5.4655    0.7671    7.3208 C   0  0  0  0  0  0  0  0  0  0  0  0
   -4.0294   -0.1381    5.5886 C   0  0  0  0  0  0  0  0  0  0  0  0
   -5.5541    1.8740    5.0450 C   0  0  0  0  0  0  0  0  0  0  0  0
   -4.9461    3.0014    5.6796 O   0  0  0  0  0  0  0  0  0  0  0  0
   -6.4231   -4.5462    5.9838 H   0  0  0  0  0  0  0  0  0  0  0  0
   -5.1784   -3.2917    6.1643 H   0  0  0  0  0  0  0  0  0  0  0  0
   -6.1816   -3.3758    4.6945 H   0  0  0  0  0  0  0  0  0  0  0  0
   -8.2538   -4.0702    7.6897 H   0  0  0  0  0  0  0  0  0  0  0  0
  -10.2231    0.0311    8.1540 H   0  0  0  0  0  0  0  0  0  0  0  0
   -5.9710   -1.1341    4.5291 H   0  0  0  0  0  0  0  0  0  0  0  0
   -7.1390    0.1067    4.5633 H   0  0  0  0  0  0  0  0  0  0  0  0
   -6.3810    1.2970    7.5926 H   0  0  0  0  0  0  0  0  0  0  0  0
   -5.4200   -0.1820    7.8651 H   0  0  0  0  0  0  0  0  0  0  0  0
   -4.6238    1.3770    7.6698 H   0  0  0  0  0  0  0  0  0  0  0  0
   -3.2666    0.3546    6.1911 H   0  0  0  0  0  0  0  0  0  0  0  0
   -4.0338   -1.1836    5.9184 H   0  0  0  0  0  0  0  0  0  0  0  0
   -3.7424   -0.1272    4.5324 H   0  0  0  0  0  0  0  0  0  0  0  0
   -6.6043    2.1455    4.9145 H   0  0  0  0  0  0  0  0  0  0  0  0
   -5.1451    1.7849    4.0321 H   0  0  0  0  0  0  0  0  0  0  0  0
   -5.5285    3.2320    6.4289 H   0  0  0  0  0  0  0  0  0  0  0  0
  1  2  1  0
  2  3  2  0
  3  4  1  0
  4  5  1  0
  5  6  1  0
  6  7  2  0
  6  8  1  0
  5  9  2  0
  9 10  1  0
 10 11  1  0
 11 12  1  0
 11 13  1  0
 11 14  1  0
 14 15  1  0
  9  2  1  0
  1 16  1  0
  1 17  1  0
  1 18  1  0
  3 19  1  0
  8 20  1  0
 10 21  1  0
 10 22  1  0
 12 23  1  0
 12 24  1  0
 12 25  1  0
 13 26  1  0
 13 27  1  0
 13 28  1  0
 14 29  1  0
 14 30  1  0
 15 31  1  0
M  END
>  <Energy>  (485) 
25.56427792254113

>  <compound_id>  (485) 
783

>  <target_id>  (485) 
1

>  <reference_id>  (485) 
65

>  <inspiration_ids>  (485) 
[65, 181]

>  <energy_score>  (485) 
-46.221723364562564

>  <distance_score>  (485) 
2.037354246388965

>  <path>  (485) 
/opt/xchem-fragalysis-2/maxwin/BulkDock/SCRATCH/505733/C783-P65/C783-P65.minimised.mol

>  <scratch_subdir>  (485) 
/opt/xchem-fragalysis-2/maxwin/BulkDock/SCRATCH/505733/C783-P65

>  <fragmenstein_runtime>  (485) 
2.349905014038086

>  <fragmenstein_outcome>  (485) 
too moved

>  <fragmenstein_mode>  (485) 
expansion

>  <fragmenstein_error>  (485) 


$$$$
C783-P181
     RDKit          3D

 31 31  0  0  0  0  0  0  0  0999 V2000
   -6.2322   -3.7162    5.9609 C   0  0  0  0  0  0  0  0  0  0  0  0
   -7.2785   -2.7662    6.4173 C   0  0  0  0  0  0  0  0  0  0  0  0
   -8.6177   -3.0477    6.2699 C   0  0  0  0  0  0  0  0  0  0  0  0
   -9.6175   -1.8046    6.8249 S   0  0  0  0  0  0  0  0  0  0  0  0
   -8.2960   -0.8890    7.3878 C   0  0  0  0  0  0  0  0  0  0  0  0
   -8.5295    0.3662    8.0738 C   0  0  0  0  0  0  0  0  0  0  0  0
   -7.6909    1.2151    8.3393 O   0  0  0  0  0  0  0  0  0  0  0  0
   -9.8162    0.5824    8.4245 O   0  0  0  0  0  0  0  0  0  0  0  0
   -7.0740   -1.5056    7.0940 C   0  0  0  0  0  0  0  0  0  0  0  0
   -5.7290   -0.9977    7.5516 C   0  0  0  0  0  0  0  0  0  0  0  0
   -4.8926   -0.1270    6.5926 C   0  0  0  0  0  0  0  0  0  0  0  0
   -3.7406    0.3904    7.4717 C   0  0  0  0  0  0  0  0  0  0  0  0
   -4.3359   -0.9976    5.4513 C   0  0  0  0  0  0  0  0  0  0  0  0
   -5.6760    1.0420    5.9554 C   0  0  0  0  0  0  0  0  0  0  0  0
   -5.7972    2.1656    6.8110 O   0  0  0  0  0  0  0  0  0  0  0  0
   -6.5584   -4.7447    6.1384 H   0  0  0  0  0  0  0  0  0  0  0  0
   -5.2937   -3.5718    6.4972 H   0  0  0  0  0  0  0  0  0  0  0  0
   -6.0466   -3.5976    4.8891 H   0  0  0  0  0  0  0  0  0  0  0  0
   -9.0475   -3.9485    5.8494 H   0  0  0  0  0  0  0  0  0  0  0  0
   -9.7798    1.4330    8.9073 H   0  0  0  0  0  0  0  0  0  0  0  0
   -5.8978   -0.4582    8.4921 H   0  0  0  0  0  0  0  0  0  0  0  0
   -5.1220   -1.8568    7.8618 H   0  0  0  0  0  0  0  0  0  0  0  0
   -3.2869    1.2865    7.0656 H   0  0  0  0  0  0  0  0  0  0  0  0
   -4.0783    0.6643    8.4694 H   0  0  0  0  0  0  0  0  0  0  0  0
   -2.9717   -0.3761    7.6143 H   0  0  0  0  0  0  0  0  0  0  0  0
   -3.7958   -1.8674    5.8382 H   0  0  0  0  0  0  0  0  0  0  0  0
   -5.1360   -1.3511    4.7937 H   0  0  0  0  0  0  0  0  0  0  0  0
   -3.6371   -0.4427    4.8217 H   0  0  0  0  0  0  0  0  0  0  0  0
   -6.6708    0.7452    5.6099 H   0  0  0  0  0  0  0  0  0  0  0  0
   -5.1560    1.4026    5.0640 H   0  0  0  0  0  0  0  0  0  0  0  0
   -6.4359    1.9320    7.5179 H   0  0  0  0  0  0  0  0  0  0  0  0
  1  2  1  0
  2  3  2  0
  3  4  1  0
  4  5  1  0
  5  6  1  0
  6  7  2  0
  6  8  1  0
  5  9  2  0
  9 10  1  0
 10 11  1  0
 11 12  1  0
 11 13  1  0
 11 14  1  0
 14 15  1  0
  9  2  1  0
  1 16  1  0
  1 17  1  0
  1 18  1  0
  3 19  1  0
  8 20  1  0
 10 21  1  0
 10 22  1  0
 12 23  1  0
 12 24  1  0
 12 25  1  0
 13 26  1  0
 13 27  1  0
 13 28  1  0
 14 29  1  0
 14 30  1  0
 15 31  1  0
M  END
>  <Energy>  (486) 
16.072711784808874

>  <compound_id>  (486) 
783

>  <target_id>  (486) 
1

>  <reference_id>  (486) 
181

>  <inspiration_ids>  (486) 
[65, 181]

>  <energy_score>  (486) 
-55.71328950229527

>  <distance_score>  (486) 
1.6733399321590403

>  <path>  (486) 
/opt/xchem-fragalysis-2/maxwin/BulkDock/SCRATCH/505733/C783-P181/C783-P181.minimised.mol

>  <scratch_subdir>  (486) 
/opt/xchem-fragalysis-2/maxwin/BulkDock/SCRATCH/505733/C783-P181

>  <fragmenstein_runtime>  (486) 
2.158970832824707

>  <fragmenstein_outcome>  (486) 
too moved

>  <fragmenstein_mode>  (486) 
expansion

>  <fragmenstein_error>  (486) 


$$$$
C784-P66
     RDKit          3D

 47 48  0  0  0  0  0  0  0  0999 V2000
   12.6860   -0.6261   14.2645 C   0  0  0  0  0  0  0  0  0  0  0  0
   12.8157   -1.8126   15.1598 C   0  0  0  0  0  0  0  0  0  0  0  0
   11.7686   -2.7758   15.2938 C   0  0  0  0  0  0  0  0  0  0  0  0
   12.0991   -3.7770   16.1727 C   0  0  0  0  0  0  0  0  0  0  0  0
   13.6612   -3.5983   16.8223 S   0  0  0  0  0  0  0  0  0  0  0  0
   13.8985   -2.1412   15.9698 C   0  0  0  0  0  0  0  0  0  0  0  0
   15.1121   -1.4068   16.2149 C   0  0  0  0  0  0  0  0  0  0  0  0
   16.2538   -1.8403   16.2886 O   0  0  0  0  0  0  0  0  0  0  0  0
   14.7699   -0.1122   16.3684 O   0  0  0  0  0  0  0  0  0  0  0  0
   15.8656    0.7607   16.5003 C   0  0  0  0  0  0  0  0  0  0  0  0
   15.4602    2.1589   16.6265 N   0  0  0  0  0  0  0  0  0  0  0  0
   14.4194    2.7123   15.6465 S   0  0  0  0  0  0  0  0  0  0  0  0
   15.1502    2.9526   14.0532 C   0  0  0  0  0  0  0  0  0  0  0  0
   13.1207    2.1291   15.3999 O   0  0  0  0  0  0  0  0  0  0  0  0
   14.0991    4.2374   16.3406 N   0  0  0  0  0  0  0  0  0  0  0  0
   12.7406    4.5934   16.7534 C   0  0  0  0  0  0  0  0  0  0  0  0
   12.2595    5.8786   16.0969 C   0  0  0  0  0  0  0  0  0  0  0  0
   13.1255    7.0777   16.4604 C   0  0  0  0  0  0  0  0  0  0  0  0
   14.5400    6.6939   16.9243 C   0  0  0  0  0  0  0  0  0  0  0  0
   14.6383    6.6812   18.4572 C   0  0  0  0  0  0  0  0  0  0  0  0
   15.0254    5.3878   16.2216 C   0  0  0  0  0  0  0  0  0  0  0  0
   16.4804    5.0612   16.6555 C   0  0  0  0  0  0  0  0  0  0  0  0
   16.5300    4.3644   17.8941 O   0  0  0  0  0  0  0  0  0  0  0  0
   12.3199   -0.9499   13.2873 H   0  0  0  0  0  0  0  0  0  0  0  0
   13.6406   -0.1248   14.0916 H   0  0  0  0  0  0  0  0  0  0  0  0
   11.9565    0.0778   14.6701 H   0  0  0  0  0  0  0  0  0  0  0  0
   10.8245   -2.7340   14.7616 H   0  0  0  0  0  0  0  0  0  0  0  0
   11.5122   -4.6385   16.4515 H   0  0  0  0  0  0  0  0  0  0  0  0
   16.4425    0.4998   17.3957 H   0  0  0  0  0  0  0  0  0  0  0  0
   16.5255    0.6662   15.6284 H   0  0  0  0  0  0  0  0  0  0  0  0
   14.4932    3.5942   13.4621 H   0  0  0  0  0  0  0  0  0  0  0  0
   16.1353    3.4067   14.1502 H   0  0  0  0  0  0  0  0  0  0  0  0
   15.2394    1.9782   13.5673 H   0  0  0  0  0  0  0  0  0  0  0  0
   12.0140    3.8117   16.5110 H   0  0  0  0  0  0  0  0  0  0  0  0
   12.6937    4.6763   17.8438 H   0  0  0  0  0  0  0  0  0  0  0  0
   12.2586    5.7481   15.0067 H   0  0  0  0  0  0  0  0  0  0  0  0
   11.2195    6.0791   16.3800 H   0  0  0  0  0  0  0  0  0  0  0  0
   13.1984    7.7249   15.5766 H   0  0  0  0  0  0  0  0  0  0  0  0
   12.6197    7.6812   17.2238 H   0  0  0  0  0  0  0  0  0  0  0  0
   15.2016    7.5094   16.5975 H   0  0  0  0  0  0  0  0  0  0  0  0
   15.6836    6.6590   18.7812 H   0  0  0  0  0  0  0  0  0  0  0  0
   14.2031    7.5929   18.8813 H   0  0  0  0  0  0  0  0  0  0  0  0
   14.1316    5.8271   18.9109 H   0  0  0  0  0  0  0  0  0  0  0  0
   15.0739    5.6419   15.1532 H   0  0  0  0  0  0  0  0  0  0  0  0
   17.0702    5.9784   16.7585 H   0  0  0  0  0  0  0  0  0  0  0  0
   16.9919    4.4498   15.9069 H   0  0  0  0  0  0  0  0  0  0  0  0
   16.0562    3.5130   17.7218 H   0  0  0  0  0  0  0  0  0  0  0  0
  1  2  1  0
  2  3  1  0
  3  4  2  0
  4  5  1  0
  5  6  1  0
  6  7  1  0
  7  8  2  0
  7  9  1  0
  9 10  1  0
 10 11  1  0
 11 12  2  0
 12 13  1  0
 12 14  2  0
 12 15  1  0
 15 16  1  0
 16 17  1  0
 17 18  1  0
 18 19  1  0
 19 20  1  0
 19 21  1  0
 21 22  1  0
 22 23  1  0
  6  2  2  0
 21 15  1  0
  1 24  1  0
  1 25  1  0
  1 26  1  0
  3 27  1  0
  4 28  1  0
 10 29  1  0
 10 30  1  0
 13 31  1  0
 13 32  1  0
 13 33  1  0
 16 34  1  0
 16 35  1  0
 17 36  1  0
 17 37  1  0
 18 38  1  0
 18 39  1  0
 19 40  1  0
 20 41  1  0
 20 42  1  0
 20 43  1  0
 21 44  1  0
 22 45  1  0
 22 46  1  0
 23 47  1  0
M  END
>  <Energy>  (487) 
-91.321949225082463

>  <compound_id>  (487) 
784

>  <target_id>  (487) 
1

>  <reference_id>  (487) 
66

>  <inspiration_ids>  (487) 
[66, 6]

>  <energy_score>  (487) 
-65.31034784711328

>  <distance_score>  (487) 
1.4507030349941645

>  <path>  (487) 
/opt/xchem-fragalysis-2/maxwin/BulkDock/SCRATCH/505733/C784-P66/C784-P66.minimised.mol

>  <scratch_subdir>  (487) 
/opt/xchem-fragalysis-2/maxwin/BulkDock/SCRATCH/505733/C784-P66

>  <fragmenstein_runtime>  (487) 
4.392107248306274

>  <fragmenstein_outcome>  (487) 
too moved

>  <fragmenstein_mode>  (487) 
expansion

>  <fragmenstein_error>  (487) 


$$$$
C784-P6
     RDKit          3D

 47 48  0  0  0  0  0  0  0  0999 V2000
   12.3628   -0.4203   14.3481 C   0  0  0  0  0  0  0  0  0  0  0  0
   12.5677   -1.6077   15.2299 C   0  0  0  0  0  0  0  0  0  0  0  0
   11.6073   -2.6729   15.2445 C   0  0  0  0  0  0  0  0  0  0  0  0
   11.9409   -3.6716   16.1206 C   0  0  0  0  0  0  0  0  0  0  0  0
   13.3725   -3.3416   16.9613 S   0  0  0  0  0  0  0  0  0  0  0  0
   13.6089   -1.8629   16.1215 C   0  0  0  0  0  0  0  0  0  0  0  0
   14.8131   -1.1271   16.4606 C   0  0  0  0  0  0  0  0  0  0  0  0
   15.4958   -1.2895   17.4653 O   0  0  0  0  0  0  0  0  0  0  0  0
   15.1037   -0.2478   15.4749 O   0  0  0  0  0  0  0  0  0  0  0  0
   16.1123    0.6835   15.8130 C   0  0  0  0  0  0  0  0  0  0  0  0
   15.6347    1.9467   16.3776 N   0  0  0  0  0  0  0  0  0  0  0  0
   14.4068    2.6141   15.7457 S   0  0  0  0  0  0  0  0  0  0  0  0
   14.7652    3.0613   14.0678 C   0  0  0  0  0  0  0  0  0  0  0  0
   13.0717    2.0608   15.7559 O   0  0  0  0  0  0  0  0  0  0  0  0
   14.2653    4.0224   16.6709 N   0  0  0  0  0  0  0  0  0  0  0  0
   13.4634    4.0435   17.8846 C   0  0  0  0  0  0  0  0  0  0  0  0
   12.4035    5.1447   17.8096 C   0  0  0  0  0  0  0  0  0  0  0  0
   12.8558    6.3624   17.0007 C   0  0  0  0  0  0  0  0  0  0  0  0
   14.3806    6.5350   17.0305 C   0  0  0  0  0  0  0  0  0  0  0  0
   14.8416    6.9974   18.4196 C   0  0  0  0  0  0  0  0  0  0  0  0
   15.0665    5.2453   16.4678 C   0  0  0  0  0  0  0  0  0  0  0  0
   16.5239    5.0954   16.9599 C   0  0  0  0  0  0  0  0  0  0  0  0
   17.2303    4.1012   16.2257 O   0  0  0  0  0  0  0  0  0  0  0  0
   11.8708   -0.7282   13.4197 H   0  0  0  0  0  0  0  0  0  0  0  0
   13.2891    0.0668   14.0474 H   0  0  0  0  0  0  0  0  0  0  0  0
   11.6949    0.2935   14.8363 H   0  0  0  0  0  0  0  0  0  0  0  0
   10.7183   -2.7030   14.6236 H   0  0  0  0  0  0  0  0  0  0  0  0
   11.4140   -4.5914   16.3173 H   0  0  0  0  0  0  0  0  0  0  0  0
   16.8805    0.2599   16.4711 H   0  0  0  0  0  0  0  0  0  0  0  0
   16.6441    0.9087   14.8803 H   0  0  0  0  0  0  0  0  0  0  0  0
   13.9997    3.7594   13.7225 H   0  0  0  0  0  0  0  0  0  0  0  0
   15.7536    3.5181   14.0063 H   0  0  0  0  0  0  0  0  0  0  0  0
   14.7341    2.1574   13.4556 H   0  0  0  0  0  0  0  0  0  0  0  0
   12.9573    3.0872   18.0623 H   0  0  0  0  0  0  0  0  0  0  0  0
   14.1116    4.1767   18.7577 H   0  0  0  0  0  0  0  0  0  0  0  0
   11.4833    4.7504   17.3613 H   0  0  0  0  0  0  0  0  0  0  0  0
   12.1468    5.4565   18.8290 H   0  0  0  0  0  0  0  0  0  0  0  0
   12.5380    6.2314   15.9575 H   0  0  0  0  0  0  0  0  0  0  0  0
   12.3458    7.2632   17.3618 H   0  0  0  0  0  0  0  0  0  0  0  0
   14.6253    7.3554   16.3412 H   0  0  0  0  0  0  0  0  0  0  0  0
   15.8921    7.3044   18.4034 H   0  0  0  0  0  0  0  0  0  0  0  0
   14.2635    7.8705   18.7426 H   0  0  0  0  0  0  0  0  0  0  0  0
   14.7291    6.2266   19.1853 H   0  0  0  0  0  0  0  0  0  0  0  0
   15.1117    5.3939   15.3813 H   0  0  0  0  0  0  0  0  0  0  0  0
   16.5728    4.8364   18.0230 H   0  0  0  0  0  0  0  0  0  0  0  0
   17.0671    6.0343   16.8128 H   0  0  0  0  0  0  0  0  0  0  0  0
   16.8206    3.2447   16.5042 H   0  0  0  0  0  0  0  0  0  0  0  0
  1  2  1  0
  2  3  1  0
  3  4  2  0
  4  5  1  0
  5  6  1  0
  6  7  1  0
  7  8  2  0
  7  9  1  0
  9 10  1  0
 10 11  1  0
 11 12  2  0
 12 13  1  0
 12 14  2  0
 12 15  1  0
 15 16  1  0
 16 17  1  0
 17 18  1  0
 18 19  1  0
 19 20  1  0
 19 21  1  0
 21 22  1  0
 22 23  1  0
  6  2  2  0
 21 15  1  0
  1 24  1  0
  1 25  1  0
  1 26  1  0
  3 27  1  0
  4 28  1  0
 10 29  1  0
 10 30  1  0
 13 31  1  0
 13 32  1  0
 13 33  1  0
 16 34  1  0
 16 35  1  0
 17 36  1  0
 17 37  1  0
 18 38  1  0
 18 39  1  0
 19 40  1  0
 20 41  1  0
 20 42  1  0
 20 43  1  0
 21 44  1  0
 22 45  1  0
 22 46  1  0
 23 47  1  0
M  END
>  <Energy>  (488) 
-92.112029741082679

>  <compound_id>  (488) 
784

>  <target_id>  (488) 
1

>  <reference_id>  (488) 
6

>  <inspiration_ids>  (488) 
[66, 6]

>  <energy_score>  (488) 
-66.10042836311312

>  <distance_score>  (488) 
1.2752776261769083

>  <path>  (488) 
/opt/xchem-fragalysis-2/maxwin/BulkDock/SCRATCH/505733/C784-P6/C784-P6.minimised.mol

>  <scratch_subdir>  (488) 
/opt/xchem-fragalysis-2/maxwin/BulkDock/SCRATCH/505733/C784-P6

>  <fragmenstein_runtime>  (488) 
3.657484292984009

>  <fragmenstein_outcome>  (488) 
too moved

>  <fragmenstein_mode>  (488) 
expansion

>  <fragmenstein_error>  (488) 


$$$$
C786-P66
     RDKit          3D

 29 30  0  0  0  0  0  0  0  0999 V2000
   10.8860    3.9923   15.6136 C   0  0  0  0  0  0  0  0  0  0  0  0
   11.6261    3.4538   14.4085 C   0  0  0  0  0  0  0  0  0  0  0  0
   12.3539    4.0957   13.7636 O   0  0  0  0  0  0  0  0  0  0  0  0
   11.1832    1.9785   14.2526 N   0  0  0  0  0  0  0  0  0  0  0  0
   11.6189    0.9631   13.3256 C   0  0  0  0  0  0  0  0  0  0  0  0
   11.9061   -0.3803   13.9965 C   0  0  0  0  0  0  0  0  0  0  0  0
   13.1010   -0.4850   14.9014 C   0  0  0  0  0  0  0  0  0  0  0  0
   14.0202    0.5299   15.0931 C   0  0  0  0  0  0  0  0  0  0  0  0
   15.1059    0.4529   15.9107 N   0  0  0  0  0  0  0  0  0  0  0  0
   15.3403   -0.7167   16.5366 C   0  0  0  0  0  0  0  0  0  0  0  0
   14.5071   -1.7962   16.3889 C   0  0  0  0  0  0  0  0  0  0  0  0
   13.3666   -1.6534   15.6055 C   0  0  0  0  0  0  0  0  0  0  0  0
   12.3018   -3.0634   15.7331 S   0  0  0  0  0  0  0  0  0  0  0  0
   13.3897   -3.8881   16.9156 C   0  0  0  0  0  0  0  0  0  0  0  0
   14.7452   -3.1727   16.9039 C   0  0  0  0  0  0  0  0  0  0  0  0
   15.2694   -3.2012   18.1544 F   0  0  0  0  0  0  0  0  0  0  0  0
   11.1109    5.0563   15.7318 H   0  0  0  0  0  0  0  0  0  0  0  0
   11.2102    3.4643   16.5138 H   0  0  0  0  0  0  0  0  0  0  0  0
    9.8071    3.8786   15.4764 H   0  0  0  0  0  0  0  0  0  0  0  0
   10.4737    1.7631   14.9431 H   0  0  0  0  0  0  0  0  0  0  0  0
   10.7991    0.8450   12.6133 H   0  0  0  0  0  0  0  0  0  0  0  0
   12.4831    1.3400   12.7695 H   0  0  0  0  0  0  0  0  0  0  0  0
   12.0557   -1.1296   13.2145 H   0  0  0  0  0  0  0  0  0  0  0  0
   11.0124   -0.6758   14.5542 H   0  0  0  0  0  0  0  0  0  0  0  0
   13.9352    1.4927   14.5948 H   0  0  0  0  0  0  0  0  0  0  0  0
   16.2424   -0.7601   17.1392 H   0  0  0  0  0  0  0  0  0  0  0  0
   13.5024   -4.9401   16.6513 H   0  0  0  0  0  0  0  0  0  0  0  0
   12.9497   -3.8527   17.9142 H   0  0  0  0  0  0  0  0  0  0  0  0
   15.4437   -3.6939   16.2387 H   0  0  0  0  0  0  0  0  0  0  0  0
  1  2  1  0
  2  3  2  0
  2  4  1  0
  4  5  1  0
  5  6  1  0
  6  7  1  0
  7  8  2  0
  8  9  1  0
  9 10  2  0
 10 11  1  0
 11 12  2  0
 12 13  1  0
 13 14  1  0
 14 15  1  0
 15 16  1  0
 12  7  1  0
 15 11  1  0
  1 17  1  0
  1 18  1  0
  1 19  1  0
  4 20  1  0
  5 21  1  0
  5 22  1  0
  6 23  1  0
  6 24  1  0
  8 25  1  0
 10 26  1  0
 14 27  1  0
 14 28  1  0
 15 29  1  0
M  END
>  <Energy>  (489) 
20.095604243667154

>  <compound_id>  (489) 
786

>  <target_id>  (489) 
1

>  <reference_id>  (489) 
66

>  <inspiration_ids>  (489) 
[66, 10]

>  <energy_score>  (489) 
-8.349262756805523

>  <distance_score>  (489) 
5.4902447762259445

>  <path>  (489) 
/opt/xchem-fragalysis-2/maxwin/BulkDock/SCRATCH/505733/C786-P66/C786-P66.minimised.mol

>  <scratch_subdir>  (489) 
/opt/xchem-fragalysis-2/maxwin/BulkDock/SCRATCH/505733/C786-P66

>  <fragmenstein_runtime>  (489) 
1.7649972438812256

>  <fragmenstein_outcome>  (489) 
too moved

>  <fragmenstein_mode>  (489) 
expansion

>  <fragmenstein_error>  (489) 


$$$$
C786-P10
     RDKit          3D

 29 30  0  0  0  0  0  0  0  0999 V2000
   15.3628   -1.6304   11.7498 C   0  0  0  0  0  0  0  0  0  0  0  0
   14.7570   -0.2491   11.8784 C   0  0  0  0  0  0  0  0  0  0  0  0
   15.1905    0.6959   11.3513 O   0  0  0  0  0  0  0  0  0  0  0  0
   13.5568   -0.3966   12.8439 N   0  0  0  0  0  0  0  0  0  0  0  0
   12.5840    0.5744   13.2851 C   0  0  0  0  0  0  0  0  0  0  0  0
   11.8542    0.1385   14.5569 C   0  0  0  0  0  0  0  0  0  0  0  0
   12.8234   -0.1217   15.6761 C   0  0  0  0  0  0  0  0  0  0  0  0
   13.5208    0.9348   16.2384 C   0  0  0  0  0  0  0  0  0  0  0  0
   14.4768    0.8201   17.1946 N   0  0  0  0  0  0  0  0  0  0  0  0
   14.8049   -0.4240   17.5912 C   0  0  0  0  0  0  0  0  0  0  0  0
   14.1592   -1.5396   17.1110 C   0  0  0  0  0  0  0  0  0  0  0  0
   13.1509   -1.3762   16.1635 C   0  0  0  0  0  0  0  0  0  0  0  0
   12.4038   -2.9107   15.7241 S   0  0  0  0  0  0  0  0  0  0  0  0
   13.3259   -3.8307   16.9818 C   0  0  0  0  0  0  0  0  0  0  0  0
   14.4699   -2.9463   17.4940 C   0  0  0  0  0  0  0  0  0  0  0  0
   15.6358   -3.3885   16.9527 F   0  0  0  0  0  0  0  0  0  0  0  0
   15.7331   -1.9651   12.7227 H   0  0  0  0  0  0  0  0  0  0  0  0
   16.2002   -1.5957   11.0468 H   0  0  0  0  0  0  0  0  0  0  0  0
   14.6202   -2.3356   11.3690 H   0  0  0  0  0  0  0  0  0  0  0  0
   13.4062   -1.3805   13.0505 H   0  0  0  0  0  0  0  0  0  0  0  0
   13.1123    1.5243   13.4221 H   0  0  0  0  0  0  0  0  0  0  0  0
   11.8678    0.7317   12.4735 H   0  0  0  0  0  0  0  0  0  0  0  0
   11.2452   -0.7455   14.3471 H   0  0  0  0  0  0  0  0  0  0  0  0
   11.1507    0.9218   14.8653 H   0  0  0  0  0  0  0  0  0  0  0  0
   13.3425    1.9602   15.9204 H   0  0  0  0  0  0  0  0  0  0  0  0
   15.6084   -0.4898   18.3185 H   0  0  0  0  0  0  0  0  0  0  0  0
   12.6469   -4.0636   17.8016 H   0  0  0  0  0  0  0  0  0  0  0  0
   13.7007   -4.7714   16.5736 H   0  0  0  0  0  0  0  0  0  0  0  0
   14.5594   -3.0476   18.5810 H   0  0  0  0  0  0  0  0  0  0  0  0
  1  2  1  0
  2  3  2  0
  2  4  1  0
  4  5  1  0
  5  6  1  0
  6  7  1  0
  7  8  2  0
  8  9  1  0
  9 10  2  0
 10 11  1  0
 11 12  2  0
 12 13  1  0
 13 14  1  0
 14 15  1  0
 15 16  1  0
 12  7  1  0
 15 11  1  0
  1 17  1  0
  1 18  1  0
  1 19  1  0
  4 20  1  0
  5 21  1  0
  5 22  1  0
  6 23  1  0
  6 24  1  0
  8 25  1  0
 10 26  1  0
 14 27  1  0
 14 28  1  0
 15 29  1  0
M  END
>  <Energy>  (490) 
18.808516497991818

>  <compound_id>  (490) 
786

>  <target_id>  (490) 
1

>  <reference_id>  (490) 
10

>  <inspiration_ids>  (490) 
[66, 10]

>  <energy_score>  (490) 
-9.636350502481264

>  <distance_score>  (490) 
4.337199701730657

>  <path>  (490) 
/opt/xchem-fragalysis-2/maxwin/BulkDock/SCRATCH/505733/C786-P10/C786-P10.minimised.mol

>  <scratch_subdir>  (490) 
/opt/xchem-fragalysis-2/maxwin/BulkDock/SCRATCH/505733/C786-P10

>  <fragmenstein_runtime>  (490) 
1.4917643070220947

>  <fragmenstein_outcome>  (490) 
too moved

>  <fragmenstein_mode>  (490) 
expansion

>  <fragmenstein_error>  (490) 


$$$$
C787-P66
     RDKit          3D

 24 24  0  0  0  0  0  0  0  0999 V2000
   13.8004    0.4503   14.8188 C   0  0  0  0  0  0  0  0  0  0  0  0
   13.3940   -0.9376   15.1744 C   0  0  0  0  0  0  0  0  0  0  0  0
   14.0496   -1.8276   16.0180 C   0  0  0  0  0  0  0  0  0  0  0  0
   15.3416   -1.7157   16.6661 C   0  0  0  0  0  0  0  0  0  0  0  0
   15.5102   -1.7472   17.8790 O   0  0  0  0  0  0  0  0  0  0  0  0
   16.3782   -1.4674   15.8112 O   0  0  0  0  0  0  0  0  0  0  0  0
   16.4676   -2.2005   14.5798 C   0  0  0  0  0  0  0  0  0  0  0  0
   16.5299   -1.2758   13.4663 N   0  0  0  0  0  0  0  0  0  0  0  0
   16.3109   -1.9269   12.2013 C   0  0  0  0  0  0  0  0  0  0  0  0
   14.9372   -2.2007   12.0552 O   0  0  0  0  0  0  0  0  0  0  0  0
   13.0832   -3.2102   16.3715 S   0  0  0  0  0  0  0  0  0  0  0  0
   11.8937   -2.7197   15.2705 C   0  0  0  0  0  0  0  0  0  0  0  0
   10.7846   -3.4215   15.0045 F   0  0  0  0  0  0  0  0  0  0  0  0
   12.1781   -1.5080   14.7152 C   0  0  0  0  0  0  0  0  0  0  0  0
   11.3705   -0.8481   13.8794 F   0  0  0  0  0  0  0  0  0  0  0  0
   13.0479    1.1657   15.1668 H   0  0  0  0  0  0  0  0  0  0  0  0
   14.7555    0.7287   15.2730 H   0  0  0  0  0  0  0  0  0  0  0  0
   13.8893    0.5581   13.7330 H   0  0  0  0  0  0  0  0  0  0  0  0
   15.6621   -2.9315   14.4825 H   0  0  0  0  0  0  0  0  0  0  0  0
   17.4031   -2.7690   14.6247 H   0  0  0  0  0  0  0  0  0  0  0  0
   15.7852   -0.5971   13.5643 H   0  0  0  0  0  0  0  0  0  0  0  0
   16.5945   -1.2452   11.3934 H   0  0  0  0  0  0  0  0  0  0  0  0
   16.9178   -2.8298   12.0810 H   0  0  0  0  0  0  0  0  0  0  0  0
   14.8745   -3.1625   11.9030 H   0  0  0  0  0  0  0  0  0  0  0  0
  1  2  1  0
  2  3  2  0
  3  4  1  0
  4  5  2  0
  4  6  1  0
  6  7  1  0
  7  8  1  0
  8  9  1  0
  9 10  1  0
  3 11  1  0
 11 12  1  0
 12 13  1  0
 12 14  2  0
 14 15  1  0
 14  2  1  0
  1 16  1  0
  1 17  1  0
  1 18  1  0
  7 19  1  0
  7 20  1  0
  8 21  1  0
  9 22  1  0
  9 23  1  0
 10 24  1  0
M  END
>  <Energy>  (491) 
-44.779812700134428

>  <compound_id>  (491) 
787

>  <target_id>  (491) 
1

>  <reference_id>  (491) 
66

>  <inspiration_ids>  (491) 
[66, 12]

>  <energy_score>  (491) 
-24.696438806302524

>  <distance_score>  (491) 
0.8180362037645468

>  <path>  (491) 
/opt/xchem-fragalysis-2/maxwin/BulkDock/SCRATCH/505733/C787-P66/C787-P66.minimised.mol

>  <scratch_subdir>  (491) 
/opt/xchem-fragalysis-2/maxwin/BulkDock/SCRATCH/505733/C787-P66

>  <fragmenstein_runtime>  (491) 
0.9201126098632812

>  <fragmenstein_outcome>  (491) 
acceptable

>  <fragmenstein_mode>  (491) 
expansion

>  <fragmenstein_error>  (491) 


$$$$
C787-P12
     RDKit          3D

 24 24  0  0  0  0  0  0  0  0999 V2000
   13.2127    0.7343   15.1892 C   0  0  0  0  0  0  0  0  0  0  0  0
   12.8376   -0.6821   15.4581 C   0  0  0  0  0  0  0  0  0  0  0  0
   13.6776   -1.7023   15.9008 C   0  0  0  0  0  0  0  0  0  0  0  0
   15.1181   -1.7440   16.0470 C   0  0  0  0  0  0  0  0  0  0  0  0
   15.7622   -2.5507   16.7052 O   0  0  0  0  0  0  0  0  0  0  0  0
   15.6576   -0.7887   15.2495 O   0  0  0  0  0  0  0  0  0  0  0  0
   16.9502   -1.0787   14.7445 C   0  0  0  0  0  0  0  0  0  0  0  0
   16.9244   -1.0531   13.2887 N   0  0  0  0  0  0  0  0  0  0  0  0
   16.1509   -2.1335   12.7263 C   0  0  0  0  0  0  0  0  0  0  0  0
   14.8796   -1.6370   12.3624 O   0  0  0  0  0  0  0  0  0  0  0  0
   12.8014   -3.1522   16.2139 S   0  0  0  0  0  0  0  0  0  0  0  0
   11.4350   -2.5325   15.4454 C   0  0  0  0  0  0  0  0  0  0  0  0
   10.3506   -3.2525   15.1454 F   0  0  0  0  0  0  0  0  0  0  0  0
   11.5390   -1.1963   15.2107 C   0  0  0  0  0  0  0  0  0  0  0  0
   10.5307   -0.4360   14.7632 F   0  0  0  0  0  0  0  0  0  0  0  0
   13.7060    0.8216   14.2159 H   0  0  0  0  0  0  0  0  0  0  0  0
   12.3295    1.3818   15.1794 H   0  0  0  0  0  0  0  0  0  0  0  0
   13.8863    1.1153   15.9635 H   0  0  0  0  0  0  0  0  0  0  0  0
   17.3747   -2.0241   15.1036 H   0  0  0  0  0  0  0  0  0  0  0  0
   17.6184   -0.2839   15.0921 H   0  0  0  0  0  0  0  0  0  0  0  0
   16.4495   -0.1989   13.0038 H   0  0  0  0  0  0  0  0  0  0  0  0
   16.6432   -2.4967   11.8193 H   0  0  0  0  0  0  0  0  0  0  0  0
   16.0328   -2.9676   13.4214 H   0  0  0  0  0  0  0  0  0  0  0  0
   14.4043   -2.4004   11.9882 H   0  0  0  0  0  0  0  0  0  0  0  0
  1  2  1  0
  2  3  2  0
  3  4  1  0
  4  5  2  0
  4  6  1  0
  6  7  1  0
  7  8  1  0
  8  9  1  0
  9 10  1  0
  3 11  1  0
 11 12  1  0
 12 13  1  0
 12 14  2  0
 14 15  1  0
 14  2  1  0
  1 16  1  0
  1 17  1  0
  1 18  1  0
  7 19  1  0
  7 20  1  0
  8 21  1  0
  9 22  1  0
  9 23  1  0
 10 24  1  0
M  END
>  <Energy>  (492) 
-56.615103965187032

>  <compound_id>  (492) 
787

>  <target_id>  (492) 
1

>  <reference_id>  (492) 
12

>  <inspiration_ids>  (492) 
[66, 12]

>  <energy_score>  (492) 
-36.531730071355256

>  <distance_score>  (492) 
1.2845656743414278

>  <path>  (492) 
/opt/xchem-fragalysis-2/maxwin/BulkDock/SCRATCH/505733/C787-P12/C787-P12.minimised.mol

>  <scratch_subdir>  (492) 
/opt/xchem-fragalysis-2/maxwin/BulkDock/SCRATCH/505733/C787-P12

>  <fragmenstein_runtime>  (492) 
1.1187753677368164

>  <fragmenstein_outcome>  (492) 
too moved

>  <fragmenstein_mode>  (492) 
expansion

>  <fragmenstein_error>  (492) 


$$$$
C789-P66
     RDKit          3D

 24 25  0  0  0  0  0  0  0  0999 V2000
   11.6751   -1.0981   13.4721 O   0  0  0  0  0  0  0  0  0  0  0  0
   12.6279   -2.1222   13.8840 N   0  0  0  0  0  0  0  0  0  0  0  0
   13.0044   -1.6809   15.2274 C   0  0  0  0  0  0  0  0  0  0  0  0
   13.7737   -0.3353   15.1836 C   0  0  0  0  0  0  0  0  0  0  0  0
   15.2695   -0.5426   14.9578 C   0  0  0  0  0  0  0  0  0  0  0  0
   15.5294   -1.1196   13.6988 O   0  0  0  0  0  0  0  0  0  0  0  0
   15.7891   -1.4321   15.9636 N   0  0  0  0  0  0  0  0  0  0  0  0
   15.0509   -2.5050   16.3933 C   0  0  0  0  0  0  0  0  0  0  0  0
   13.7624   -2.6834   16.0552 C   0  0  0  0  0  0  0  0  0  0  0  0
   13.0437   -4.0076   16.8969 S   0  0  0  0  0  0  0  0  0  0  0  0
   14.3984   -4.0385   18.1180 C   0  0  0  0  0  0  0  0  0  0  0  0
   15.6036   -3.5097   17.3595 C   0  0  0  0  0  0  0  0  0  0  0  0
   10.8302   -1.6002   13.3912 H   0  0  0  0  0  0  0  0  0  0  0  0
   13.4073   -1.9555   13.2392 H   0  0  0  0  0  0  0  0  0  0  0  0
   12.0434   -1.5427   15.7174 H   0  0  0  0  0  0  0  0  0  0  0  0
   13.3725    0.3347   14.4145 H   0  0  0  0  0  0  0  0  0  0  0  0
   13.6518    0.1857   16.1392 H   0  0  0  0  0  0  0  0  0  0  0  0
   15.7905    0.4186   15.0070 H   0  0  0  0  0  0  0  0  0  0  0  0
   15.6803   -2.0606   13.8989 H   0  0  0  0  0  0  0  0  0  0  0  0
   16.8001   -1.5288   16.0012 H   0  0  0  0  0  0  0  0  0  0  0  0
   14.5760   -5.0285   18.5368 H   0  0  0  0  0  0  0  0  0  0  0  0
   14.1465   -3.3708   18.9478 H   0  0  0  0  0  0  0  0  0  0  0  0
   16.3180   -3.0580   18.0560 H   0  0  0  0  0  0  0  0  0  0  0  0
   16.1203   -4.3093   16.8152 H   0  0  0  0  0  0  0  0  0  0  0  0
  1  2  1  0
  2  3  1  0
  3  4  1  0
  4  5  1  0
  5  6  1  0
  5  7  1  0
  7  8  1  0
  8  9  2  0
  9 10  1  0
 10 11  1  0
 11 12  1  0
  9  3  1  0
 12  8  1  0
  1 13  1  0
  2 14  1  0
  3 15  1  0
  4 16  1  0
  4 17  1  0
  5 18  1  0
  6 19  1  0
  7 20  1  0
 11 21  1  0
 11 22  1  0
 12 23  1  0
 12 24  1  0
M  END
>  <Energy>  (493) 
8.3164855435534513

>  <compound_id>  (493) 
789

>  <target_id>  (493) 
1

>  <reference_id>  (493) 
66

>  <inspiration_ids>  (493) 
[66, 20]

>  <energy_score>  (493) 
-36.10440428337411

>  <distance_score>  (493) 
2.234401549891341

>  <path>  (493) 
/opt/xchem-fragalysis-2/maxwin/BulkDock/SCRATCH/505733/C789-P66/C789-P66.minimised.mol

>  <scratch_subdir>  (493) 
/opt/xchem-fragalysis-2/maxwin/BulkDock/SCRATCH/505733/C789-P66

>  <fragmenstein_runtime>  (493) 
1.2568614482879639

>  <fragmenstein_outcome>  (493) 
too moved

>  <fragmenstein_mode>  (493) 
expansion

>  <fragmenstein_error>  (493) 


$$$$
C789-P20
     RDKit          3D

 24 25  0  0  0  0  0  0  0  0999 V2000
   11.3608   -0.6967   13.7377 O   0  0  0  0  0  0  0  0  0  0  0  0
   12.3622   -1.6109   14.2724 N   0  0  0  0  0  0  0  0  0  0  0  0
   12.5739   -1.1392   15.6466 C   0  0  0  0  0  0  0  0  0  0  0  0
   13.1347    0.3074   15.6687 C   0  0  0  0  0  0  0  0  0  0  0  0
   14.6565    0.3540   15.6138 C   0  0  0  0  0  0  0  0  0  0  0  0
   15.1450   -0.1322   14.3848 O   0  0  0  0  0  0  0  0  0  0  0  0
   15.1966   -0.4709   16.6610 N   0  0  0  0  0  0  0  0  0  0  0  0
   14.6347   -1.6894   16.9408 C   0  0  0  0  0  0  0  0  0  0  0  0
   13.4479   -2.0755   16.4435 C   0  0  0  0  0  0  0  0  0  0  0  0
   13.0082   -3.6773   16.9107 S   0  0  0  0  0  0  0  0  0  0  0  0
   14.6637   -4.0066   17.6000 C   0  0  0  0  0  0  0  0  0  0  0  0
   15.3236   -2.6670   17.8356 C   0  0  0  0  0  0  0  0  0  0  0  0
   10.6154   -1.3041   13.5148 H   0  0  0  0  0  0  0  0  0  0  0  0
   13.1844   -1.3764   13.7079 H   0  0  0  0  0  0  0  0  0  0  0  0
   11.5908   -1.1144   16.1349 H   0  0  0  0  0  0  0  0  0  0  0  0
   12.7196    0.9148   14.8562 H   0  0  0  0  0  0  0  0  0  0  0  0
   12.8167    0.7943   16.5968 H   0  0  0  0  0  0  0  0  0  0  0  0
   15.0032    1.3850   15.7350 H   0  0  0  0  0  0  0  0  0  0  0  0
   15.4490   -1.0307   14.5971 H   0  0  0  0  0  0  0  0  0  0  0  0
   16.1904   -0.3675   16.8461 H   0  0  0  0  0  0  0  0  0  0  0  0
   14.6007   -4.5811   18.5280 H   0  0  0  0  0  0  0  0  0  0  0  0
   15.2428   -4.5671   16.8608 H   0  0  0  0  0  0  0  0  0  0  0  0
   15.2093   -2.3529   18.8802 H   0  0  0  0  0  0  0  0  0  0  0  0
   16.3968   -2.7287   17.6239 H   0  0  0  0  0  0  0  0  0  0  0  0
  1  2  1  0
  2  3  1  0
  3  4  1  0
  4  5  1  0
  5  6  1  0
  5  7  1  0
  7  8  1  0
  8  9  2  0
  9 10  1  0
 10 11  1  0
 11 12  1  0
  9  3  1  0
 12  8  1  0
  1 13  1  0
  2 14  1  0
  3 15  1  0
  4 16  1  0
  4 17  1  0
  5 18  1  0
  6 19  1  0
  7 20  1  0
 11 21  1  0
 11 22  1  0
 12 23  1  0
 12 24  1  0
M  END
>  <Energy>  (494) 
6.0465967668033542

>  <compound_id>  (494) 
789

>  <target_id>  (494) 
1

>  <reference_id>  (494) 
20

>  <inspiration_ids>  (494) 
[66, 20]

>  <energy_score>  (494) 
-38.37429306012463

>  <distance_score>  (494) 
2.300308066207263

>  <path>  (494) 
/opt/xchem-fragalysis-2/maxwin/BulkDock/SCRATCH/505733/C789-P20/C789-P20.minimised.mol

>  <scratch_subdir>  (494) 
/opt/xchem-fragalysis-2/maxwin/BulkDock/SCRATCH/505733/C789-P20

>  <fragmenstein_runtime>  (494) 
1.3250529766082764

>  <fragmenstein_outcome>  (494) 
too moved

>  <fragmenstein_mode>  (494) 
expansion

>  <fragmenstein_error>  (494) 


$$$$
C791-P66
     RDKit          3D

 33 34  0  0  0  0  0  0  0  0999 V2000
   16.2491   -1.8246   17.2151 O   0  0  0  0  0  0  0  0  0  0  0  0
   15.6676   -1.9863   16.1523 C   0  0  0  0  0  0  0  0  0  0  0  0
   16.3608   -2.0273   14.9951 O   0  0  0  0  0  0  0  0  0  0  0  0
   14.2700   -2.2062   15.9244 C   0  0  0  0  0  0  0  0  0  0  0  0
   13.5828   -3.5777   16.6951 S   0  0  0  0  0  0  0  0  0  0  0  0
   12.0985   -3.3630   15.8902 C   0  0  0  0  0  0  0  0  0  0  0  0
   12.0839   -2.2159   15.1382 C   0  0  0  0  0  0  0  0  0  0  0  0
   13.3233   -1.4754   15.2201 C   0  0  0  0  0  0  0  0  0  0  0  0
   13.4238   -0.1139   14.7030 C   0  0  0  0  0  0  0  0  0  0  0  0
   12.4294    0.4960   14.3043 O   0  0  0  0  0  0  0  0  0  0  0  0
   14.6174    0.5621   14.7451 N   0  0  0  0  0  0  0  0  0  0  0  0
   15.4975    0.5601   13.6005 C   0  0  0  0  0  0  0  0  0  0  0  0
   15.5366    1.9889   13.0379 C   0  0  0  0  0  0  0  0  0  0  0  0
   15.1700    3.0698   14.0949 C   0  0  0  0  0  0  0  0  0  0  0  0
   13.6686    3.4297   14.1886 C   0  0  0  0  0  0  0  0  0  0  0  0
   12.9188    3.0006   13.0649 O   0  0  0  0  0  0  0  0  0  0  0  0
   15.6862    2.6315   15.4860 C   0  0  0  0  0  0  0  0  0  0  0  0
   15.0541    1.3026   15.9172 C   0  0  0  0  0  0  0  0  0  0  0  0
   17.2922   -1.9730   15.2886 H   0  0  0  0  0  0  0  0  0  0  0  0
   11.3061   -4.0849   16.0201 H   0  0  0  0  0  0  0  0  0  0  0  0
   11.2077   -1.8701   14.5961 H   0  0  0  0  0  0  0  0  0  0  0  0
   15.1482   -0.1453   12.8390 H   0  0  0  0  0  0  0  0  0  0  0  0
   16.4983    0.2572   13.9244 H   0  0  0  0  0  0  0  0  0  0  0  0
   14.8978    2.0657   12.1517 H   0  0  0  0  0  0  0  0  0  0  0  0
   16.5549    2.1759   12.6724 H   0  0  0  0  0  0  0  0  0  0  0  0
   15.6989    3.9885   13.8084 H   0  0  0  0  0  0  0  0  0  0  0  0
   13.5750    4.5206   14.2414 H   0  0  0  0  0  0  0  0  0  0  0  0
   13.1843    3.0502   15.0942 H   0  0  0  0  0  0  0  0  0  0  0  0
   12.5900    2.1007   13.2880 H   0  0  0  0  0  0  0  0  0  0  0  0
   15.4999    3.4024   16.2425 H   0  0  0  0  0  0  0  0  0  0  0  0
   16.7759    2.5088   15.4309 H   0  0  0  0  0  0  0  0  0  0  0  0
   14.1968    1.4692   16.5762 H   0  0  0  0  0  0  0  0  0  0  0  0
   15.7864    0.7100   16.4712 H   0  0  0  0  0  0  0  0  0  0  0  0
  1  2  2  0
  2  3  1  0
  2  4  1  0
  4  5  1  0
  5  6  1  0
  6  7  2  0
  7  8  1  0
  8  9  1  0
  9 10  2  0
  9 11  1  0
 11 12  1  0
 12 13  1  0
 13 14  1  0
 14 15  1  0
 15 16  1  0
 14 17  1  0
 17 18  1  0
  8  4  2  0
 18 11  1  0
  3 19  1  0
  6 20  1  0
  7 21  1  0
 12 22  1  0
 12 23  1  0
 13 24  1  0
 13 25  1  0
 14 26  1  0
 15 27  1  0
 15 28  1  0
 16 29  1  0
 17 30  1  0
 17 31  1  0
 18 32  1  0
 18 33  1  0
M  END
>  <Energy>  (495) 
7.2280786369283101

>  <compound_id>  (495) 
791

>  <target_id>  (495) 
1

>  <reference_id>  (495) 
66

>  <inspiration_ids>  (495) 
[66, 26]

>  <energy_score>  (495) 
-8.653498289023275

>  <distance_score>  (495) 
1.1712457856854017

>  <path>  (495) 
/opt/xchem-fragalysis-2/maxwin/BulkDock/SCRATCH/505733/C791-P66/C791-P66.minimised.mol

>  <scratch_subdir>  (495) 
/opt/xchem-fragalysis-2/maxwin/BulkDock/SCRATCH/505733/C791-P66

>  <fragmenstein_runtime>  (495) 
1.1483945846557617

>  <fragmenstein_outcome>  (495) 
too moved

>  <fragmenstein_mode>  (495) 
expansion

>  <fragmenstein_error>  (495) 


$$$$
C791-P26
     RDKit          3D

 33 34  0  0  0  0  0  0  0  0999 V2000
   14.6572   -0.4632   18.2536 O   0  0  0  0  0  0  0  0  0  0  0  0
   14.5364   -1.5251   17.6617 C   0  0  0  0  0  0  0  0  0  0  0  0
   15.4397   -2.5096   17.8693 O   0  0  0  0  0  0  0  0  0  0  0  0
   13.4984   -1.8949   16.7316 C   0  0  0  0  0  0  0  0  0  0  0  0
   12.9674   -3.5291   16.6823 S   0  0  0  0  0  0  0  0  0  0  0  0
   11.6936   -3.1623   15.6175 C   0  0  0  0  0  0  0  0  0  0  0  0
   11.6773   -1.8369   15.2750 C   0  0  0  0  0  0  0  0  0  0  0  0
   12.7389   -1.0916   15.8920 C   0  0  0  0  0  0  0  0  0  0  0  0
   12.9023    0.3257   15.6129 C   0  0  0  0  0  0  0  0  0  0  0  0
   11.9819    1.1262   15.7641 O   0  0  0  0  0  0  0  0  0  0  0  0
   14.1061    0.7166   15.0735 N   0  0  0  0  0  0  0  0  0  0  0  0
   14.2923    0.6411   13.6361 C   0  0  0  0  0  0  0  0  0  0  0  0
   14.7579    1.9768   13.0520 C   0  0  0  0  0  0  0  0  0  0  0  0
   15.0262    3.0424   14.1291 C   0  0  0  0  0  0  0  0  0  0  0  0
   13.7606    3.6989   14.7200 C   0  0  0  0  0  0  0  0  0  0  0  0
   12.5717    3.3437   14.0322 O   0  0  0  0  0  0  0  0  0  0  0  0
   15.8890    2.4086   15.2405 C   0  0  0  0  0  0  0  0  0  0  0  0
   15.2022    1.2040   15.8892 C   0  0  0  0  0  0  0  0  0  0  0  0
   16.0420   -2.1318   18.5422 H   0  0  0  0  0  0  0  0  0  0  0  0
   11.0090   -3.9260   15.2826 H   0  0  0  0  0  0  0  0  0  0  0  0
   10.9491   -1.4071   14.5935 H   0  0  0  0  0  0  0  0  0  0  0  0
   13.3613    0.3214   13.1532 H   0  0  0  0  0  0  0  0  0  0  0  0
   15.0401   -0.1373   13.4438 H   0  0  0  0  0  0  0  0  0  0  0  0
   14.0417    2.3391   12.3050 H   0  0  0  0  0  0  0  0  0  0  0  0
   15.6852    1.7973   12.4915 H   0  0  0  0  0  0  0  0  0  0  0  0
   15.6189    3.8419   13.6651 H   0  0  0  0  0  0  0  0  0  0  0  0
   13.8616    4.7870   14.6366 H   0  0  0  0  0  0  0  0  0  0  0  0
   13.6289    3.4942   15.7883 H   0  0  0  0  0  0  0  0  0  0  0  0
   12.1637    2.6177   14.5529 H   0  0  0  0  0  0  0  0  0  0  0  0
   16.1523    3.1491   16.0050 H   0  0  0  0  0  0  0  0  0  0  0  0
   16.8391    2.0776   14.8007 H   0  0  0  0  0  0  0  0  0  0  0  0
   14.8076    1.4990   16.8662 H   0  0  0  0  0  0  0  0  0  0  0  0
   15.9226    0.3923   16.0303 H   0  0  0  0  0  0  0  0  0  0  0  0
  1  2  2  0
  2  3  1  0
  2  4  1  0
  4  5  1  0
  5  6  1  0
  6  7  2  0
  7  8  1  0
  8  9  1  0
  9 10  2  0
  9 11  1  0
 11 12  1  0
 12 13  1  0
 13 14  1  0
 14 15  1  0
 15 16  1  0
 14 17  1  0
 17 18  1  0
  8  4  2  0
 18 11  1  0
  3 19  1  0
  6 20  1  0
  7 21  1  0
 12 22  1  0
 12 23  1  0
 13 24  1  0
 13 25  1  0
 14 26  1  0
 15 27  1  0
 15 28  1  0
 16 29  1  0
 17 30  1  0
 17 31  1  0
 18 32  1  0
 18 33  1  0
M  END
>  <Energy>  (496) 
6.4258430225941385

>  <compound_id>  (496) 
791

>  <target_id>  (496) 
1

>  <reference_id>  (496) 
26

>  <inspiration_ids>  (496) 
[66, 26]

>  <energy_score>  (496) 
-9.455733903355537

>  <distance_score>  (496) 
0.7983221547646355

>  <path>  (496) 
/opt/xchem-fragalysis-2/maxwin/BulkDock/SCRATCH/505733/C791-P26/C791-P26.minimised.mol

>  <scratch_subdir>  (496) 
/opt/xchem-fragalysis-2/maxwin/BulkDock/SCRATCH/505733/C791-P26

>  <fragmenstein_runtime>  (496) 
1.457740306854248

>  <fragmenstein_outcome>  (496) 
acceptable

>  <fragmenstein_mode>  (496) 
expansion

>  <fragmenstein_error>  (496) 


$$$$
C793-P66
     RDKit          3D

 21 21  0  0  0  0  0  0  0  0999 V2000
   11.1392    0.8205   13.7357 O   0  0  0  0  0  0  0  0  0  0  0  0
   11.9716   -0.0710   13.7202 C   0  0  0  0  0  0  0  0  0  0  0  0
   11.6359   -1.3674   13.8396 O   0  0  0  0  0  0  0  0  0  0  0  0
   13.4449    0.1255   13.5219 C   0  0  0  0  0  0  0  0  0  0  0  0
   14.1109    0.6016   14.7991 C   0  0  0  0  0  0  0  0  0  0  0  0
   14.5375   -0.4502   15.7985 C   0  0  0  0  0  0  0  0  0  0  0  0
   14.4847   -1.8681   15.5937 C   0  0  0  0  0  0  0  0  0  0  0  0
   15.0765   -2.5633   16.6094 C   0  0  0  0  0  0  0  0  0  0  0  0
   15.2469   -3.8917   16.5867 F   0  0  0  0  0  0  0  0  0  0  0  0
   15.5943   -1.5804   17.8731 S   0  0  0  0  0  0  0  0  0  0  0  0
   15.1201   -0.1536   17.0365 C   0  0  0  0  0  0  0  0  0  0  0  0
   15.3562    1.1629   17.6214 C   0  0  0  0  0  0  0  0  0  0  0  0
   15.0433    2.2299   17.1130 O   0  0  0  0  0  0  0  0  0  0  0  0
   15.9642    1.1153   18.8349 O   0  0  0  0  0  0  0  0  0  0  0  0
   10.6548   -1.3954   13.6722 H   0  0  0  0  0  0  0  0  0  0  0  0
   13.9023   -0.7732   13.0962 H   0  0  0  0  0  0  0  0  0  0  0  0
   13.5431    0.8969   12.7471 H   0  0  0  0  0  0  0  0  0  0  0  0
   13.4509    1.3174   15.3053 H   0  0  0  0  0  0  0  0  0  0  0  0
   15.0175    1.1521   14.5136 H   0  0  0  0  0  0  0  0  0  0  0  0
   14.0904   -2.3528   14.7135 H   0  0  0  0  0  0  0  0  0  0  0  0
   16.1629    0.2006   19.1149 H   0  0  0  0  0  0  0  0  0  0  0  0
  1  2  2  0
  2  3  1  0
  2  4  1  0
  4  5  1  0
  5  6  1  0
  6  7  1  0
  7  8  2  0
  8  9  1  0
  8 10  1  0
 10 11  1  0
 11 12  1  0
 12 13  2  0
 12 14  1  0
 11  6  2  0
  3 15  1  0
  4 16  1  0
  4 17  1  0
  5 18  1  0
  5 19  1  0
  7 20  1  0
 14 21  1  0
M  END
>  <Energy>  (497) 
-31.28270857572257

>  <compound_id>  (497) 
793

>  <target_id>  (497) 
1

>  <reference_id>  (497) 
66

>  <inspiration_ids>  (497) 
[66, 31]

>  <energy_score>  (497) 
-35.361121761235665

>  <distance_score>  (497) 
3.670688729544751

>  <path>  (497) 
/opt/xchem-fragalysis-2/maxwin/BulkDock/SCRATCH/505733/C793-P66/C793-P66.minimised.mol

>  <scratch_subdir>  (497) 
/opt/xchem-fragalysis-2/maxwin/BulkDock/SCRATCH/505733/C793-P66

>  <fragmenstein_runtime>  (497) 
1.0120036602020264

>  <fragmenstein_outcome>  (497) 
too moved

>  <fragmenstein_mode>  (497) 
expansion

>  <fragmenstein_error>  (497) 


$$$$
C793-P31
     RDKit          3D

 21 21  0  0  0  0  0  0  0  0999 V2000
   15.8386   -0.1083   10.3111 O   0  0  0  0  0  0  0  0  0  0  0  0
   15.3317    0.1723   11.3871 C   0  0  0  0  0  0  0  0  0  0  0  0
   15.1217    1.4589   11.7116 O   0  0  0  0  0  0  0  0  0  0  0  0
   14.8455   -0.8239   12.4008 C   0  0  0  0  0  0  0  0  0  0  0  0
   14.6933   -0.2507   13.8089 C   0  0  0  0  0  0  0  0  0  0  0  0
   14.2911   -1.3103   14.7983 C   0  0  0  0  0  0  0  0  0  0  0  0
   15.2558   -2.0298   15.5727 C   0  0  0  0  0  0  0  0  0  0  0  0
   14.6728   -2.9399   16.4025 C   0  0  0  0  0  0  0  0  0  0  0  0
   15.3994   -3.7320   17.2036 F   0  0  0  0  0  0  0  0  0  0  0  0
   12.9900   -2.9652   16.2889 S   0  0  0  0  0  0  0  0  0  0  0  0
   12.9955   -1.7378   15.0777 C   0  0  0  0  0  0  0  0  0  0  0  0
   11.7762   -1.2449   14.4718 C   0  0  0  0  0  0  0  0  0  0  0  0
   11.6886   -0.3155   13.6816 O   0  0  0  0  0  0  0  0  0  0  0  0
   10.6686   -1.9237   14.8473 O   0  0  0  0  0  0  0  0  0  0  0  0
   15.4574    1.9577   10.9377 H   0  0  0  0  0  0  0  0  0  0  0  0
   13.8924   -1.2258   12.0452 H   0  0  0  0  0  0  0  0  0  0  0  0
   15.5703   -1.6471   12.4196 H   0  0  0  0  0  0  0  0  0  0  0  0
   13.9745    0.5759   13.8248 H   0  0  0  0  0  0  0  0  0  0  0  0
   15.6478    0.1915   14.1254 H   0  0  0  0  0  0  0  0  0  0  0  0
   16.3269   -1.8807   15.5255 H   0  0  0  0  0  0  0  0  0  0  0  0
   10.0262   -1.6654   14.1291 H   0  0  0  0  0  0  0  0  0  0  0  0
  1  2  2  0
  2  3  1  0
  2  4  1  0
  4  5  1  0
  5  6  1  0
  6  7  1  0
  7  8  2  0
  8  9  1  0
  8 10  1  0
 10 11  1  0
 11 12  1  0
 12 13  2  0
 12 14  1  0
 11  6  2  0
  3 15  1  0
  4 16  1  0
  4 17  1  0
  5 18  1  0
  5 19  1  0
  7 20  1  0
 14 21  1  0
M  END
>  <Energy>  (498) 
-37.573992489758375

>  <compound_id>  (498) 
793

>  <target_id>  (498) 
1

>  <reference_id>  (498) 
31

>  <inspiration_ids>  (498) 
[66, 31]

>  <energy_score>  (498) 
-41.652405675271304

>  <distance_score>  (498) 
1.913014603279104

>  <path>  (498) 
/opt/xchem-fragalysis-2/maxwin/BulkDock/SCRATCH/505733/C793-P31/C793-P31.minimised.mol

>  <scratch_subdir>  (498) 
/opt/xchem-fragalysis-2/maxwin/BulkDock/SCRATCH/505733/C793-P31

>  <fragmenstein_runtime>  (498) 
0.9938125610351562

>  <fragmenstein_outcome>  (498) 
too moved

>  <fragmenstein_mode>  (498) 
expansion

>  <fragmenstein_error>  (498) 


$$$$
C796-P66
     RDKit          3D

 43 45  0  0  0  0  0  0  0  0999 V2000
   14.9482    0.5094   15.6805 C   0  0  0  0  0  0  0  0  0  0  0  0
   13.8966   -0.5551   15.4473 C   0  0  0  0  0  0  0  0  0  0  0  0
   14.0290   -1.7940   16.3500 C   0  0  0  0  0  0  0  0  0  0  0  0
   15.3750   -2.5258   16.4022 C   0  0  0  0  0  0  0  0  0  0  0  0
   16.4455   -1.9454   16.5424 O   0  0  0  0  0  0  0  0  0  0  0  0
   15.2400   -3.8740   16.3551 O   0  0  0  0  0  0  0  0  0  0  0  0
   16.2622   -4.6170   16.8417 C   0  0  0  0  0  0  0  0  0  0  0  0
   16.7304   -5.5601   16.2065 O   0  0  0  0  0  0  0  0  0  0  0  0
   16.7257   -4.2987   18.2553 C   0  0  0  0  0  0  0  0  0  0  0  0
   15.5946   -4.4572   19.2156 C   0  0  0  0  0  0  0  0  0  0  0  0
   14.6238   -3.5807   19.6386 C   0  0  0  0  0  0  0  0  0  0  0  0
   13.8212   -4.3251   20.5138 C   0  0  0  0  0  0  0  0  0  0  0  0
   14.2866   -5.5601   20.7010 N   0  0  0  0  0  0  0  0  0  0  0  0
   15.3591   -5.6206   19.9006 N   0  0  0  0  0  0  0  0  0  0  0  0
   12.6401   -2.8439   15.8059 S   0  0  0  0  0  0  0  0  0  0  0  0
   12.3672   -1.9662   14.2313 C   0  0  0  0  0  0  0  0  0  0  0  0
   13.5766   -0.9991   14.0016 C   0  0  0  0  0  0  0  0  0  0  0  0
   14.7233   -1.7239   13.2538 C   0  0  0  0  0  0  0  0  0  0  0  0
   15.8803   -0.8433   12.7830 C   0  0  0  0  0  0  0  0  0  0  0  0
   15.4370    0.5500   12.3631 C   0  0  0  0  0  0  0  0  0  0  0  0
   13.9406    0.6012   12.1119 C   0  0  0  0  0  0  0  0  0  0  0  0
   13.1384    0.2133   13.2692 N   0  0  0  0  0  0  0  0  0  0  0  0
   15.0190    0.7421   16.7497 H   0  0  0  0  0  0  0  0  0  0  0  0
   14.6913    1.4460   15.1759 H   0  0  0  0  0  0  0  0  0  0  0  0
   15.9432    0.2079   15.3536 H   0  0  0  0  0  0  0  0  0  0  0  0
   12.9954   -0.0201   15.7585 H   0  0  0  0  0  0  0  0  0  0  0  0
   13.8305   -1.5083   17.3868 H   0  0  0  0  0  0  0  0  0  0  0  0
   17.5266   -5.0048   18.5089 H   0  0  0  0  0  0  0  0  0  0  0  0
   17.1737   -3.3053   18.3200 H   0  0  0  0  0  0  0  0  0  0  0  0
   14.5177   -2.5418   19.3725 H   0  0  0  0  0  0  0  0  0  0  0  0
   12.9371   -4.0275   21.0590 H   0  0  0  0  0  0  0  0  0  0  0  0
   15.8796   -6.4937   19.8628 H   0  0  0  0  0  0  0  0  0  0  0  0
   12.2193   -2.6663   13.4056 H   0  0  0  0  0  0  0  0  0  0  0  0
   11.4345   -1.4054   14.3585 H   0  0  0  0  0  0  0  0  0  0  0  0
   15.1513   -2.5333   13.8462 H   0  0  0  0  0  0  0  0  0  0  0  0
   14.2993   -2.2070   12.3615 H   0  0  0  0  0  0  0  0  0  0  0  0
   16.3668   -1.3412   11.9343 H   0  0  0  0  0  0  0  0  0  0  0  0
   16.6541   -0.7720   13.5543 H   0  0  0  0  0  0  0  0  0  0  0  0
   15.7163    1.2834   13.1266 H   0  0  0  0  0  0  0  0  0  0  0  0
   15.9768    0.8474   11.4561 H   0  0  0  0  0  0  0  0  0  0  0  0
   13.6552    1.6154   11.8126 H   0  0  0  0  0  0  0  0  0  0  0  0
   13.7130   -0.0531   11.2701 H   0  0  0  0  0  0  0  0  0  0  0  0
   12.1596    0.1399   12.9951 H   0  0  0  0  0  0  0  0  0  0  0  0
  1  2  1  0
  2  3  1  0
  3  4  1  0
  4  5  2  0
  4  6  1  0
  6  7  1  0
  7  8  2  0
  7  9  1  0
  9 10  1  0
 10 11  2  0
 11 12  1  0
 12 13  2  0
 13 14  1  0
  3 15  1  0
 15 16  1  0
 16 17  1  0
 17 18  1  0
 18 19  1  0
 19 20  1  0
 20 21  1  0
 21 22  1  0
 17  2  1  0
 14 10  1  0
 22 17  1  0
  1 23  1  0
  1 24  1  0
  1 25  1  0
  2 26  1  0
  3 27  1  0
  9 28  1  0
  9 29  1  0
 11 30  1  0
 12 31  1  0
 14 32  1  0
 16 33  1  0
 16 34  1  0
 18 35  1  0
 18 36  1  0
 19 37  1  0
 19 38  1  0
 20 39  1  0
 20 40  1  0
 21 41  1  0
 21 42  1  0
 22 43  1  0
M  END
>  <Energy>  (499) 
71.940683371067195

>  <compound_id>  (499) 
796

>  <target_id>  (499) 
1

>  <reference_id>  (499) 
66

>  <inspiration_ids>  (499) 
[66, 60]

>  <energy_score>  (499) 
-50.36432014216814

>  <distance_score>  (499) 
2.760270857088286

>  <path>  (499) 
/opt/xchem-fragalysis-2/maxwin/BulkDock/SCRATCH/505733/C796-P66/C796-P66.minimised.mol

>  <scratch_subdir>  (499) 
/opt/xchem-fragalysis-2/maxwin/BulkDock/SCRATCH/505733/C796-P66

>  <fragmenstein_runtime>  (499) 
2.871131420135498

>  <fragmenstein_outcome>  (499) 
too moved

>  <fragmenstein_mode>  (499) 
expansion

>  <fragmenstein_error>  (499) 


$$$$
C796-P60
     RDKit          3D

 43 45  0  0  0  0  0  0  0  0999 V2000
   13.5954    0.8226   16.7421 C   0  0  0  0  0  0  0  0  0  0  0  0
   12.8981   -0.4102   16.1772 C   0  0  0  0  0  0  0  0  0  0  0  0
   13.4561   -1.7431   16.6730 C   0  0  0  0  0  0  0  0  0  0  0  0
   14.9663   -1.9846   16.6684 C   0  0  0  0  0  0  0  0  0  0  0  0
   15.7992   -1.2063   16.2347 O   0  0  0  0  0  0  0  0  0  0  0  0
   15.2020   -3.1601   17.3111 O   0  0  0  0  0  0  0  0  0  0  0  0
   16.4684   -3.4222   17.7132 C   0  0  0  0  0  0  0  0  0  0  0  0
   17.5018   -2.9261   17.2847 O   0  0  0  0  0  0  0  0  0  0  0  0
   16.4823   -4.4981   18.7867 C   0  0  0  0  0  0  0  0  0  0  0  0
   15.2648   -4.5244   19.6621 C   0  0  0  0  0  0  0  0  0  0  0  0
   14.2945   -3.5958   19.9741 C   0  0  0  0  0  0  0  0  0  0  0  0
   13.4044   -4.2654   20.8230 C   0  0  0  0  0  0  0  0  0  0  0  0
   13.8036   -5.5090   21.0959 N   0  0  0  0  0  0  0  0  0  0  0  0
   14.9553   -5.6234   20.4204 N   0  0  0  0  0  0  0  0  0  0  0  0
   12.5700   -2.9635   15.6697 S   0  0  0  0  0  0  0  0  0  0  0  0
   12.0248   -1.7915   14.3802 C   0  0  0  0  0  0  0  0  0  0  0  0
   12.7619   -0.4500   14.6327 C   0  0  0  0  0  0  0  0  0  0  0  0
   14.1411   -0.4013   13.9175 C   0  0  0  0  0  0  0  0  0  0  0  0
   14.0857   -0.0119   12.4484 C   0  0  0  0  0  0  0  0  0  0  0  0
   13.2688    1.2556   12.2726 C   0  0  0  0  0  0  0  0  0  0  0  0
   11.8921    1.1131   12.9006 C   0  0  0  0  0  0  0  0  0  0  0  0
   11.9419    0.7389   14.3010 N   0  0  0  0  0  0  0  0  0  0  0  0
   13.6355    0.7608   17.8357 H   0  0  0  0  0  0  0  0  0  0  0  0
   13.0487    1.7390   16.4965 H   0  0  0  0  0  0  0  0  0  0  0  0
   14.6215    0.9510   16.3940 H   0  0  0  0  0  0  0  0  0  0  0  0
   11.8743   -0.3517   16.5847 H   0  0  0  0  0  0  0  0  0  0  0  0
   13.1436   -1.8714   17.7104 H   0  0  0  0  0  0  0  0  0  0  0  0
   16.6080   -5.4628   18.2832 H   0  0  0  0  0  0  0  0  0  0  0  0
   17.3569   -4.3217   19.4239 H   0  0  0  0  0  0  0  0  0  0  0  0
   14.2228   -2.5681   19.6549 H   0  0  0  0  0  0  0  0  0  0  0  0
   12.4983   -3.8957   21.2836 H   0  0  0  0  0  0  0  0  0  0  0  0
   15.4725   -6.4936   20.5052 H   0  0  0  0  0  0  0  0  0  0  0  0
   12.2103   -2.1991   13.3833 H   0  0  0  0  0  0  0  0  0  0  0  0
   10.9438   -1.6767   14.5076 H   0  0  0  0  0  0  0  0  0  0  0  0
   14.7953    0.3321   14.3990 H   0  0  0  0  0  0  0  0  0  0  0  0
   14.6483   -1.3701   13.9814 H   0  0  0  0  0  0  0  0  0  0  0  0
   13.6731   -0.8362   11.8647 H   0  0  0  0  0  0  0  0  0  0  0  0
   15.1021    0.1504   12.0709 H   0  0  0  0  0  0  0  0  0  0  0  0
   13.7977    2.0981   12.7365 H   0  0  0  0  0  0  0  0  0  0  0  0
   13.1729    1.4938   11.2083 H   0  0  0  0  0  0  0  0  0  0  0  0
   11.3659    2.0706   12.8140 H   0  0  0  0  0  0  0  0  0  0  0  0
   11.2874    0.3875   12.3621 H   0  0  0  0  0  0  0  0  0  0  0  0
   10.9943    0.6213   14.6575 H   0  0  0  0  0  0  0  0  0  0  0  0
  1  2  1  0
  2  3  1  0
  3  4  1  0
  4  5  2  0
  4  6  1  0
  6  7  1  0
  7  8  2  0
  7  9  1  0
  9 10  1  0
 10 11  2  0
 11 12  1  0
 12 13  2  0
 13 14  1  0
  3 15  1  0
 15 16  1  0
 16 17  1  0
 17 18  1  0
 18 19  1  0
 19 20  1  0
 20 21  1  0
 21 22  1  0
 17  2  1  0
 14 10  1  0
 22 17  1  0
  1 23  1  0
  1 24  1  0
  1 25  1  0
  2 26  1  0
  3 27  1  0
  9 28  1  0
  9 29  1  0
 11 30  1  0
 12 31  1  0
 14 32  1  0
 16 33  1  0
 16 34  1  0
 18 35  1  0
 18 36  1  0
 19 37  1  0
 19 38  1  0
 20 39  1  0
 20 40  1  0
 21 41  1  0
 21 42  1  0
 22 43  1  0
M  END
>  <Energy>  (500) 
66.846373096354327

>  <compound_id>  (500) 
796

>  <target_id>  (500) 
1

>  <reference_id>  (500) 
60

>  <inspiration_ids>  (500) 
[66, 60]

>  <energy_score>  (500) 
-55.458630416880396

>  <distance_score>  (500) 
2.431428010321688

>  <path>  (500) 
/opt/xchem-fragalysis-2/maxwin/BulkDock/SCRATCH/505733/C796-P60/C796-P60.minimised.mol

>  <scratch_subdir>  (500) 
/opt/xchem-fragalysis-2/maxwin/BulkDock/SCRATCH/505733/C796-P60

>  <fragmenstein_runtime>  (500) 
2.708767890930176

>  <fragmenstein_outcome>  (500) 
too moved

>  <fragmenstein_mode>  (500) 
expansion

>  <fragmenstein_error>  (500) 


$$$$
C797-P66
     RDKit          3D

 35 36  0  0  0  0  0  0  0  0999 V2000
   12.6381    1.8299   14.2800 C   0  0  0  0  0  0  0  0  0  0  0  0
   12.7710    0.3777   14.5790 C   0  0  0  0  0  0  0  0  0  0  0  0
   11.8214   -0.6046   14.4827 C   0  0  0  0  0  0  0  0  0  0  0  0
   12.2870   -1.9043   14.8817 C   0  0  0  0  0  0  0  0  0  0  0  0
   11.3640   -3.0657   14.8356 C   0  0  0  0  0  0  0  0  0  0  0  0
   13.6406   -1.8625   15.1797 C   0  0  0  0  0  0  0  0  0  0  0  0
   14.6753   -2.8328   15.4619 C   0  0  0  0  0  0  0  0  0  0  0  0
   15.7914   -2.8095   14.9404 O   0  0  0  0  0  0  0  0  0  0  0  0
   14.4941   -3.8895   16.5177 C   0  0  0  0  0  0  0  0  0  0  0  0
   13.3960   -4.3589   16.7687 O   0  0  0  0  0  0  0  0  0  0  0  0
   15.7528   -4.3069   17.2035 C   0  0  0  0  0  0  0  0  0  0  0  0
   15.8305   -3.5374   18.7638 S   0  0  0  0  0  0  0  0  0  0  0  0
   17.0692   -3.9629   19.3877 O   0  0  0  0  0  0  0  0  0  0  0  0
   14.5568   -3.7679   19.4163 O   0  0  0  0  0  0  0  0  0  0  0  0
   15.9913   -1.7899   18.5232 C   0  0  0  0  0  0  0  0  0  0  0  0
   15.4011   -0.9430   19.4609 C   0  0  0  0  0  0  0  0  0  0  0  0
   15.5320    0.4393   19.3241 C   0  0  0  0  0  0  0  0  0  0  0  0
   16.2323    0.9741   18.2462 C   0  0  0  0  0  0  0  0  0  0  0  0
   16.8403    0.1253   17.3247 C   0  0  0  0  0  0  0  0  0  0  0  0
   16.7363   -1.2601   17.4693 C   0  0  0  0  0  0  0  0  0  0  0  0
   14.2437   -0.2592   15.0878 S   0  0  0  0  0  0  0  0  0  0  0  0
   12.9097    2.4345   15.1517 H   0  0  0  0  0  0  0  0  0  0  0  0
   11.6067    2.0803   14.0095 H   0  0  0  0  0  0  0  0  0  0  0  0
   13.2828    2.1143   13.4419 H   0  0  0  0  0  0  0  0  0  0  0  0
   10.8075   -0.4080   14.1537 H   0  0  0  0  0  0  0  0  0  0  0  0
   10.3264   -2.7255   14.9063 H   0  0  0  0  0  0  0  0  0  0  0  0
   11.4707   -3.5797   13.8786 H   0  0  0  0  0  0  0  0  0  0  0  0
   11.5092   -3.7590   15.6596 H   0  0  0  0  0  0  0  0  0  0  0  0
   16.6636   -4.1045   16.6401 H   0  0  0  0  0  0  0  0  0  0  0  0
   15.7389   -5.3810   17.3746 H   0  0  0  0  0  0  0  0  0  0  0  0
   14.8563   -1.3480   20.3142 H   0  0  0  0  0  0  0  0  0  0  0  0
   15.0857    1.1003   20.0641 H   0  0  0  0  0  0  0  0  0  0  0  0
   16.3299    2.0518   18.1405 H   0  0  0  0  0  0  0  0  0  0  0  0
   17.4182    0.5424   16.5023 H   0  0  0  0  0  0  0  0  0  0  0  0
   17.2768   -1.8912   16.7692 H   0  0  0  0  0  0  0  0  0  0  0  0
  1  2  1  0
  2  3  2  0
  3  4  1  0
  4  5  1  0
  4  6  2  0
  6  7  1  0
  7  8  2  0
  7  9  1  0
  9 10  2  0
  9 11  1  0
 11 12  1  0
 12 13  2  0
 12 14  2  0
 12 15  1  0
 15 16  2  0
 16 17  1  0
 17 18  2  0
 18 19  1  0
 19 20  2  0
  6 21  1  0
 21  2  1  0
 20 15  1  0
  1 22  1  0
  1 23  1  0
  1 24  1  0
  3 25  1  0
  5 26  1  0
  5 27  1  0
  5 28  1  0
 11 29  1  0
 11 30  1  0
 16 31  1  0
 17 32  1  0
 18 33  1  0
 19 34  1  0
 20 35  1  0
M  END
>  <Energy>  (501) 
56.300560299491757

>  <compound_id>  (501) 
797

>  <target_id>  (501) 
1

>  <reference_id>  (501) 
66

>  <inspiration_ids>  (501) 
[66, 61]

>  <energy_score>  (501) 
-41.433460562058414

>  <distance_score>  (501) 
1.9424225759458968

>  <path>  (501) 
/opt/xchem-fragalysis-2/maxwin/BulkDock/SCRATCH/505733/C797-P66/C797-P66.minimised.mol

>  <scratch_subdir>  (501) 
/opt/xchem-fragalysis-2/maxwin/BulkDock/SCRATCH/505733/C797-P66

>  <fragmenstein_runtime>  (501) 
1.787792444229126

>  <fragmenstein_outcome>  (501) 
too moved

>  <fragmenstein_mode>  (501) 
expansion

>  <fragmenstein_error>  (501) 


$$$$
C797-P61
     RDKit          3D

 35 36  0  0  0  0  0  0  0  0999 V2000
   11.3969    0.2936   14.1875 C   0  0  0  0  0  0  0  0  0  0  0  0
   12.1705   -0.8674   14.7064 C   0  0  0  0  0  0  0  0  0  0  0  0
   11.7017   -1.9992   15.3179 C   0  0  0  0  0  0  0  0  0  0  0  0
   12.7434   -2.8981   15.7287 C   0  0  0  0  0  0  0  0  0  0  0  0
   12.4202   -4.1421   16.4721 C   0  0  0  0  0  0  0  0  0  0  0  0
   13.9962   -2.4143   15.3764 C   0  0  0  0  0  0  0  0  0  0  0  0
   15.3727   -2.8357   15.6074 C   0  0  0  0  0  0  0  0  0  0  0  0
   16.3759   -2.1691   15.3368 O   0  0  0  0  0  0  0  0  0  0  0  0
   15.7186   -4.1150   16.3079 C   0  0  0  0  0  0  0  0  0  0  0  0
   15.5281   -5.1871   15.7516 O   0  0  0  0  0  0  0  0  0  0  0  0
   16.5218   -4.0122   17.5535 C   0  0  0  0  0  0  0  0  0  0  0  0
   15.6164   -3.2772   18.8571 S   0  0  0  0  0  0  0  0  0  0  0  0
   16.3505   -3.5334   20.0826 O   0  0  0  0  0  0  0  0  0  0  0  0
   14.2377   -3.6981   18.7435 O   0  0  0  0  0  0  0  0  0  0  0  0
   15.6986   -1.5307   18.5804 C   0  0  0  0  0  0  0  0  0  0  0  0
   16.8674   -0.8551   18.9209 C   0  0  0  0  0  0  0  0  0  0  0  0
   16.9528    0.5197   18.7085 C   0  0  0  0  0  0  0  0  0  0  0  0
   15.8795    1.2151   18.1551 C   0  0  0  0  0  0  0  0  0  0  0  0
   14.7031    0.5420   17.8436 C   0  0  0  0  0  0  0  0  0  0  0  0
   14.6043   -0.8282   18.0815 C   0  0  0  0  0  0  0  0  0  0  0  0
   13.8458   -0.9334   14.5118 S   0  0  0  0  0  0  0  0  0  0  0  0
   11.4879    0.3715   13.0996 H   0  0  0  0  0  0  0  0  0  0  0  0
   11.7534    1.2280   14.6338 H   0  0  0  0  0  0  0  0  0  0  0  0
   10.3334    0.1967   14.4305 H   0  0  0  0  0  0  0  0  0  0  0  0
   10.6455   -2.1843   15.4688 H   0  0  0  0  0  0  0  0  0  0  0  0
   11.4868   -4.5593   16.1009 H   0  0  0  0  0  0  0  0  0  0  0  0
   13.1815   -4.9117   16.3836 H   0  0  0  0  0  0  0  0  0  0  0  0
   12.2693   -3.9177   17.5243 H   0  0  0  0  0  0  0  0  0  0  0  0
   17.4597   -3.4777   17.3887 H   0  0  0  0  0  0  0  0  0  0  0  0
   16.7705   -5.0265   17.8856 H   0  0  0  0  0  0  0  0  0  0  0  0
   17.7153   -1.3787   19.3578 H   0  0  0  0  0  0  0  0  0  0  0  0
   17.8642    1.0533   18.9698 H   0  0  0  0  0  0  0  0  0  0  0  0
   15.9561    2.2862   17.9835 H   0  0  0  0  0  0  0  0  0  0  0  0
   13.8572    1.0897   17.4355 H   0  0  0  0  0  0  0  0  0  0  0  0
   13.6671   -1.3316   17.8765 H   0  0  0  0  0  0  0  0  0  0  0  0
  1  2  1  0
  2  3  2  0
  3  4  1  0
  4  5  1  0
  4  6  2  0
  6  7  1  0
  7  8  2  0
  7  9  1  0
  9 10  2  0
  9 11  1  0
 11 12  1  0
 12 13  2  0
 12 14  2  0
 12 15  1  0
 15 16  2  0
 16 17  1  0
 17 18  2  0
 18 19  1  0
 19 20  2  0
  6 21  1  0
 21  2  1  0
 20 15  1  0
  1 22  1  0
  1 23  1  0
  1 24  1  0
  3 25  1  0
  5 26  1  0
  5 27  1  0
  5 28  1  0
 11 29  1  0
 11 30  1  0
 16 31  1  0
 17 32  1  0
 18 33  1  0
 19 34  1  0
 20 35  1  0
M  END
>  <Energy>  (502) 
49.535476558510119

>  <compound_id>  (502) 
797

>  <target_id>  (502) 
1

>  <reference_id>  (502) 
61

>  <inspiration_ids>  (502) 
[66, 61]

>  <energy_score>  (502) 
-48.19854430303815

>  <distance_score>  (502) 
1.970252960499806

>  <path>  (502) 
/opt/xchem-fragalysis-2/maxwin/BulkDock/SCRATCH/505733/C797-P61/C797-P61.minimised.mol

>  <scratch_subdir>  (502) 
/opt/xchem-fragalysis-2/maxwin/BulkDock/SCRATCH/505733/C797-P61

>  <fragmenstein_runtime>  (502) 
2.6929287910461426

>  <fragmenstein_outcome>  (502) 
too moved

>  <fragmenstein_mode>  (502) 
expansion

>  <fragmenstein_error>  (502) 


$$$$
C798-P66
     RDKit          3D

 24 25  0  0  0  0  0  0  0  0999 V2000
   15.6169    1.7469   19.5066 N   0  0  0  0  0  0  0  0  0  0  0  0
   16.4159    0.3013   19.1954 S   0  0  0  0  0  0  0  0  0  0  0  0
   17.7234    0.6597   18.6982 O   0  0  0  0  0  0  0  0  0  0  0  0
   16.2232   -0.5089   20.3734 O   0  0  0  0  0  0  0  0  0  0  0  0
   15.4623   -0.3578   17.8752 C   0  0  0  0  0  0  0  0  0  0  0  0
   15.5070    0.3419   16.6868 C   0  0  0  0  0  0  0  0  0  0  0  0
   14.8243   -0.1750   15.5990 C   0  0  0  0  0  0  0  0  0  0  0  0
   15.3962    0.0938   14.3707 O   0  0  0  0  0  0  0  0  0  0  0  0
   16.1096   -1.1111   14.0232 C   0  0  0  0  0  0  0  0  0  0  0  0
   16.8381   -1.7189   15.0970 O   0  0  0  0  0  0  0  0  0  0  0  0
   13.8910   -1.2217   15.7289 C   0  0  0  0  0  0  0  0  0  0  0  0
   12.9820   -1.6239   14.7682 N   0  0  0  0  0  0  0  0  0  0  0  0
   12.3174   -2.6605   15.2116 C   0  0  0  0  0  0  0  0  0  0  0  0
   12.8878   -3.3279   16.6814 S   0  0  0  0  0  0  0  0  0  0  0  0
   13.9347   -1.9703   16.9055 C   0  0  0  0  0  0  0  0  0  0  0  0
   14.7575   -1.5712   17.9941 C   0  0  0  0  0  0  0  0  0  0  0  0
   16.2512    2.5313   19.3517 H   0  0  0  0  0  0  0  0  0  0  0  0
   15.2290    1.7192   20.4515 H   0  0  0  0  0  0  0  0  0  0  0  0
   16.1853    1.1802   16.5509 H   0  0  0  0  0  0  0  0  0  0  0  0
   16.8248   -0.8497   13.2355 H   0  0  0  0  0  0  0  0  0  0  0  0
   15.4244   -1.8494   13.5897 H   0  0  0  0  0  0  0  0  0  0  0  0
   17.6778   -1.2343   15.1510 H   0  0  0  0  0  0  0  0  0  0  0  0
   11.5087   -3.1113   14.6494 H   0  0  0  0  0  0  0  0  0  0  0  0
   14.7883   -2.1593   18.9080 H   0  0  0  0  0  0  0  0  0  0  0  0
  1  2  1  0
  2  3  2  0
  2  4  2  0
  2  5  1  0
  5  6  2  0
  6  7  1  0
  7  8  1  0
  8  9  1  0
  9 10  1  0
  7 11  2  0
 11 12  1  0
 12 13  2  0
 13 14  1  0
 14 15  1  0
 15 16  2  0
 16  5  1  0
 15 11  1  0
  1 17  1  0
  1 18  1  0
  6 19  1  0
  9 20  1  0
  9 21  1  0
 10 22  1  0
 13 23  1  0
 16 24  1  0
M  END
>  <Energy>  (503) 
-48.422662418325714

>  <compound_id>  (503) 
798

>  <target_id>  (503) 
1

>  <reference_id>  (503) 
66

>  <inspiration_ids>  (503) 
[66, 71]

>  <energy_score>  (503) 
-55.40940654385419

>  <distance_score>  (503) 
1.8664504975680674

>  <path>  (503) 
/opt/xchem-fragalysis-2/maxwin/BulkDock/SCRATCH/505733/C798-P66/C798-P66.minimised.mol

>  <scratch_subdir>  (503) 
/opt/xchem-fragalysis-2/maxwin/BulkDock/SCRATCH/505733/C798-P66

>  <fragmenstein_runtime>  (503) 
1.0059762001037598

>  <fragmenstein_outcome>  (503) 
too moved

>  <fragmenstein_mode>  (503) 
expansion

>  <fragmenstein_error>  (503) 


$$$$
C798-P71
     RDKit          3D

 24 25  0  0  0  0  0  0  0  0999 V2000
   15.3871    2.1203   19.3430 N   0  0  0  0  0  0  0  0  0  0  0  0
   16.1311    0.6204   19.2087 S   0  0  0  0  0  0  0  0  0  0  0  0
   17.4960    0.8879   18.8198 O   0  0  0  0  0  0  0  0  0  0  0  0
   15.7940   -0.1382   20.3886 O   0  0  0  0  0  0  0  0  0  0  0  0
   15.2751   -0.0788   17.8347 C   0  0  0  0  0  0  0  0  0  0  0  0
   15.6020    0.4035   16.5857 C   0  0  0  0  0  0  0  0  0  0  0  0
   14.9878   -0.1659   15.4807 C   0  0  0  0  0  0  0  0  0  0  0  0
   15.7248   -0.1271   14.3171 O   0  0  0  0  0  0  0  0  0  0  0  0
   16.3218   -1.4341   14.1765 C   0  0  0  0  0  0  0  0  0  0  0  0
   16.7261   -2.0895   15.3843 O   0  0  0  0  0  0  0  0  0  0  0  0
   13.8948   -1.0489   15.5942 C   0  0  0  0  0  0  0  0  0  0  0  0
   13.1222   -1.5289   14.5523 N   0  0  0  0  0  0  0  0  0  0  0  0
   12.2767   -2.4179   15.0082 C   0  0  0  0  0  0  0  0  0  0  0  0
   12.5082   -2.8683   16.6369 S   0  0  0  0  0  0  0  0  0  0  0  0
   13.6578   -1.5999   16.8521 C   0  0  0  0  0  0  0  0  0  0  0  0
   14.3731   -1.1457   17.9930 C   0  0  0  0  0  0  0  0  0  0  0  0
   16.0627    2.8555   19.1304 H   0  0  0  0  0  0  0  0  0  0  0  0
   14.5258    2.2150   18.8062 H   0  0  0  0  0  0  0  0  0  0  0  0
   16.4310    1.0931   16.4437 H   0  0  0  0  0  0  0  0  0  0  0  0
   17.2262   -1.2964   13.5754 H   0  0  0  0  0  0  0  0  0  0  0  0
   15.6561   -2.0883   13.5996 H   0  0  0  0  0  0  0  0  0  0  0  0
   16.0824   -2.8048   15.5244 H   0  0  0  0  0  0  0  0  0  0  0  0
   11.5294   -2.8850   14.3774 H   0  0  0  0  0  0  0  0  0  0  0  0
   14.2167   -1.6045   18.9666 H   0  0  0  0  0  0  0  0  0  0  0  0
  1  2  1  0
  2  3  2  0
  2  4  2  0
  2  5  1  0
  5  6  2  0
  6  7  1  0
  7  8  1  0
  8  9  1  0
  9 10  1  0
  7 11  2  0
 11 12  1  0
 12 13  2  0
 13 14  1  0
 14 15  1  0
 15 16  2  0
 16  5  1  0
 15 11  1  0
  1 17  1  0
  1 18  1  0
  6 19  1  0
  9 20  1  0
  9 21  1  0
 10 22  1  0
 13 23  1  0
 16 24  1  0
M  END
>  <Energy>  (504) 
-45.807091338357992

>  <compound_id>  (504) 
798

>  <target_id>  (504) 
1

>  <reference_id>  (504) 
71

>  <inspiration_ids>  (504) 
[66, 71]

>  <energy_score>  (504) 
-52.79383546388647

>  <distance_score>  (504) 
1.9345414405557966

>  <path>  (504) 
/opt/xchem-fragalysis-2/maxwin/BulkDock/SCRATCH/505733/C798-P71/C798-P71.minimised.mol

>  <scratch_subdir>  (504) 
/opt/xchem-fragalysis-2/maxwin/BulkDock/SCRATCH/505733/C798-P71

>  <fragmenstein_runtime>  (504) 
0.9707846641540527

>  <fragmenstein_outcome>  (504) 
too moved

>  <fragmenstein_mode>  (504) 
expansion

>  <fragmenstein_error>  (504) 


$$$$
C799-P66
     RDKit          3D

 47 50  0  0  0  0  0  0  0  0999 V2000
   14.6535    2.0984    9.7783 N   0  0  0  0  0  0  0  0  0  0  0  0
   15.4407    1.6489   11.1816 S   0  0  0  0  0  0  0  0  0  0  0  0
   16.6981    1.1340   10.7015 O   0  0  0  0  0  0  0  0  0  0  0  0
   15.2266    2.9291   11.9839 N   0  0  0  0  0  0  0  0  0  0  0  0
   16.0402    3.1991   13.1828 C   0  0  0  0  0  0  0  0  0  0  0  0
   15.4466    2.5914   14.4580 C   0  0  0  0  0  0  0  0  0  0  0  0
   16.0501    1.2303   14.7897 C   0  0  0  0  0  0  0  0  0  0  0  0
   15.2303    0.4508   15.7202 N   0  0  0  0  0  0  0  0  0  0  0  0
   15.7492   -0.9243   15.7959 C   0  0  0  0  0  0  0  0  0  0  0  0
   15.3152   -1.6463   17.0399 C   0  0  0  0  0  0  0  0  0  0  0  0
   15.7359   -1.0230   18.3012 C   0  0  0  0  0  0  0  0  0  0  0  0
   15.5227   -1.6636   19.4582 C   0  0  0  0  0  0  0  0  0  0  0  0
   14.8949   -2.8996   19.4332 N   0  0  0  0  0  0  0  0  0  0  0  0
   14.5505   -3.7007   20.4842 C   0  0  0  0  0  0  0  0  0  0  0  0
   13.9062   -4.7717   19.9209 C   0  0  0  0  0  0  0  0  0  0  0  0
   13.9003   -4.6950   18.5471 N   0  0  0  0  0  0  0  0  0  0  0  0
   14.4551   -3.5313   18.2679 C   0  0  0  0  0  0  0  0  0  0  0  0
   14.6904   -2.8482   17.0377 C   0  0  0  0  0  0  0  0  0  0  0  0
   14.5157    0.3461   11.9302 C   0  0  0  0  0  0  0  0  0  0  0  0
   14.9561   -0.9676   11.8601 C   0  0  0  0  0  0  0  0  0  0  0  0
   14.2846   -1.9682   12.5643 C   0  0  0  0  0  0  0  0  0  0  0  0
   13.1812   -1.6484   13.3711 C   0  0  0  0  0  0  0  0  0  0  0  0
   12.4386   -2.5140   14.1410 N   0  0  0  0  0  0  0  0  0  0  0  0
   11.4456   -1.8566   14.6871 C   0  0  0  0  0  0  0  0  0  0  0  0
   11.3901   -0.1788   14.3542 S   0  0  0  0  0  0  0  0  0  0  0  0
   12.7665   -0.3240   13.4020 C   0  0  0  0  0  0  0  0  0  0  0  0
   13.4004    0.6850   12.6915 C   0  0  0  0  0  0  0  0  0  0  0  0
   14.3816    3.0539    9.9907 H   0  0  0  0  0  0  0  0  0  0  0  0
   15.3993    2.1859    9.0972 H   0  0  0  0  0  0  0  0  0  0  0  0
   17.0858    2.9058   13.0343 H   0  0  0  0  0  0  0  0  0  0  0  0
   16.0441    4.2893   13.3084 H   0  0  0  0  0  0  0  0  0  0  0  0
   15.6740    3.2614   15.2985 H   0  0  0  0  0  0  0  0  0  0  0  0
   14.3541    2.5566   14.4036 H   0  0  0  0  0  0  0  0  0  0  0  0
   17.0369    1.3966   15.2412 H   0  0  0  0  0  0  0  0  0  0  0  0
   16.2328    0.6573   13.8792 H   0  0  0  0  0  0  0  0  0  0  0  0
   14.2647    0.4074   15.4034 H   0  0  0  0  0  0  0  0  0  0  0  0
   15.4754   -1.4890   14.9048 H   0  0  0  0  0  0  0  0  0  0  0  0
   16.8485   -0.9054   15.8095 H   0  0  0  0  0  0  0  0  0  0  0  0
   16.2171   -0.0497   18.2768 H   0  0  0  0  0  0  0  0  0  0  0  0
   15.8048   -1.2624   20.4232 H   0  0  0  0  0  0  0  0  0  0  0  0
   14.7372   -3.4249   21.5118 H   0  0  0  0  0  0  0  0  0  0  0  0
   13.4403   -5.5865   20.4543 H   0  0  0  0  0  0  0  0  0  0  0  0
   14.3986   -3.3453   16.1195 H   0  0  0  0  0  0  0  0  0  0  0  0
   15.8286   -1.2314   11.2646 H   0  0  0  0  0  0  0  0  0  0  0  0
   14.6473   -2.9808   12.4583 H   0  0  0  0  0  0  0  0  0  0  0  0
   10.7011   -2.3439   15.2992 H   0  0  0  0  0  0  0  0  0  0  0  0
   13.0318    1.7069   12.7226 H   0  0  0  0  0  0  0  0  0  0  0  0
  1  2  1  0
  2  3  2  0
  2  4  2  0
  4  5  1  0
  5  6  1  0
  6  7  1  0
  7  8  1  0
  8  9  1  0
  9 10  1  0
 10 11  1  0
 11 12  2  0
 12 13  1  0
 13 14  1  0
 14 15  2  0
 15 16  1  0
 16 17  2  0
 17 18  1  0
  2 19  1  0
 19 20  2  0
 20 21  1  0
 21 22  2  0
 22 23  1  0
 23 24  2  0
 24 25  1  0
 25 26  1  0
 26 27  2  0
 18 10  2  0
 27 19  1  0
 17 13  1  0
 26 22  1  0
  1 28  1  0
  1 29  1  0
  5 30  1  0
  5 31  1  0
  6 32  1  0
  6 33  1  0
  7 34  1  0
  7 35  1  0
  8 36  1  0
  9 37  1  0
  9 38  1  0
 11 39  1  0
 12 40  1  0
 14 41  1  0
 15 42  1  0
 18 43  1  0
 20 44  1  0
 21 45  1  0
 24 46  1  0
 27 47  1  0
M  END
>  <Energy>  (505) 
-77.069322812872016

>  <compound_id>  (505) 
799

>  <target_id>  (505) 
1

>  <reference_id>  (505) 
66

>  <inspiration_ids>  (505) 
[66, 76]

>  <energy_score>  (505) 
-107.0038020064255

>  <distance_score>  (505) 
2.8559558667679577

>  <path>  (505) 
/opt/xchem-fragalysis-2/maxwin/BulkDock/SCRATCH/505733/C799-P66/C799-P66.minimised.mol

>  <scratch_subdir>  (505) 
/opt/xchem-fragalysis-2/maxwin/BulkDock/SCRATCH/505733/C799-P66

>  <fragmenstein_runtime>  (505) 
10.666590452194214

>  <fragmenstein_outcome>  (505) 
too moved

>  <fragmenstein_mode>  (505) 
expansion

>  <fragmenstein_error>  (505) 


$$$$
C799-P76
     RDKit          3D

 47 50  0  0  0  0  0  0  0  0999 V2000
   17.2776   -0.3455   10.5958 N   0  0  0  0  0  0  0  0  0  0  0  0
   16.8647   -0.1677   12.2076 S   0  0  0  0  0  0  0  0  0  0  0  0
   17.6201   -1.2166   12.8451 O   0  0  0  0  0  0  0  0  0  0  0  0
   17.1060    1.3381   12.3423 N   0  0  0  0  0  0  0  0  0  0  0  0
   16.5437    2.1688   13.4365 C   0  0  0  0  0  0  0  0  0  0  0  0
   16.8277    1.6334   14.8341 C   0  0  0  0  0  0  0  0  0  0  0  0
   15.5950    1.5004   15.7520 C   0  0  0  0  0  0  0  0  0  0  0  0
   14.8865    0.2192   15.8091 N   0  0  0  0  0  0  0  0  0  0  0  0
   15.7480   -0.9401   16.0435 C   0  0  0  0  0  0  0  0  0  0  0  0
   15.1449   -2.0135   16.9255 C   0  0  0  0  0  0  0  0  0  0  0  0
   13.8751   -2.6613   16.6026 C   0  0  0  0  0  0  0  0  0  0  0  0
   13.3585   -3.5938   17.4224 C   0  0  0  0  0  0  0  0  0  0  0  0
   14.0347   -3.9073   18.5941 N   0  0  0  0  0  0  0  0  0  0  0  0
   13.6668   -4.6854   19.6608 C   0  0  0  0  0  0  0  0  0  0  0  0
   14.7339   -4.6633   20.5262 C   0  0  0  0  0  0  0  0  0  0  0  0
   15.7319   -3.8615   20.0445 N   0  0  0  0  0  0  0  0  0  0  0  0
   15.2681   -3.3772   18.9113 C   0  0  0  0  0  0  0  0  0  0  0  0
   15.8110   -2.4067   18.0333 C   0  0  0  0  0  0  0  0  0  0  0  0
   15.1435   -0.5145   12.3788 C   0  0  0  0  0  0  0  0  0  0  0  0
   14.6864   -1.7263   12.8888 C   0  0  0  0  0  0  0  0  0  0  0  0
   13.3603   -1.8328   13.3177 C   0  0  0  0  0  0  0  0  0  0  0  0
   12.5378   -0.7006   13.2934 C   0  0  0  0  0  0  0  0  0  0  0  0
   11.2508   -0.6411   13.7124 N   0  0  0  0  0  0  0  0  0  0  0  0
   10.7080    0.4840   13.2930 C   0  0  0  0  0  0  0  0  0  0  0  0
   11.7474    1.6293   12.5875 S   0  0  0  0  0  0  0  0  0  0  0  0
   12.9948    0.4591   12.6824 C   0  0  0  0  0  0  0  0  0  0  0  0
   14.2734    0.5464   12.1692 C   0  0  0  0  0  0  0  0  0  0  0  0
   17.6182    0.5866   10.3749 H   0  0  0  0  0  0  0  0  0  0  0  0
   18.1137   -0.9194   10.6368 H   0  0  0  0  0  0  0  0  0  0  0  0
   17.0308    3.1490   13.3447 H   0  0  0  0  0  0  0  0  0  0  0  0
   15.4855    2.3857   13.2978 H   0  0  0  0  0  0  0  0  0  0  0  0
   17.4197    0.7136   14.8236 H   0  0  0  0  0  0  0  0  0  0  0  0
   17.4878    2.3666   15.3204 H   0  0  0  0  0  0  0  0  0  0  0  0
   14.8683    2.2883   15.5214 H   0  0  0  0  0  0  0  0  0  0  0  0
   15.9267    1.7148   16.7767 H   0  0  0  0  0  0  0  0  0  0  0  0
   14.3193    0.0747   14.9826 H   0  0  0  0  0  0  0  0  0  0  0  0
   16.0611   -1.3896   15.1002 H   0  0  0  0  0  0  0  0  0  0  0  0
   16.6783   -0.6026   16.5206 H   0  0  0  0  0  0  0  0  0  0  0  0
   13.3148   -2.3291   15.7477 H   0  0  0  0  0  0  0  0  0  0  0  0
   12.4074   -4.0789   17.2479 H   0  0  0  0  0  0  0  0  0  0  0  0
   12.6969   -5.1490   19.7285 H   0  0  0  0  0  0  0  0  0  0  0  0
   14.8272   -5.1633   21.4814 H   0  0  0  0  0  0  0  0  0  0  0  0
   16.7646   -1.9728   18.3149 H   0  0  0  0  0  0  0  0  0  0  0  0
   15.3660   -2.5709   12.9907 H   0  0  0  0  0  0  0  0  0  0  0  0
   12.9260   -2.7529   13.6766 H   0  0  0  0  0  0  0  0  0  0  0  0
    9.6663    0.6902   13.4758 H   0  0  0  0  0  0  0  0  0  0  0  0
   14.5911    1.4410   11.6404 H   0  0  0  0  0  0  0  0  0  0  0  0
  1  2  1  0
  2  3  2  0
  2  4  2  0
  4  5  1  0
  5  6  1  0
  6  7  1  0
  7  8  1  0
  8  9  1  0
  9 10  1  0
 10 11  1  0
 11 12  2  0
 12 13  1  0
 13 14  1  0
 14 15  2  0
 15 16  1  0
 16 17  2  0
 17 18  1  0
  2 19  1  0
 19 20  2  0
 20 21  1  0
 21 22  2  0
 22 23  1  0
 23 24  2  0
 24 25  1  0
 25 26  1  0
 26 27  2  0
 18 10  2  0
 27 19  1  0
 17 13  1  0
 26 22  1  0
  1 28  1  0
  1 29  1  0
  5 30  1  0
  5 31  1  0
  6 32  1  0
  6 33  1  0
  7 34  1  0
  7 35  1  0
  8 36  1  0
  9 37  1  0
  9 38  1  0
 11 39  1  0
 12 40  1  0
 14 41  1  0
 15 42  1  0
 18 43  1  0
 20 44  1  0
 21 45  1  0
 24 46  1  0
 27 47  1  0
M  END
>  <Energy>  (506) 
-53.478084996924643

>  <compound_id>  (506) 
799

>  <target_id>  (506) 
1

>  <reference_id>  (506) 
76

>  <inspiration_ids>  (506) 
[66, 76]

>  <energy_score>  (506) 
-83.41256419047718

>  <distance_score>  (506) 
2.7859030472850836

>  <path>  (506) 
/opt/xchem-fragalysis-2/maxwin/BulkDock/SCRATCH/505733/C799-P76/C799-P76.minimised.mol

>  <scratch_subdir>  (506) 
/opt/xchem-fragalysis-2/maxwin/BulkDock/SCRATCH/505733/C799-P76

>  <fragmenstein_runtime>  (506) 
9.620580196380615

>  <fragmenstein_outcome>  (506) 
too moved

>  <fragmenstein_mode>  (506) 
expansion

>  <fragmenstein_error>  (506) 


$$$$
C800-P66
     RDKit          3D

 55 58  0  0  0  0  0  0  0  0999 V2000
   15.3645   -1.3283   20.9822 C   0  0  0  0  0  0  0  0  0  0  0  0
   15.8831   -2.6948   21.1941 N   0  0  0  0  0  0  0  0  0  0  0  0
   14.7858   -3.7229   21.1767 C   0  0  0  0  0  0  0  0  0  0  0  0
   15.2324   -5.0423   20.5163 C   0  0  0  0  0  0  0  0  0  0  0  0
   15.1138   -5.0123   19.0337 N   0  0  0  0  0  0  0  0  0  0  0  0
   16.0940   -4.1720   18.2200 S   0  0  0  0  0  0  0  0  0  0  0  0
   16.6897   -5.3862   17.2308 N   0  0  0  0  0  0  0  0  0  0  0  0
   17.3172   -3.5549   18.6696 O   0  0  0  0  0  0  0  0  0  0  0  0
   15.2021   -3.0425   17.1919 C   0  0  0  0  0  0  0  0  0  0  0  0
   15.7867   -1.8243   16.8501 C   0  0  0  0  0  0  0  0  0  0  0  0
   15.1135   -0.9392   16.0040 C   0  0  0  0  0  0  0  0  0  0  0  0
   13.8445   -1.2816   15.4993 C   0  0  0  0  0  0  0  0  0  0  0  0
   13.0755   -0.4926   14.6646 N   0  0  0  0  0  0  0  0  0  0  0  0
   11.9556   -1.1186   14.3861 C   0  0  0  0  0  0  0  0  0  0  0  0
   11.7301   -2.6454   15.1229 S   0  0  0  0  0  0  0  0  0  0  0  0
   13.2736   -2.5012   15.8740 C   0  0  0  0  0  0  0  0  0  0  0  0
   13.9310   -3.4022   16.7256 C   0  0  0  0  0  0  0  0  0  0  0  0
   17.0165   -2.8759   22.4567 S   0  0  0  0  0  0  0  0  0  0  0  0
   16.8767   -1.7520   23.3581 O   0  0  0  0  0  0  0  0  0  0  0  0
   16.9081   -4.2363   22.9463 O   0  0  0  0  0  0  0  0  0  0  0  0
   18.5844   -2.7553   21.6172 C   0  0  0  0  0  0  0  0  0  0  0  0
   19.7655   -2.9638   22.5704 C   0  0  0  0  0  0  0  0  0  0  0  0
   20.6582   -1.7457   22.3706 C   0  0  0  0  0  0  0  0  0  0  0  0
   20.2977   -1.2796   21.0282 N   0  0  0  0  0  0  0  0  0  0  0  0
   20.7447    0.0816   20.7353 C   0  0  0  0  0  0  0  0  0  0  0  0
   22.2119    0.0950   20.5135 C   0  0  0  0  0  0  0  0  0  0  0  0
   23.1857    0.5933   21.3505 C   0  0  0  0  0  0  0  0  0  0  0  0
   24.4100    0.4393   20.7892 O   0  0  0  0  0  0  0  0  0  0  0  0
   24.2719   -0.1672   19.5515 N   0  0  0  0  0  0  0  0  0  0  0  0
   22.9604   -0.3679   19.4084 C   0  0  0  0  0  0  0  0  0  0  0  0
   22.2234   -1.1692   17.8732 Br  0  0  0  0  0  0  0  0  0  0  0  0
   18.8321   -1.3957   20.9953 C   0  0  0  0  0  0  0  0  0  0  0  0
   16.1729   -0.5972   20.9277 H   0  0  0  0  0  0  0  0  0  0  0  0
   14.6733   -1.0446   21.7807 H   0  0  0  0  0  0  0  0  0  0  0  0
   14.8362   -1.2825   20.0251 H   0  0  0  0  0  0  0  0  0  0  0  0
   14.4497   -3.9047   22.2047 H   0  0  0  0  0  0  0  0  0  0  0  0
   13.9181   -3.3320   20.6353 H   0  0  0  0  0  0  0  0  0  0  0  0
   14.5629   -5.8364   20.8669 H   0  0  0  0  0  0  0  0  0  0  0  0
   16.2486   -5.3362   20.7961 H   0  0  0  0  0  0  0  0  0  0  0  0
   17.6958   -5.3115   17.3315 H   0  0  0  0  0  0  0  0  0  0  0  0
   16.4295   -6.2241   17.7430 H   0  0  0  0  0  0  0  0  0  0  0  0
   16.7773   -1.5600   17.2148 H   0  0  0  0  0  0  0  0  0  0  0  0
   15.5653    0.0058   15.7175 H   0  0  0  0  0  0  0  0  0  0  0  0
   11.2032   -0.6817   13.7447 H   0  0  0  0  0  0  0  0  0  0  0  0
   13.4743   -4.3517   16.9915 H   0  0  0  0  0  0  0  0  0  0  0  0
   18.6048   -3.5527   20.8669 H   0  0  0  0  0  0  0  0  0  0  0  0
   20.3045   -3.8757   22.2850 H   0  0  0  0  0  0  0  0  0  0  0  0
   19.4745   -3.0678   23.6206 H   0  0  0  0  0  0  0  0  0  0  0  0
   21.7156   -2.0160   22.4511 H   0  0  0  0  0  0  0  0  0  0  0  0
   20.4300   -0.9925   23.1356 H   0  0  0  0  0  0  0  0  0  0  0  0
   20.2565    0.4464   19.8223 H   0  0  0  0  0  0  0  0  0  0  0  0
   20.4646    0.7786   21.5357 H   0  0  0  0  0  0  0  0  0  0  0  0
   23.1771    1.0630   22.3230 H   0  0  0  0  0  0  0  0  0  0  0  0
   18.3718   -0.5866   21.5747 H   0  0  0  0  0  0  0  0  0  0  0  0
   18.4510   -1.3452   19.9705 H   0  0  0  0  0  0  0  0  0  0  0  0
  1  2  1  0
  2  3  1  0
  3  4  1  0
  4  5  1  0
  5  6  2  0
  6  7  1  0
  6  8  2  0
  6  9  1  0
  9 10  2  0
 10 11  1  0
 11 12  2  0
 12 13  1  0
 13 14  2  0
 14 15  1  0
 15 16  1  0
 16 17  2  0
  2 18  1  0
 18 19  2  0
 18 20  2  0
 18 21  1  0
 21 22  1  0
 22 23  1  0
 23 24  1  0
 24 25  1  0
 25 26  1  0
 26 27  2  0
 27 28  1  0
 28 29  1  0
 29 30  2  0
 30 31  1  0
 24 32  1  0
 17  9  1  0
 32 21  1  0
 16 12  1  0
 30 26  1  0
  1 33  1  0
  1 34  1  0
  1 35  1  0
  3 36  1  0
  3 37  1  0
  4 38  1  0
  4 39  1  0
  7 40  1  0
  7 41  1  0
 10 42  1  0
 11 43  1  0
 14 44  1  0
 17 45  1  0
 21 46  1  0
 22 47  1  0
 22 48  1  0
 23 49  1  0
 23 50  1  0
 25 51  1  0
 25 52  1  0
 27 53  1  0
 32 54  1  0
 32 55  1  0
M  END
>  <Energy>  (507) 
-146.43698319020416

>  <compound_id>  (507) 
800

>  <target_id>  (507) 
1

>  <reference_id>  (507) 
66

>  <inspiration_ids>  (507) 
[66, 80]

>  <energy_score>  (507) 
-166.2936268163126

>  <distance_score>  (507) 
2.8547084267633656

>  <path>  (507) 
/opt/xchem-fragalysis-2/maxwin/BulkDock/SCRATCH/505733/C800-P66/C800-P66.minimised.mol

>  <scratch_subdir>  (507) 
/opt/xchem-fragalysis-2/maxwin/BulkDock/SCRATCH/505733/C800-P66

>  <fragmenstein_runtime>  (507) 
3.582357168197632

>  <fragmenstein_outcome>  (507) 
too moved

>  <fragmenstein_mode>  (507) 
expansion

>  <fragmenstein_error>  (507) 


$$$$
C800-P80
     RDKit          3D

 55 58  0  0  0  0  0  0  0  0999 V2000
   18.3597   -6.7557   17.4739 C   0  0  0  0  0  0  0  0  0  0  0  0
   18.7974   -5.8676   16.3939 N   0  0  0  0  0  0  0  0  0  0  0  0
   17.7202   -5.2353   15.5886 C   0  0  0  0  0  0  0  0  0  0  0  0
   17.5237   -3.7250   15.8085 C   0  0  0  0  0  0  0  0  0  0  0  0
   17.3143   -3.3595   17.2331 N   0  0  0  0  0  0  0  0  0  0  0  0
   16.0007   -3.7229   17.9138 S   0  0  0  0  0  0  0  0  0  0  0  0
   16.3875   -3.3390   19.4930 N   0  0  0  0  0  0  0  0  0  0  0  0
   15.4040   -5.0332   18.0188 O   0  0  0  0  0  0  0  0  0  0  0  0
   14.7676   -2.6024   17.3247 C   0  0  0  0  0  0  0  0  0  0  0  0
   14.9221   -1.2297   17.5105 C   0  0  0  0  0  0  0  0  0  0  0  0
   13.9671   -0.3486   16.9932 C   0  0  0  0  0  0  0  0  0  0  0  0
   12.8673   -0.8535   16.2704 C   0  0  0  0  0  0  0  0  0  0  0  0
   11.8517   -0.0997   15.7107 N   0  0  0  0  0  0  0  0  0  0  0  0
   11.0261   -0.8938   15.0692 C   0  0  0  0  0  0  0  0  0  0  0  0
   11.3699   -2.5671   15.1440 S   0  0  0  0  0  0  0  0  0  0  0  0
   12.7539   -2.2337   16.0958 C   0  0  0  0  0  0  0  0  0  0  0  0
   13.6770   -3.1360   16.6335 C   0  0  0  0  0  0  0  0  0  0  0  0
   20.3759   -5.3358   16.2850 S   0  0  0  0  0  0  0  0  0  0  0  0
   21.2371   -6.4427   16.6500 O   0  0  0  0  0  0  0  0  0  0  0  0
   20.5142   -4.7033   14.9870 O   0  0  0  0  0  0  0  0  0  0  0  0
   20.5654   -4.0658   17.5272 C   0  0  0  0  0  0  0  0  0  0  0  0
   22.0002   -3.5273   17.5845 C   0  0  0  0  0  0  0  0  0  0  0  0
   22.4073   -3.6336   19.0495 C   0  0  0  0  0  0  0  0  0  0  0  0
   21.1232   -3.6669   19.7558 N   0  0  0  0  0  0  0  0  0  0  0  0
   21.2193   -4.1314   21.1386 C   0  0  0  0  0  0  0  0  0  0  0  0
   21.7823   -3.0525   21.9874 C   0  0  0  0  0  0  0  0  0  0  0  0
   23.0329   -2.9960   22.5612 C   0  0  0  0  0  0  0  0  0  0  0  0
   23.1672   -1.8546   23.2804 O   0  0  0  0  0  0  0  0  0  0  0  0
   21.9930   -1.1235   23.2010 N   0  0  0  0  0  0  0  0  0  0  0  0
   21.1851   -1.8497   22.4260 C   0  0  0  0  0  0  0  0  0  0  0  0
   19.4357   -1.3016   21.9961 Br  0  0  0  0  0  0  0  0  0  0  0  0
   20.2911   -4.5572   18.9340 C   0  0  0  0  0  0  0  0  0  0  0  0
   19.1958   -7.3142   17.9027 H   0  0  0  0  0  0  0  0  0  0  0  0
   17.6550   -7.4973   17.0849 H   0  0  0  0  0  0  0  0  0  0  0  0
   17.8751   -6.1925   18.2730 H   0  0  0  0  0  0  0  0  0  0  0  0
   17.9412   -5.4179   14.5302 H   0  0  0  0  0  0  0  0  0  0  0  0
   16.7744   -5.7525   15.7784 H   0  0  0  0  0  0  0  0  0  0  0  0
   16.6820   -3.3739   15.2000 H   0  0  0  0  0  0  0  0  0  0  0  0
   18.4020   -3.1784   15.4507 H   0  0  0  0  0  0  0  0  0  0  0  0
   17.2300   -2.7807   19.4084 H   0  0  0  0  0  0  0  0  0  0  0  0
   15.6650   -2.7453   19.8761 H   0  0  0  0  0  0  0  0  0  0  0  0
   15.7905   -0.8293   18.0295 H   0  0  0  0  0  0  0  0  0  0  0  0
   14.0716    0.7247   17.1272 H   0  0  0  0  0  0  0  0  0  0  0  0
   10.1670   -0.5161   14.5298 H   0  0  0  0  0  0  0  0  0  0  0  0
   13.5550   -4.2062   16.4909 H   0  0  0  0  0  0  0  0  0  0  0  0
   19.9110   -3.2340   17.2583 H   0  0  0  0  0  0  0  0  0  0  0  0
   22.0061   -2.4774   17.2667 H   0  0  0  0  0  0  0  0  0  0  0  0
   22.7026   -4.0685   16.9425 H   0  0  0  0  0  0  0  0  0  0  0  0
   23.0279   -2.7832   19.3488 H   0  0  0  0  0  0  0  0  0  0  0  0
   22.9800   -4.5567   19.2058 H   0  0  0  0  0  0  0  0  0  0  0  0
   20.2207   -4.3798   21.5212 H   0  0  0  0  0  0  0  0  0  0  0  0
   21.8177   -5.0481   21.2174 H   0  0  0  0  0  0  0  0  0  0  0  0
   23.8951   -3.6464   22.5576 H   0  0  0  0  0  0  0  0  0  0  0  0
   20.5862   -5.6043   19.0727 H   0  0  0  0  0  0  0  0  0  0  0  0
   19.2352   -4.4584   19.1987 H   0  0  0  0  0  0  0  0  0  0  0  0
  1  2  1  0
  2  3  1  0
  3  4  1  0
  4  5  1  0
  5  6  2  0
  6  7  1  0
  6  8  2  0
  6  9  1  0
  9 10  2  0
 10 11  1  0
 11 12  2  0
 12 13  1  0
 13 14  2  0
 14 15  1  0
 15 16  1  0
 16 17  2  0
  2 18  1  0
 18 19  2  0
 18 20  2  0
 18 21  1  0
 21 22  1  0
 22 23  1  0
 23 24  1  0
 24 25  1  0
 25 26  1  0
 26 27  2  0
 27 28  1  0
 28 29  1  0
 29 30  2  0
 30 31  1  0
 24 32  1  0
 17  9  1  0
 32 21  1  0
 16 12  1  0
 30 26  1  0
  1 33  1  0
  1 34  1  0
  1 35  1  0
  3 36  1  0
  3 37  1  0
  4 38  1  0
  4 39  1  0
  7 40  1  0
  7 41  1  0
 10 42  1  0
 11 43  1  0
 14 44  1  0
 17 45  1  0
 21 46  1  0
 22 47  1  0
 22 48  1  0
 23 49  1  0
 23 50  1  0
 25 51  1  0
 25 52  1  0
 27 53  1  0
 32 54  1  0
 32 55  1  0
M  END
>  <Energy>  (508) 
-145.03895388703191

>  <compound_id>  (508) 
800

>  <target_id>  (508) 
1

>  <reference_id>  (508) 
80

>  <inspiration_ids>  (508) 
[66, 80]

>  <energy_score>  (508) 
-164.89559751314002

>  <distance_score>  (508) 
2.7160949443345266

>  <path>  (508) 
/opt/xchem-fragalysis-2/maxwin/BulkDock/SCRATCH/505733/C800-P80/C800-P80.minimised.mol

>  <scratch_subdir>  (508) 
/opt/xchem-fragalysis-2/maxwin/BulkDock/SCRATCH/505733/C800-P80

>  <fragmenstein_runtime>  (508) 
5.924096584320068

>  <fragmenstein_outcome>  (508) 
too moved

>  <fragmenstein_mode>  (508) 
expansion

>  <fragmenstein_error>  (508) 


$$$$
C801-P66
     RDKit          3D

 19 20  0  0  0  0  0  0  0  0999 V2000
   11.4327   -0.1291   14.3167 N   0  0  0  0  0  0  0  0  0  0  0  0
   11.7788   -1.7753   14.3799 S   0  0  0  0  0  0  0  0  0  0  0  0
   10.7022   -2.3730   15.1354 O   0  0  0  0  0  0  0  0  0  0  0  0
   12.2425   -2.2341   13.1036 O   0  0  0  0  0  0  0  0  0  0  0  0
   13.1983   -1.8379   15.4031 C   0  0  0  0  0  0  0  0  0  0  0  0
   14.2582   -0.9728   15.1621 C   0  0  0  0  0  0  0  0  0  0  0  0
   15.3800   -1.0094   15.9919 C   0  0  0  0  0  0  0  0  0  0  0  0
   16.9378    0.3285   15.6429 I   0  0  0  0  0  0  0  0  0  0  0  0
   15.4463   -1.9508   17.0424 C   0  0  0  0  0  0  0  0  0  0  0  0
   16.4772   -2.1269   17.9524 N   0  0  0  0  0  0  0  0  0  0  0  0
   16.2058   -3.1329   18.7519 C   0  0  0  0  0  0  0  0  0  0  0  0
   14.7175   -3.9305   18.4815 S   0  0  0  0  0  0  0  0  0  0  0  0
   14.3759   -2.8331   17.2071 C   0  0  0  0  0  0  0  0  0  0  0  0
   13.2313   -2.7900   16.4133 C   0  0  0  0  0  0  0  0  0  0  0  0
   12.1008    0.4669   14.7949 H   0  0  0  0  0  0  0  0  0  0  0  0
   10.4892   -0.0331   14.7034 H   0  0  0  0  0  0  0  0  0  0  0  0
   14.2265   -0.2878   14.3168 H   0  0  0  0  0  0  0  0  0  0  0  0
   16.8832   -3.4461   19.5363 H   0  0  0  0  0  0  0  0  0  0  0  0
   12.4219   -3.5004   16.5656 H   0  0  0  0  0  0  0  0  0  0  0  0
  1  2  1  0
  2  3  2  0
  2  4  2  0
  2  5  1  0
  5  6  2  0
  6  7  1  0
  7  8  1  0
  7  9  2  0
  9 10  1  0
 10 11  2  0
 11 12  1  0
 12 13  1  0
 13 14  2  0
 14  5  1  0
 13  9  1  0
  1 15  1  0
  1 16  1  0
  6 17  1  0
 11 18  1  0
 14 19  1  0
M  END
>  <Energy>  (509) 
-51.811696483373609

>  <compound_id>  (509) 
801

>  <target_id>  (509) 
1

>  <reference_id>  (509) 
66

>  <inspiration_ids>  (509) 
[66, 81]

>  <energy_score>  (509) 
-43.38746283166644

>  <distance_score>  (509) 
2.0751213828754955

>  <path>  (509) 
/opt/xchem-fragalysis-2/maxwin/BulkDock/SCRATCH/505733/C801-P66/C801-P66.minimised.mol

>  <scratch_subdir>  (509) 
/opt/xchem-fragalysis-2/maxwin/BulkDock/SCRATCH/505733/C801-P66

>  <fragmenstein_runtime>  (509) 
0.8128268718719482

>  <fragmenstein_outcome>  (509) 
too moved

>  <fragmenstein_mode>  (509) 
expansion

>  <fragmenstein_error>  (509) 


$$$$
C801-P81
     RDKit          3D

 19 20  0  0  0  0  0  0  0  0999 V2000
    9.9313   -1.0079   14.8921 N   0  0  0  0  0  0  0  0  0  0  0  0
   11.1573    0.0840   14.5904 S   0  0  0  0  0  0  0  0  0  0  0  0
   11.3459    0.1768   13.1652 O   0  0  0  0  0  0  0  0  0  0  0  0
   10.7969    1.2344   15.3904 O   0  0  0  0  0  0  0  0  0  0  0  0
   12.5654   -0.6651   15.3303 C   0  0  0  0  0  0  0  0  0  0  0  0
   13.6861    0.1345   15.5209 C   0  0  0  0  0  0  0  0  0  0  0  0
   14.8032   -0.3614   16.1984 C   0  0  0  0  0  0  0  0  0  0  0  0
   16.4551    0.8802   16.4675 I   0  0  0  0  0  0  0  0  0  0  0  0
   14.7890   -1.6772   16.7076 C   0  0  0  0  0  0  0  0  0  0  0  0
   15.7961   -2.3165   17.4182 N   0  0  0  0  0  0  0  0  0  0  0  0
   15.4161   -3.5299   17.7407 C   0  0  0  0  0  0  0  0  0  0  0  0
   13.8569   -3.9957   17.2184 S   0  0  0  0  0  0  0  0  0  0  0  0
   13.6457   -2.4531   16.4893 C   0  0  0  0  0  0  0  0  0  0  0  0
   12.5265   -1.9799   15.7877 C   0  0  0  0  0  0  0  0  0  0  0  0
    9.1327   -0.5199   15.2935 H   0  0  0  0  0  0  0  0  0  0  0  0
    9.6552   -1.4414   13.9873 H   0  0  0  0  0  0  0  0  0  0  0  0
   13.6852    1.1608   15.1549 H   0  0  0  0  0  0  0  0  0  0  0  0
   16.0520   -4.1995   18.3059 H   0  0  0  0  0  0  0  0  0  0  0  0
   11.6627   -2.6211   15.6421 H   0  0  0  0  0  0  0  0  0  0  0  0
  1  2  1  0
  2  3  2  0
  2  4  2  0
  2  5  1  0
  5  6  2  0
  6  7  1  0
  7  8  1  0
  7  9  2  0
  9 10  1  0
 10 11  2  0
 11 12  1  0
 12 13  1  0
 13 14  2  0
 14  5  1  0
 13  9  1  0
  1 15  1  0
  1 16  1  0
  6 17  1  0
 11 18  1  0
 14 19  1  0
M  END
>  <Energy>  (510) 
-55.695242469375557

>  <compound_id>  (510) 
801

>  <target_id>  (510) 
1

>  <reference_id>  (510) 
81

>  <inspiration_ids>  (510) 
[66, 81]

>  <energy_score>  (510) 
-47.27100881766967

>  <distance_score>  (510) 
1.8012268893831336

>  <path>  (510) 
/opt/xchem-fragalysis-2/maxwin/BulkDock/SCRATCH/505733/C801-P81/C801-P81.minimised.mol

>  <scratch_subdir>  (510) 
/opt/xchem-fragalysis-2/maxwin/BulkDock/SCRATCH/505733/C801-P81

>  <fragmenstein_runtime>  (510) 
0.8195595741271973

>  <fragmenstein_outcome>  (510) 
too moved

>  <fragmenstein_mode>  (510) 
expansion

>  <fragmenstein_error>  (510) 


$$$$
C802-P66
     RDKit          3D

 37 39  0  0  0  0  0  0  0  0999 V2000
   14.3097   -2.8852   11.3600 O   0  0  0  0  0  0  0  0  0  0  0  0
   15.3730   -2.1492   11.9897 S   0  0  0  0  0  0  0  0  0  0  0  0
   16.6843   -2.7538   12.1064 O   0  0  0  0  0  0  0  0  0  0  0  0
   15.5659   -0.7760   11.2000 N   0  0  0  0  0  0  0  0  0  0  0  0
   15.4527    0.2855   11.7349 C   0  0  0  0  0  0  0  0  0  0  0  0
   16.4593    1.4539   11.8732 N   0  0  0  0  0  0  0  0  0  0  0  0
   17.8410    1.5517   11.4810 C   0  0  0  0  0  0  0  0  0  0  0  0
   18.1673    0.7196   10.2234 C   0  0  0  0  0  0  0  0  0  0  0  0
   18.5132   -0.7671   10.4267 C   0  0  0  0  0  0  0  0  0  0  0  0
   19.1765   -1.1006   11.7624 C   0  0  0  0  0  0  0  0  0  0  0  0
   18.5958   -0.3904   12.9040 N   0  0  0  0  0  0  0  0  0  0  0  0
   18.6849    1.0583   12.6816 C   0  0  0  0  0  0  0  0  0  0  0  0
   14.8181   -1.7938   13.6516 C   0  0  0  0  0  0  0  0  0  0  0  0
   13.4423   -1.7330   13.8979 C   0  0  0  0  0  0  0  0  0  0  0  0
   12.9887   -1.7329   15.2044 C   0  0  0  0  0  0  0  0  0  0  0  0
   13.9347   -1.8182   16.2440 C   0  0  0  0  0  0  0  0  0  0  0  0
   13.6623   -1.8197   17.5817 N   0  0  0  0  0  0  0  0  0  0  0  0
   14.7482   -2.0495   18.2851 C   0  0  0  0  0  0  0  0  0  0  0  0
   16.1806   -2.1937   17.3955 S   0  0  0  0  0  0  0  0  0  0  0  0
   15.2900   -1.9193   15.9585 C   0  0  0  0  0  0  0  0  0  0  0  0
   15.7732   -1.8618   14.6653 C   0  0  0  0  0  0  0  0  0  0  0  0
   14.5774    0.6134   12.3271 H   0  0  0  0  0  0  0  0  0  0  0  0
   16.0588    2.1757   12.4641 H   0  0  0  0  0  0  0  0  0  0  0  0
   18.0640    2.6064   11.2850 H   0  0  0  0  0  0  0  0  0  0  0  0
   19.0589    1.1799    9.7743 H   0  0  0  0  0  0  0  0  0  0  0  0
   17.3766    0.8187    9.4697 H   0  0  0  0  0  0  0  0  0  0  0  0
   19.1914   -1.0733    9.6188 H   0  0  0  0  0  0  0  0  0  0  0  0
   17.6299   -1.3815   10.2660 H   0  0  0  0  0  0  0  0  0  0  0  0
   19.1394   -2.1806   11.9373 H   0  0  0  0  0  0  0  0  0  0  0  0
   20.2440   -0.8512   11.6977 H   0  0  0  0  0  0  0  0  0  0  0  0
   19.1228   -0.6412   13.7394 H   0  0  0  0  0  0  0  0  0  0  0  0
   19.7338    1.3471   12.5356 H   0  0  0  0  0  0  0  0  0  0  0  0
   18.3499    1.5647   13.5953 H   0  0  0  0  0  0  0  0  0  0  0  0
   12.7230   -1.7580   13.0843 H   0  0  0  0  0  0  0  0  0  0  0  0
   11.9238   -1.7285   15.4113 H   0  0  0  0  0  0  0  0  0  0  0  0
   14.7325   -2.1379   19.3646 H   0  0  0  0  0  0  0  0  0  0  0  0
   16.8294   -1.9916   14.4486 H   0  0  0  0  0  0  0  0  0  0  0  0
  1  2  2  0
  2  3  2  0
  2  4  1  0
  4  5  2  3
  5  6  1  0
  6  7  1  0
  7  8  1  0
  8  9  1  0
  9 10  1  0
 10 11  1  0
 11 12  1  0
  2 13  1  0
 13 14  2  0
 14 15  1  0
 15 16  2  0
 16 17  1  0
 17 18  2  0
 18 19  1  0
 19 20  1  0
 20 21  2  0
 12  7  1  0
 21 13  1  0
 20 16  1  0
  5 22  1  0
  6 23  1  0
  7 24  1  0
  8 25  1  0
  8 26  1  0
  9 27  1  0
  9 28  1  0
 10 29  1  0
 10 30  1  0
 11 31  1  0
 12 32  1  0
 12 33  1  0
 14 34  1  0
 15 35  1  0
 18 36  1  0
 21 37  1  0
M  END
>  <Energy>  (511) 
67.943762810053187

>  <compound_id>  (511) 
802

>  <target_id>  (511) 
1

>  <reference_id>  (511) 
66

>  <inspiration_ids>  (511) 
[66, 83]

>  <energy_score>  (511) 
-49.416525621955515

>  <distance_score>  (511) 
2.8743558767483672

>  <path>  (511) 
/opt/xchem-fragalysis-2/maxwin/BulkDock/SCRATCH/505733/C802-P66/C802-P66.minimised.mol

>  <scratch_subdir>  (511) 
/opt/xchem-fragalysis-2/maxwin/BulkDock/SCRATCH/505733/C802-P66

>  <fragmenstein_runtime>  (511) 
2.768312454223633

>  <fragmenstein_outcome>  (511) 
too moved

>  <fragmenstein_mode>  (511) 
expansion

>  <fragmenstein_error>  (511) 


$$$$
C802-P83
     RDKit          3D

 37 39  0  0  0  0  0  0  0  0999 V2000
   13.1630    2.0155   13.0269 O   0  0  0  0  0  0  0  0  0  0  0  0
   14.1553    1.4994   13.9529 S   0  0  0  0  0  0  0  0  0  0  0  0
   14.6981    2.3603   14.9877 O   0  0  0  0  0  0  0  0  0  0  0  0
   15.3437    0.8011   13.1319 N   0  0  0  0  0  0  0  0  0  0  0  0
   15.6728    1.1963   12.0450 C   0  0  0  0  0  0  0  0  0  0  0  0
   16.6847    0.5971   11.0072 N   0  0  0  0  0  0  0  0  0  0  0  0
   17.4268   -0.6389   11.0270 C   0  0  0  0  0  0  0  0  0  0  0  0
   16.5319   -1.7703   10.4956 C   0  0  0  0  0  0  0  0  0  0  0  0
   17.0014   -3.1171   11.0313 C   0  0  0  0  0  0  0  0  0  0  0  0
   16.9338   -3.1672   12.5612 C   0  0  0  0  0  0  0  0  0  0  0  0
   17.1433   -1.8775   13.2165 N   0  0  0  0  0  0  0  0  0  0  0  0
   17.9843   -0.9684   12.4384 C   0  0  0  0  0  0  0  0  0  0  0  0
   13.4368    0.0732   14.7651 C   0  0  0  0  0  0  0  0  0  0  0  0
   12.1072   -0.2593   14.4895 C   0  0  0  0  0  0  0  0  0  0  0  0
   11.5512   -1.4141   15.0195 C   0  0  0  0  0  0  0  0  0  0  0  0
   12.3466   -2.2359   15.8288 C   0  0  0  0  0  0  0  0  0  0  0  0
   11.8970   -3.3659   16.4591 N   0  0  0  0  0  0  0  0  0  0  0  0
   12.8820   -3.9345   17.1153 C   0  0  0  0  0  0  0  0  0  0  0  0
   14.3910   -3.1403   17.0378 S   0  0  0  0  0  0  0  0  0  0  0  0
   13.6844   -1.9102   16.0635 C   0  0  0  0  0  0  0  0  0  0  0  0
   14.2651   -0.7488   15.5439 C   0  0  0  0  0  0  0  0  0  0  0  0
   15.2730    2.0911   11.5277 H   0  0  0  0  0  0  0  0  0  0  0  0
   16.7827    1.2354   10.2239 H   0  0  0  0  0  0  0  0  0  0  0  0
   18.2855   -0.5246   10.3539 H   0  0  0  0  0  0  0  0  0  0  0  0
   16.5564   -1.7648    9.4007 H   0  0  0  0  0  0  0  0  0  0  0  0
   15.4837   -1.6145   10.7833 H   0  0  0  0  0  0  0  0  0  0  0  0
   18.0331   -3.2948   10.7024 H   0  0  0  0  0  0  0  0  0  0  0  0
   16.3914   -3.9242   10.6129 H   0  0  0  0  0  0  0  0  0  0  0  0
   15.9504   -3.5370   12.8709 H   0  0  0  0  0  0  0  0  0  0  0  0
   17.6707   -3.8937   12.9234 H   0  0  0  0  0  0  0  0  0  0  0  0
   17.5269   -2.0163   14.1494 H   0  0  0  0  0  0  0  0  0  0  0  0
   18.9749   -1.4292   12.3271 H   0  0  0  0  0  0  0  0  0  0  0  0
   18.1468   -0.0469   13.0097 H   0  0  0  0  0  0  0  0  0  0  0  0
   11.4916    0.3666   13.8450 H   0  0  0  0  0  0  0  0  0  0  0  0
   10.5193   -1.6814   14.8097 H   0  0  0  0  0  0  0  0  0  0  0  0
   12.7525   -4.8472   17.6815 H   0  0  0  0  0  0  0  0  0  0  0  0
   15.3093   -0.5070   15.7145 H   0  0  0  0  0  0  0  0  0  0  0  0
  1  2  2  0
  2  3  2  0
  2  4  1  0
  4  5  2  3
  5  6  1  0
  6  7  1  0
  7  8  1  0
  8  9  1  0
  9 10  1  0
 10 11  1  0
 11 12  1  0
  2 13  1  0
 13 14  2  0
 14 15  1  0
 15 16  2  0
 16 17  1  0
 17 18  2  0
 18 19  1  0
 19 20  1  0
 20 21  2  0
 12  7  1  0
 21 13  1  0
 20 16  1  0
  5 22  1  0
  6 23  1  0
  7 24  1  0
  8 25  1  0
  8 26  1  0
  9 27  1  0
  9 28  1  0
 10 29  1  0
 10 30  1  0
 11 31  1  0
 12 32  1  0
 12 33  1  0
 14 34  1  0
 15 35  1  0
 18 36  1  0
 21 37  1  0
M  END
>  <Energy>  (512) 
38.750382507816418

>  <compound_id>  (512) 
802

>  <target_id>  (512) 
1

>  <reference_id>  (512) 
83

>  <inspiration_ids>  (512) 
[66, 83]

>  <energy_score>  (512) 
-78.60990592419245

>  <distance_score>  (512) 
1.77002927807187

>  <path>  (512) 
/opt/xchem-fragalysis-2/maxwin/BulkDock/SCRATCH/505733/C802-P83/C802-P83.minimised.mol

>  <scratch_subdir>  (512) 
/opt/xchem-fragalysis-2/maxwin/BulkDock/SCRATCH/505733/C802-P83

>  <fragmenstein_runtime>  (512) 
2.817471742630005

>  <fragmenstein_outcome>  (512) 
too moved

>  <fragmenstein_mode>  (512) 
expansion

>  <fragmenstein_error>  (512) 


$$$$
C803-P66
     RDKit          3D

 47 46  0  0  0  0  0  0  0  0999 V2000
   15.8600    1.5940   21.1484 C   0  0  0  0  0  0  0  0  0  0  0  0
   15.8563    1.3207   19.6528 C   0  0  0  0  0  0  0  0  0  0  0  0
   16.4254   -0.0489   19.2740 C   0  0  0  0  0  0  0  0  0  0  0  0
   15.6313   -1.2226   19.8487 C   0  0  0  0  0  0  0  0  0  0  0  0
   16.1376   -2.5911   19.3877 C   0  0  0  0  0  0  0  0  0  0  0  0
   16.1604   -2.8729   17.8636 C   0  0  0  0  0  0  0  0  0  0  0  0
   16.6742   -4.3123   17.5643 C   0  0  0  0  0  0  0  0  0  0  0  0
   18.1072   -4.6423   18.0064 C   0  0  0  0  0  0  0  0  0  0  0  0
   18.2917   -4.8248   19.4429 N   0  0  0  0  0  0  0  0  0  0  0  0
   17.6243   -6.0022   19.9689 C   0  0  0  0  0  0  0  0  0  0  0  0
   18.1175   -6.2100   21.6926 S   0  0  0  0  0  0  0  0  0  0  0  0
   14.8264   -2.5212   17.1315 C   0  0  0  0  0  0  0  0  0  0  0  0
   15.0859   -2.2635   15.6558 C   0  0  0  0  0  0  0  0  0  0  0  0
   14.7465   -1.2478   14.9144 N   0  0  0  0  0  0  0  0  0  0  0  0
   14.1582   -0.1615   15.4903 C   0  0  0  0  0  0  0  0  0  0  0  0
   13.0331    0.1334   14.7077 N   0  0  0  0  0  0  0  0  0  0  0  0
   14.5971    0.3788   16.4563 O   0  0  0  0  0  0  0  0  0  0  0  0
   13.5576   -3.7916   17.1329 S   0  0  0  0  0  0  0  0  0  0  0  0
   13.3430   -4.1824   18.7322 N   0  0  0  0  0  0  0  0  0  0  0  0
   12.3228   -3.2171   16.6519 O   0  0  0  0  0  0  0  0  0  0  0  0
   14.0933   -4.9837   16.5326 O   0  0  0  0  0  0  0  0  0  0  0  0
   16.8609    1.4603   21.5705 H   0  0  0  0  0  0  0  0  0  0  0  0
   15.1678    0.9329   21.6782 H   0  0  0  0  0  0  0  0  0  0  0  0
   15.5451    2.6244   21.3423 H   0  0  0  0  0  0  0  0  0  0  0  0
   16.4553    2.0931   19.1556 H   0  0  0  0  0  0  0  0  0  0  0  0
   14.8354    1.4200   19.2678 H   0  0  0  0  0  0  0  0  0  0  0  0
   17.4661   -0.1154   19.6146 H   0  0  0  0  0  0  0  0  0  0  0  0
   16.4540   -0.1088   18.1823 H   0  0  0  0  0  0  0  0  0  0  0  0
   15.6976   -1.2001   20.9433 H   0  0  0  0  0  0  0  0  0  0  0  0
   14.5736   -1.1257   19.6131 H   0  0  0  0  0  0  0  0  0  0  0  0
   15.5549   -3.3644   19.8996 H   0  0  0  0  0  0  0  0  0  0  0  0
   17.1577   -2.6700   19.7759 H   0  0  0  0  0  0  0  0  0  0  0  0
   16.9219   -2.1985   17.4465 H   0  0  0  0  0  0  0  0  0  0  0  0
   16.6522   -4.4725   16.4801 H   0  0  0  0  0  0  0  0  0  0  0  0
   16.0009   -5.0523   18.0019 H   0  0  0  0  0  0  0  0  0  0  0  0
   18.7688   -3.8333   17.6751 H   0  0  0  0  0  0  0  0  0  0  0  0
   18.4452   -5.5450   17.4820 H   0  0  0  0  0  0  0  0  0  0  0  0
   19.2874   -4.9295   19.6411 H   0  0  0  0  0  0  0  0  0  0  0  0
   17.9049   -6.9063   19.4196 H   0  0  0  0  0  0  0  0  0  0  0  0
   16.5367   -5.8955   19.9478 H   0  0  0  0  0  0  0  0  0  0  0  0
   17.7240   -4.9894   22.0835 H   0  0  0  0  0  0  0  0  0  0  0  0
   14.3499   -1.6512   17.5768 H   0  0  0  0  0  0  0  0  0  0  0  0
   15.6039   -3.0746   15.1143 H   0  0  0  0  0  0  0  0  0  0  0  0
   13.0310   -0.4859   13.8779 H   0  0  0  0  0  0  0  0  0  0  0  0
   12.8979   -0.6259   14.0161 H   0  0  0  0  0  0  0  0  0  0  0  0
   13.8755   -4.9816   19.0626 H   0  0  0  0  0  0  0  0  0  0  0  0
   12.3389   -4.2566   18.9809 H   0  0  0  0  0  0  0  0  0  0  0  0
  1  2  1  0
  2  3  1  0
  3  4  1  0
  4  5  1  0
  5  6  1  0
  6  7  1  0
  7  8  1  0
  8  9  1  0
  9 10  1  0
 10 11  1  0
  6 12  1  0
 12 13  1  0
 13 14  2  3
 14 15  1  0
 15 16  1  0
 15 17  2  0
 12 18  1  0
 18 19  1  0
 18 20  2  0
 18 21  2  0
  1 22  1  0
  1 23  1  0
  1 24  1  0
  2 25  1  0
  2 26  1  0
  3 27  1  0
  3 28  1  0
  4 29  1  0
  4 30  1  0
  5 31  1  0
  5 32  1  0
  6 33  1  0
  7 34  1  0
  7 35  1  0
  8 36  1  0
  8 37  1  0
  9 38  1  0
 10 39  1  0
 10 40  1  0
 11 41  1  0
 12 42  1  0
 13 43  1  0
 16 44  1  0
 16 45  1  0
 19 46  1  0
 19 47  1  0
M  END
>  <Energy>  (513) 
-14.448160616301129

>  <compound_id>  (513) 
803

>  <target_id>  (513) 
1

>  <reference_id>  (513) 
66

>  <inspiration_ids>  (513) 
[66, 86]

>  <energy_score>  (513) 
95.61473275126444

>  <distance_score>  (513) 
2.0797087894279866

>  <path>  (513) 
/opt/xchem-fragalysis-2/maxwin/BulkDock/SCRATCH/505733/C803-P66/C803-P66.minimised.mol

>  <scratch_subdir>  (513) 
/opt/xchem-fragalysis-2/maxwin/BulkDock/SCRATCH/505733/C803-P66

>  <fragmenstein_runtime>  (513) 
19.668240785598755

>  <fragmenstein_outcome>  (513) 
too moved

>  <fragmenstein_mode>  (513) 
expansion

>  <fragmenstein_error>  (513) 


$$$$
C803-P86
     RDKit          3D

 47 46  0  0  0  0  0  0  0  0999 V2000
   15.1509    2.1541   20.4873 C   0  0  0  0  0  0  0  0  0  0  0  0
   15.1037    1.6286   19.0612 C   0  0  0  0  0  0  0  0  0  0  0  0
   15.8701    0.3181   18.8592 C   0  0  0  0  0  0  0  0  0  0  0  0
   15.3012   -0.8418   19.6794 C   0  0  0  0  0  0  0  0  0  0  0  0
   15.9581   -2.1981   19.3904 C   0  0  0  0  0  0  0  0  0  0  0  0
   15.9695   -2.6958   17.9223 C   0  0  0  0  0  0  0  0  0  0  0  0
   16.5174   -4.1469   17.8004 C   0  0  0  0  0  0  0  0  0  0  0  0
   17.9796   -4.3632   18.2118 C   0  0  0  0  0  0  0  0  0  0  0  0
   18.2326   -4.3079   19.6484 N   0  0  0  0  0  0  0  0  0  0  0  0
   17.6528   -5.4244   20.3749 C   0  0  0  0  0  0  0  0  0  0  0  0
   18.2182   -5.3407   22.0872 S   0  0  0  0  0  0  0  0  0  0  0  0
   14.6214   -2.4951   17.1793 C   0  0  0  0  0  0  0  0  0  0  0  0
   14.8530   -2.3439   15.6989 C   0  0  0  0  0  0  0  0  0  0  0  0
   14.2560   -1.4067   15.0324 N   0  0  0  0  0  0  0  0  0  0  0  0
   14.6044   -1.3381   13.7122 C   0  0  0  0  0  0  0  0  0  0  0  0
   13.4110   -1.1316   13.0073 N   0  0  0  0  0  0  0  0  0  0  0  0
   15.7292   -1.4290   13.3296 O   0  0  0  0  0  0  0  0  0  0  0  0
   13.3791   -3.7565   17.3734 S   0  0  0  0  0  0  0  0  0  0  0  0
   13.2149   -3.8639   19.0288 N   0  0  0  0  0  0  0  0  0  0  0  0
   12.1342   -3.2524   16.8414 O   0  0  0  0  0  0  0  0  0  0  0  0
   13.9004   -5.0394   16.9704 O   0  0  0  0  0  0  0  0  0  0  0  0
   16.1835    2.2541   20.8359 H   0  0  0  0  0  0  0  0  0  0  0  0
   14.6136    1.4947   21.1754 H   0  0  0  0  0  0  0  0  0  0  0  0
   14.6781    3.1401   20.5395 H   0  0  0  0  0  0  0  0  0  0  0  0
   15.5327    2.3869   18.3952 H   0  0  0  0  0  0  0  0  0  0  0  0
   14.0586    1.4967   18.7575 H   0  0  0  0  0  0  0  0  0  0  0  0
   16.9255    0.4648   19.1188 H   0  0  0  0  0  0  0  0  0  0  0  0
   15.8403    0.0816   17.7906 H   0  0  0  0  0  0  0  0  0  0  0  0
   15.4425   -0.6315   20.7466 H   0  0  0  0  0  0  0  0  0  0  0  0
   14.2217   -0.9108   19.5328 H   0  0  0  0  0  0  0  0  0  0  0  0
   15.4858   -2.9493   20.0333 H   0  0  0  0  0  0  0  0  0  0  0  0
   16.9945   -2.1113   19.7348 H   0  0  0  0  0  0  0  0  0  0  0  0
   16.7023   -2.0586   17.4053 H   0  0  0  0  0  0  0  0  0  0  0  0
   16.4519   -4.4569   16.7505 H   0  0  0  0  0  0  0  0  0  0  0  0
   15.8874   -4.8385   18.3661 H   0  0  0  0  0  0  0  0  0  0  0  0
   18.5950   -3.5971   17.7255 H   0  0  0  0  0  0  0  0  0  0  0  0
   18.3269   -5.3265   17.8174 H   0  0  0  0  0  0  0  0  0  0  0  0
   19.2401   -4.3379   19.8092 H   0  0  0  0  0  0  0  0  0  0  0  0
   17.9662   -6.3862   19.9570 H   0  0  0  0  0  0  0  0  0  0  0  0
   16.5609   -5.3789   20.3851 H   0  0  0  0  0  0  0  0  0  0  0  0
   17.7606   -4.1004   22.3090 H   0  0  0  0  0  0  0  0  0  0  0  0
   14.1303   -1.5705   17.4970 H   0  0  0  0  0  0  0  0  0  0  0  0
   15.5307   -3.0706   15.2127 H   0  0  0  0  0  0  0  0  0  0  0  0
   12.6127   -1.2257   13.6641 H   0  0  0  0  0  0  0  0  0  0  0  0
   12.6401   -0.9904   13.6871 H   0  0  0  0  0  0  0  0  0  0  0  0
   13.6333   -4.7119   19.4089 H   0  0  0  0  0  0  0  0  0  0  0  0
   12.2196   -3.8140   19.3133 H   0  0  0  0  0  0  0  0  0  0  0  0
  1  2  1  0
  2  3  1  0
  3  4  1  0
  4  5  1  0
  5  6  1  0
  6  7  1  0
  7  8  1  0
  8  9  1  0
  9 10  1  0
 10 11  1  0
  6 12  1  0
 12 13  1  0
 13 14  2  3
 14 15  1  0
 15 16  1  0
 15 17  2  0
 12 18  1  0
 18 19  1  0
 18 20  2  0
 18 21  2  0
  1 22  1  0
  1 23  1  0
  1 24  1  0
  2 25  1  0
  2 26  1  0
  3 27  1  0
  3 28  1  0
  4 29  1  0
  4 30  1  0
  5 31  1  0
  5 32  1  0
  6 33  1  0
  7 34  1  0
  7 35  1  0
  8 36  1  0
  8 37  1  0
  9 38  1  0
 10 39  1  0
 10 40  1  0
 11 41  1  0
 12 42  1  0
 13 43  1  0
 16 44  1  0
 16 45  1  0
 19 46  1  0
 19 47  1  0
M  END
>  <Energy>  (514) 
-20.235213246050236

>  <compound_id>  (514) 
803

>  <target_id>  (514) 
1

>  <reference_id>  (514) 
86

>  <inspiration_ids>  (514) 
[66, 86]

>  <energy_score>  (514) 
89.82768012151861

>  <distance_score>  (514) 
2.019081828944676

>  <path>  (514) 
/opt/xchem-fragalysis-2/maxwin/BulkDock/SCRATCH/505733/C803-P86/C803-P86.minimised.mol

>  <scratch_subdir>  (514) 
/opt/xchem-fragalysis-2/maxwin/BulkDock/SCRATCH/505733/C803-P86

>  <fragmenstein_runtime>  (514) 
18.90955090522766

>  <fragmenstein_outcome>  (514) 
too moved

>  <fragmenstein_mode>  (514) 
expansion

>  <fragmenstein_error>  (514) 


$$$$
C805-P66
     RDKit          3D

 31 32  0  0  0  0  0  0  0  0999 V2000
   16.2281    1.8553   12.9925 C   0  0  0  0  0  0  0  0  0  0  0  0
   15.6305    0.6807   13.5391 O   0  0  0  0  0  0  0  0  0  0  0  0
   15.3792    0.7655   14.8666 C   0  0  0  0  0  0  0  0  0  0  0  0
   15.6590    1.6826   15.6200 O   0  0  0  0  0  0  0  0  0  0  0  0
   14.7717   -0.4991   15.3151 C   0  0  0  0  0  0  0  0  0  0  0  0
   15.4210   -1.3560   16.2181 C   0  0  0  0  0  0  0  0  0  0  0  0
   16.7909   -0.9313   16.6619 C   0  0  0  0  0  0  0  0  0  0  0  0
   14.7371   -2.5134   16.6889 C   0  0  0  0  0  0  0  0  0  0  0  0
   15.4762   -3.5645   17.9371 S   0  0  0  0  0  0  0  0  0  0  0  0
   15.7869   -2.4830   19.1847 N   0  0  0  0  0  0  0  0  0  0  0  0
   14.4884   -4.4653   18.4923 O   0  0  0  0  0  0  0  0  0  0  0  0
   16.7495   -4.0397   17.4545 O   0  0  0  0  0  0  0  0  0  0  0  0
   13.4398   -2.8565   16.2376 C   0  0  0  0  0  0  0  0  0  0  0  0
   12.8175   -4.0708   16.6044 N   0  0  0  0  0  0  0  0  0  0  0  0
   11.4646   -4.2588   16.3875 O   0  0  0  0  0  0  0  0  0  0  0  0
   12.8584   -1.9484   15.3205 C   0  0  0  0  0  0  0  0  0  0  0  0
   11.3109   -2.0053   14.5986 S   0  0  0  0  0  0  0  0  0  0  0  0
   11.5427   -0.4747   13.8966 C   0  0  0  0  0  0  0  0  0  0  0  0
   12.7221    0.0503   14.0658 N   0  0  0  0  0  0  0  0  0  0  0  0
   13.4781   -0.7804   14.8740 C   0  0  0  0  0  0  0  0  0  0  0  0
   15.5790    2.7237   13.1437 H   0  0  0  0  0  0  0  0  0  0  0  0
   17.2131    2.0254   13.4383 H   0  0  0  0  0  0  0  0  0  0  0  0
   16.3559    1.7022   11.9174 H   0  0  0  0  0  0  0  0  0  0  0  0
   17.3649   -0.4849   15.8424 H   0  0  0  0  0  0  0  0  0  0  0  0
   17.4067   -1.7664   16.9966 H   0  0  0  0  0  0  0  0  0  0  0  0
   16.7152   -0.2087   17.4807 H   0  0  0  0  0  0  0  0  0  0  0  0
   16.7882   -2.4545   19.3856 H   0  0  0  0  0  0  0  0  0  0  0  0
   15.2272   -2.7239   20.0078 H   0  0  0  0  0  0  0  0  0  0  0  0
   13.0439   -4.3608   17.5705 H   0  0  0  0  0  0  0  0  0  0  0  0
   11.3321   -4.1156   15.4331 H   0  0  0  0  0  0  0  0  0  0  0  0
   10.7660    0.0276   13.3351 H   0  0  0  0  0  0  0  0  0  0  0  0
  1  2  1  0
  2  3  1  0
  3  4  2  0
  3  5  1  0
  5  6  2  0
  6  7  1  0
  6  8  1  0
  8  9  1  0
  9 10  1  0
  9 11  2  0
  9 12  2  0
  8 13  2  0
 13 14  1  0
 14 15  1  0
 13 16  1  0
 16 17  1  0
 17 18  1  0
 18 19  2  0
 19 20  1  0
 20  5  1  0
 20 16  2  0
  1 21  1  0
  1 22  1  0
  1 23  1  0
  7 24  1  0
  7 25  1  0
  7 26  1  0
 10 27  1  0
 10 28  1  0
 14 29  1  0
 15 30  1  0
 18 31  1  0
M  END
>  <Energy>  (515) 
-15.86626193237587

>  <compound_id>  (515) 
805

>  <target_id>  (515) 
1

>  <reference_id>  (515) 
66

>  <inspiration_ids>  (515) 
[66, 97]

>  <energy_score>  (515) 
-108.40638149706372

>  <distance_score>  (515) 
3.287465436989046

>  <path>  (515) 
/opt/xchem-fragalysis-2/maxwin/BulkDock/SCRATCH/505733/C805-P66/C805-P66.minimised.mol

>  <scratch_subdir>  (515) 
/opt/xchem-fragalysis-2/maxwin/BulkDock/SCRATCH/505733/C805-P66

>  <fragmenstein_runtime>  (515) 
1.2817928791046143

>  <fragmenstein_outcome>  (515) 
too moved

>  <fragmenstein_mode>  (515) 
expansion

>  <fragmenstein_error>  (515) 


$$$$
C805-P97
     RDKit          3D

 31 32  0  0  0  0  0  0  0  0999 V2000
   14.0238    2.1901   16.1711 C   0  0  0  0  0  0  0  0  0  0  0  0
   14.6604    2.0364   14.8939 O   0  0  0  0  0  0  0  0  0  0  0  0
   14.9201    0.8232   14.3450 C   0  0  0  0  0  0  0  0  0  0  0  0
   15.6261    0.6881   13.3533 O   0  0  0  0  0  0  0  0  0  0  0  0
   14.3819   -0.3750   15.0181 C   0  0  0  0  0  0  0  0  0  0  0  0
   15.2079   -1.2393   15.7545 C   0  0  0  0  0  0  0  0  0  0  0  0
   16.6412   -0.8152   15.9215 C   0  0  0  0  0  0  0  0  0  0  0  0
   14.6514   -2.4375   16.2866 C   0  0  0  0  0  0  0  0  0  0  0  0
   15.7045   -3.6817   17.0281 S   0  0  0  0  0  0  0  0  0  0  0  0
   17.0698   -3.6700   16.0337 N   0  0  0  0  0  0  0  0  0  0  0  0
   16.1603   -3.1959   18.3100 O   0  0  0  0  0  0  0  0  0  0  0  0
   15.2211   -5.0250   16.8109 O   0  0  0  0  0  0  0  0  0  0  0  0
   13.2657   -2.7164   16.2041 C   0  0  0  0  0  0  0  0  0  0  0  0
   12.6609   -3.8159   16.8354 N   0  0  0  0  0  0  0  0  0  0  0  0
   13.0117   -4.0512   18.1715 O   0  0  0  0  0  0  0  0  0  0  0  0
   12.4860   -1.7738   15.4944 C   0  0  0  0  0  0  0  0  0  0  0  0
   10.7835   -1.7312   15.2762 S   0  0  0  0  0  0  0  0  0  0  0  0
   10.9111   -0.2788   14.3932 C   0  0  0  0  0  0  0  0  0  0  0  0
   12.1167    0.1929   14.2430 N   0  0  0  0  0  0  0  0  0  0  0  0
   13.0161   -0.6356   14.8854 C   0  0  0  0  0  0  0  0  0  0  0  0
   12.9419    2.0776   16.0678 H   0  0  0  0  0  0  0  0  0  0  0  0
   14.2290    3.2056   16.5217 H   0  0  0  0  0  0  0  0  0  0  0  0
   14.4266    1.4920   16.9100 H   0  0  0  0  0  0  0  0  0  0  0  0
   17.2436   -1.1529   15.0728 H   0  0  0  0  0  0  0  0  0  0  0  0
   17.0713   -1.1935   16.8522 H   0  0  0  0  0  0  0  0  0  0  0  0
   16.7395    0.2725   16.0064 H   0  0  0  0  0  0  0  0  0  0  0  0
   17.8995   -3.5034   16.6032 H   0  0  0  0  0  0  0  0  0  0  0  0
   17.0988   -4.5516   15.5165 H   0  0  0  0  0  0  0  0  0  0  0  0
   11.6637   -3.9103   16.6404 H   0  0  0  0  0  0  0  0  0  0  0  0
   12.1772   -4.3064   18.6246 H   0  0  0  0  0  0  0  0  0  0  0  0
   10.0405    0.2130   13.9759 H   0  0  0  0  0  0  0  0  0  0  0  0
  1  2  1  0
  2  3  1  0
  3  4  2  0
  3  5  1  0
  5  6  2  0
  6  7  1  0
  6  8  1  0
  8  9  1  0
  9 10  1  0
  9 11  2  0
  9 12  2  0
  8 13  2  0
 13 14  1  0
 14 15  1  0
 13 16  1  0
 16 17  1  0
 17 18  1  0
 18 19  2  0
 19 20  1  0
 20  5  1  0
 20 16  2  0
  1 21  1  0
  1 22  1  0
  1 23  1  0
  7 24  1  0
  7 25  1  0
  7 26  1  0
 10 27  1  0
 10 28  1  0
 14 29  1  0
 15 30  1  0
 18 31  1  0
M  END
>  <Energy>  (516) 
-1.7541548601183385

>  <compound_id>  (516) 
805

>  <target_id>  (516) 
1

>  <reference_id>  (516) 
97

>  <inspiration_ids>  (516) 
[66, 97]

>  <energy_score>  (516) 
-94.29427442480667

>  <distance_score>  (516) 
2.5917242292626974

>  <path>  (516) 
/opt/xchem-fragalysis-2/maxwin/BulkDock/SCRATCH/505733/C805-P97/C805-P97.minimised.mol

>  <scratch_subdir>  (516) 
/opt/xchem-fragalysis-2/maxwin/BulkDock/SCRATCH/505733/C805-P97

>  <fragmenstein_runtime>  (516) 
1.4206745624542236

>  <fragmenstein_outcome>  (516) 
too moved

>  <fragmenstein_mode>  (516) 
expansion

>  <fragmenstein_error>  (516) 


$$$$
C807-P66
     RDKit          3D

 48 51  0  0  0  0  0  0  0  0999 V2000
   17.7631   -4.3621   20.0066 O   0  0  0  0  0  0  0  0  0  0  0  0
   17.3529   -4.4949   18.8686 C   0  0  0  0  0  0  0  0  0  0  0  0
   16.4043   -5.3832   18.4991 O   0  0  0  0  0  0  0  0  0  0  0  0
   17.8175   -3.6689   17.7378 C   0  0  0  0  0  0  0  0  0  0  0  0
   18.2208   -4.2733   16.5464 C   0  0  0  0  0  0  0  0  0  0  0  0
   18.6192   -3.4702   15.4855 C   0  0  0  0  0  0  0  0  0  0  0  0
   18.5985   -2.0767   15.6142 C   0  0  0  0  0  0  0  0  0  0  0  0
   18.2007   -1.4526   16.8023 C   0  0  0  0  0  0  0  0  0  0  0  0
   18.0750   -0.0649   16.9294 N   0  0  0  0  0  0  0  0  0  0  0  0
   17.8587    0.9478   15.9953 C   0  0  0  0  0  0  0  0  0  0  0  0
   17.7455    2.1852   16.5030 N   0  0  0  0  0  0  0  0  0  0  0  0
   17.5025    3.1841   15.6371 C   0  0  0  0  0  0  0  0  0  0  0  0
   17.3528    2.9994   14.2852 C   0  0  0  0  0  0  0  0  0  0  0  0
   17.4740    1.7015   13.8363 C   0  0  0  0  0  0  0  0  0  0  0  0
   17.4187    1.4214   12.3508 C   0  0  0  0  0  0  0  0  0  0  0  0
   17.3252   -0.0556   11.9571 C   0  0  0  0  0  0  0  0  0  0  0  0
   15.9148   -0.4921   11.8524 N   0  0  0  0  0  0  0  0  0  0  0  0
   15.4742   -1.9773   12.5531 S   0  0  0  0  0  0  0  0  0  0  0  0
   14.5333   -2.5511   11.6232 O   0  0  0  0  0  0  0  0  0  0  0  0
   16.6938   -2.6306   12.9631 O   0  0  0  0  0  0  0  0  0  0  0  0
   14.5513   -1.4674   14.0012 C   0  0  0  0  0  0  0  0  0  0  0  0
   14.8721   -2.0019   15.2475 C   0  0  0  0  0  0  0  0  0  0  0  0
   14.6441   -1.2402   16.3911 C   0  0  0  0  0  0  0  0  0  0  0  0
   14.2601    0.1019   16.2216 C   0  0  0  0  0  0  0  0  0  0  0  0
   14.3590    1.0893   17.1829 N   0  0  0  0  0  0  0  0  0  0  0  0
   14.0610    2.2550   16.6580 C   0  0  0  0  0  0  0  0  0  0  0  0
   13.4488    2.2250   15.0645 S   0  0  0  0  0  0  0  0  0  0  0  0
   13.8014    0.5347   14.9785 C   0  0  0  0  0  0  0  0  0  0  0  0
   13.7966   -0.2982   13.8610 C   0  0  0  0  0  0  0  0  0  0  0  0
   17.7374    0.6842   14.6818 N   0  0  0  0  0  0  0  0  0  0  0  0
   17.8350   -2.2746   17.8783 C   0  0  0  0  0  0  0  0  0  0  0  0
   16.0498   -5.2462   17.5967 H   0  0  0  0  0  0  0  0  0  0  0  0
   18.2368   -5.3547   16.4406 H   0  0  0  0  0  0  0  0  0  0  0  0
   18.9217   -3.9147   14.5400 H   0  0  0  0  0  0  0  0  0  0  0  0
   18.8978   -1.4838   14.7542 H   0  0  0  0  0  0  0  0  0  0  0  0
   17.9494    0.3124   17.8578 H   0  0  0  0  0  0  0  0  0  0  0  0
   17.4331    4.1728   16.0806 H   0  0  0  0  0  0  0  0  0  0  0  0
   17.1694    3.8312   13.6188 H   0  0  0  0  0  0  0  0  0  0  0  0
   18.3457    1.8267   11.9250 H   0  0  0  0  0  0  0  0  0  0  0  0
   16.5843    1.9800   11.9084 H   0  0  0  0  0  0  0  0  0  0  0  0
   17.7530   -0.1753   10.9537 H   0  0  0  0  0  0  0  0  0  0  0  0
   17.9258   -0.6773   12.6223 H   0  0  0  0  0  0  0  0  0  0  0  0
   15.5017   -0.4297   10.9213 H   0  0  0  0  0  0  0  0  0  0  0  0
   15.4282   -2.9333   15.3226 H   0  0  0  0  0  0  0  0  0  0  0  0
   14.9664   -1.5895   17.3660 H   0  0  0  0  0  0  0  0  0  0  0  0
   14.1385    3.1745   17.2236 H   0  0  0  0  0  0  0  0  0  0  0  0
   13.5391    0.0953   12.8827 H   0  0  0  0  0  0  0  0  0  0  0  0
   17.5159   -1.8345   18.8214 H   0  0  0  0  0  0  0  0  0  0  0  0
  1  2  2  0
  2  3  1  0
  2  4  1  0
  4  5  2  0
  5  6  1  0
  6  7  2  0
  7  8  1  0
  8  9  1  0
  9 10  1  0
 10 11  2  0
 11 12  1  0
 12 13  2  0
 13 14  1  0
 14 15  1  0
 15 16  1  0
 16 17  1  0
 17 18  1  0
 18 19  2  0
 18 20  2  0
 18 21  1  0
 21 22  2  0
 22 23  1  0
 23 24  2  0
 24 25  1  0
 25 26  2  0
 26 27  1  0
 27 28  1  0
 28 29  2  0
 14 30  2  0
  8 31  2  0
 31  4  1  0
 30 10  1  0
 29 21  1  0
 28 24  1  0
  3 32  1  0
  5 33  1  0
  6 34  1  0
  7 35  1  0
  9 36  1  0
 12 37  1  0
 13 38  1  0
 15 39  1  0
 15 40  1  0
 16 41  1  0
 16 42  1  0
 17 43  1  0
 22 44  1  0
 23 45  1  0
 26 46  1  0
 29 47  1  0
 31 48  1  0
M  END
>  <Energy>  (517) 
-63.750053682094695

>  <compound_id>  (517) 
807

>  <target_id>  (517) 
1

>  <reference_id>  (517) 
66

>  <inspiration_ids>  (517) 
[66, 103]

>  <energy_score>  (517) 
-340.0256801408994

>  <distance_score>  (517) 
3.184311652086701

>  <path>  (517) 
/opt/xchem-fragalysis-2/maxwin/BulkDock/SCRATCH/505733/C807-P66/C807-P66.minimised.mol

>  <scratch_subdir>  (517) 
/opt/xchem-fragalysis-2/maxwin/BulkDock/SCRATCH/505733/C807-P66

>  <fragmenstein_runtime>  (517) 
6.038969278335571

>  <fragmenstein_outcome>  (517) 
too moved

>  <fragmenstein_mode>  (517) 
expansion

>  <fragmenstein_error>  (517) 


$$$$
C807-P103
     RDKit          3D

 48 51  0  0  0  0  0  0  0  0999 V2000
   19.6682   -2.7439   20.0790 O   0  0  0  0  0  0  0  0  0  0  0  0
   18.5472   -3.1444   19.8217 C   0  0  0  0  0  0  0  0  0  0  0  0
   17.6883   -3.6236   20.7458 O   0  0  0  0  0  0  0  0  0  0  0  0
   17.9690   -3.1112   18.4615 C   0  0  0  0  0  0  0  0  0  0  0  0
   17.2375   -4.1923   17.9621 C   0  0  0  0  0  0  0  0  0  0  0  0
   16.7104   -4.1189   16.6775 C   0  0  0  0  0  0  0  0  0  0  0  0
   16.9192   -2.9739   15.9018 C   0  0  0  0  0  0  0  0  0  0  0  0
   17.6567   -1.8827   16.3806 C   0  0  0  0  0  0  0  0  0  0  0  0
   17.8151   -0.6922   15.6632 N   0  0  0  0  0  0  0  0  0  0  0  0
   17.0731   -0.1185   14.6344 C   0  0  0  0  0  0  0  0  0  0  0  0
   17.5362    1.0396   14.1446 N   0  0  0  0  0  0  0  0  0  0  0  0
   16.8020    1.6327   13.1851 C   0  0  0  0  0  0  0  0  0  0  0  0
   15.6215    1.1221   12.7003 C   0  0  0  0  0  0  0  0  0  0  0  0
   15.2130   -0.0716   13.2523 C   0  0  0  0  0  0  0  0  0  0  0  0
   13.8981   -0.6929   12.8443 C   0  0  0  0  0  0  0  0  0  0  0  0
   13.6960   -2.1359   13.3262 C   0  0  0  0  0  0  0  0  0  0  0  0
   12.2825   -2.4451   13.6238 N   0  0  0  0  0  0  0  0  0  0  0  0
   11.7675   -2.7834   15.1789 S   0  0  0  0  0  0  0  0  0  0  0  0
   12.4226   -3.9430   15.7204 O   0  0  0  0  0  0  0  0  0  0  0  0
   10.3375   -2.6073   15.2084 O   0  0  0  0  0  0  0  0  0  0  0  0
   12.4346   -1.4070   16.0166 C   0  0  0  0  0  0  0  0  0  0  0  0
   13.5278   -1.5701   16.8597 C   0  0  0  0  0  0  0  0  0  0  0  0
   14.1711   -0.4394   17.3348 C   0  0  0  0  0  0  0  0  0  0  0  0
   13.7127    0.8307   16.9416 C   0  0  0  0  0  0  0  0  0  0  0  0
   14.2770    2.0235   17.3274 N   0  0  0  0  0  0  0  0  0  0  0  0
   13.6100    3.0213   16.8046 C   0  0  0  0  0  0  0  0  0  0  0  0
   12.3028    2.6100   15.7931 S   0  0  0  0  0  0  0  0  0  0  0  0
   12.5971    0.9446   16.1105 C   0  0  0  0  0  0  0  0  0  0  0  0
   11.9032   -0.1681   15.6571 C   0  0  0  0  0  0  0  0  0  0  0  0
   15.9325   -0.6840   14.2102 N   0  0  0  0  0  0  0  0  0  0  0  0
   18.1885   -1.9732   17.6734 C   0  0  0  0  0  0  0  0  0  0  0  0
   16.7710   -3.7328   20.4294 H   0  0  0  0  0  0  0  0  0  0  0  0
   17.0964   -5.0966   18.5479 H   0  0  0  0  0  0  0  0  0  0  0  0
   16.1366   -4.9462   16.2637 H   0  0  0  0  0  0  0  0  0  0  0  0
   16.5095   -2.9636   14.8949 H   0  0  0  0  0  0  0  0  0  0  0  0
   18.5444   -0.0576   15.9530 H   0  0  0  0  0  0  0  0  0  0  0  0
   17.2044    2.5694   12.8102 H   0  0  0  0  0  0  0  0  0  0  0  0
   15.0535    1.6377   11.9383 H   0  0  0  0  0  0  0  0  0  0  0  0
   13.8538   -0.6886   11.7486 H   0  0  0  0  0  0  0  0  0  0  0  0
   13.0909   -0.0415   13.1921 H   0  0  0  0  0  0  0  0  0  0  0  0
   14.3003   -2.3744   14.2022 H   0  0  0  0  0  0  0  0  0  0  0  0
   14.0408   -2.8065   12.5320 H   0  0  0  0  0  0  0  0  0  0  0  0
   11.5219   -2.1123   13.0294 H   0  0  0  0  0  0  0  0  0  0  0  0
   13.9150   -2.5558   17.1065 H   0  0  0  0  0  0  0  0  0  0  0  0
   15.0463   -0.5207   17.9718 H   0  0  0  0  0  0  0  0  0  0  0  0
   13.8756    4.0525   16.9979 H   0  0  0  0  0  0  0  0  0  0  0  0
   11.0537   -0.0752   14.9869 H   0  0  0  0  0  0  0  0  0  0  0  0
   18.7631   -1.1464   18.0873 H   0  0  0  0  0  0  0  0  0  0  0  0
  1  2  2  0
  2  3  1  0
  2  4  1  0
  4  5  2  0
  5  6  1  0
  6  7  2  0
  7  8  1  0
  8  9  1  0
  9 10  1  0
 10 11  2  0
 11 12  1  0
 12 13  2  0
 13 14  1  0
 14 15  1  0
 15 16  1  0
 16 17  1  0
 17 18  1  0
 18 19  2  0
 18 20  2  0
 18 21  1  0
 21 22  2  0
 22 23  1  0
 23 24  2  0
 24 25  1  0
 25 26  2  0
 26 27  1  0
 27 28  1  0
 28 29  2  0
 14 30  2  0
  8 31  2  0
 31  4  1  0
 30 10  1  0
 29 21  1  0
 28 24  1  0
  3 32  1  0
  5 33  1  0
  6 34  1  0
  7 35  1  0
  9 36  1  0
 12 37  1  0
 13 38  1  0
 15 39  1  0
 15 40  1  0
 16 41  1  0
 16 42  1  0
 17 43  1  0
 22 44  1  0
 23 45  1  0
 26 46  1  0
 29 47  1  0
 31 48  1  0
M  END
>  <Energy>  (518) 
-72.340564303989026

>  <compound_id>  (518) 
807

>  <target_id>  (518) 
1

>  <reference_id>  (518) 
103

>  <inspiration_ids>  (518) 
[66, 103]

>  <energy_score>  (518) 
-348.6161907627948

>  <distance_score>  (518) 
3.2965822078183384

>  <path>  (518) 
/opt/xchem-fragalysis-2/maxwin/BulkDock/SCRATCH/505733/C807-P103/C807-P103.minimised.mol

>  <scratch_subdir>  (518) 
/opt/xchem-fragalysis-2/maxwin/BulkDock/SCRATCH/505733/C807-P103

>  <fragmenstein_runtime>  (518) 
5.253071069717407

>  <fragmenstein_outcome>  (518) 
too moved

>  <fragmenstein_mode>  (518) 
expansion

>  <fragmenstein_error>  (518) 


$$$$
C810-P66
     RDKit          3D

 51 53  0  0  0  0  0  0  0  0999 V2000
   14.2891    2.0717   18.1763 C   0  0  0  0  0  0  0  0  0  0  0  0
   15.2912    1.0972   17.5782 C   0  0  0  0  0  0  0  0  0  0  0  0
   16.5926    1.9075   17.2682 C   0  0  0  0  0  0  0  0  0  0  0  0
   16.4648    3.3635   16.8132 C   0  0  0  0  0  0  0  0  0  0  0  0
   15.6041    3.5535   15.6022 C   0  0  0  0  0  0  0  0  0  0  0  0
   15.4462    4.9705   15.1461 C   0  0  0  0  0  0  0  0  0  0  0  0
   14.2409    4.2328   15.6601 C   0  0  0  0  0  0  0  0  0  0  0  0
   13.1335    3.9744   14.6906 C   0  0  0  0  0  0  0  0  0  0  0  0
   12.3229    2.3939   14.9186 S   0  0  0  0  0  0  0  0  0  0  0  0
   14.7615    0.2664   16.3814 C   0  0  0  0  0  0  0  0  0  0  0  0
   15.5799   -1.0344   16.4222 C   0  0  0  0  0  0  0  0  0  0  0  0
   14.9568   -2.1702   15.7515 N   0  0  0  0  0  0  0  0  0  0  0  0
   15.9607   -3.1711   15.3571 C   0  0  0  0  0  0  0  0  0  0  0  0
   16.0103   -4.4994   16.1333 C   0  0  0  0  0  0  0  0  0  0  0  0
   15.2846   -4.4712   17.3617 O   0  0  0  0  0  0  0  0  0  0  0  0
   13.9305   -4.0907   17.1259 C   0  0  0  0  0  0  0  0  0  0  0  0
   13.7845   -2.7325   16.4245 C   0  0  0  0  0  0  0  0  0  0  0  0
   15.8320   -1.2658   17.8335 N   0  0  0  0  0  0  0  0  0  0  0  0
   17.1081   -1.8699   18.1296 C   0  0  0  0  0  0  0  0  0  0  0  0
   18.2034   -1.0692   17.7137 O   0  0  0  0  0  0  0  0  0  0  0  0
   15.6062   -0.0352   18.5766 C   0  0  0  0  0  0  0  0  0  0  0  0
   13.6510    1.6469   18.9376 H   0  0  0  0  0  0  0  0  0  0  0  0
   14.7913    2.8596   18.7494 H   0  0  0  0  0  0  0  0  0  0  0  0
   13.6679    2.5539   17.4338 H   0  0  0  0  0  0  0  0  0  0  0  0
   17.1787    1.3660   16.5149 H   0  0  0  0  0  0  0  0  0  0  0  0
   17.2251    1.9307   18.1658 H   0  0  0  0  0  0  0  0  0  0  0  0
   16.1356    4.0081   17.6358 H   0  0  0  0  0  0  0  0  0  0  0  0
   17.4752    3.7148   16.5636 H   0  0  0  0  0  0  0  0  0  0  0  0
   15.8066    2.8250   14.8253 H   0  0  0  0  0  0  0  0  0  0  0  0
   15.5400    5.1677   14.0832 H   0  0  0  0  0  0  0  0  0  0  0  0
   15.8427    5.7723   15.7613 H   0  0  0  0  0  0  0  0  0  0  0  0
   13.8571    4.5622   16.6204 H   0  0  0  0  0  0  0  0  0  0  0  0
   12.3813    4.7633   14.7973 H   0  0  0  0  0  0  0  0  0  0  0  0
   13.4932    4.0162   13.6568 H   0  0  0  0  0  0  0  0  0  0  0  0
   13.2654    1.6537   14.3190 H   0  0  0  0  0  0  0  0  0  0  0  0
   14.9115    0.7745   15.4262 H   0  0  0  0  0  0  0  0  0  0  0  0
   13.7007    0.0651   16.4868 H   0  0  0  0  0  0  0  0  0  0  0  0
   16.5091   -0.7737   15.8961 H   0  0  0  0  0  0  0  0  0  0  0  0
   15.8150   -3.3820   14.2963 H   0  0  0  0  0  0  0  0  0  0  0  0
   16.9750   -2.7488   15.3534 H   0  0  0  0  0  0  0  0  0  0  0  0
   15.6321   -5.3250   15.5317 H   0  0  0  0  0  0  0  0  0  0  0  0
   17.0493   -4.7508   16.3724 H   0  0  0  0  0  0  0  0  0  0  0  0
   13.4250   -4.0669   18.0965 H   0  0  0  0  0  0  0  0  0  0  0  0
   13.4429   -4.8721   16.5347 H   0  0  0  0  0  0  0  0  0  0  0  0
   12.9825   -2.8273   15.6811 H   0  0  0  0  0  0  0  0  0  0  0  0
   13.3743   -2.0304   17.1539 H   0  0  0  0  0  0  0  0  0  0  0  0
   17.2361   -2.8458   17.6701 H   0  0  0  0  0  0  0  0  0  0  0  0
   17.2050   -2.0544   19.2069 H   0  0  0  0  0  0  0  0  0  0  0  0
   18.3166   -0.3923   18.3979 H   0  0  0  0  0  0  0  0  0  0  0  0
   14.7807   -0.2354   19.2572 H   0  0  0  0  0  0  0  0  0  0  0  0
   16.4336    0.2373   19.2433 H   0  0  0  0  0  0  0  0  0  0  0  0
  1  2  1  0
  2  3  1  0
  3  4  1  0
  4  5  1  0
  5  6  1  0
  6  7  1  0
  7  8  1  0
  8  9  1  0
  2 10  1  0
 10 11  1  0
 11 12  1  0
 12 13  1  0
 13 14  1  0
 14 15  1  0
 15 16  1  0
 16 17  1  0
 11 18  1  0
 18 19  1  0
 19 20  1  0
 18 21  1  0
 21  2  1  0
  7  5  1  0
 17 12  1  0
  1 22  1  0
  1 23  1  0
  1 24  1  0
  3 25  1  0
  3 26  1  0
  4 27  1  0
  4 28  1  0
  5 29  1  0
  6 30  1  0
  6 31  1  0
  7 32  1  0
  8 33  1  0
  8 34  1  0
  9 35  1  0
 10 36  1  0
 10 37  1  0
 11 38  1  0
 13 39  1  0
 13 40  1  0
 14 41  1  0
 14 42  1  0
 16 43  1  0
 16 44  1  0
 17 45  1  0
 17 46  1  0
 19 47  1  0
 19 48  1  0
 20 49  1  0
 21 50  1  0
 21 51  1  0
M  END
>  <Energy>  (519) 
62.796677247912996

>  <compound_id>  (519) 
810

>  <target_id>  (519) 
1

>  <reference_id>  (519) 
66

>  <inspiration_ids>  (519) 
[66, 113]

>  <energy_score>  (519) 
-33.33890467139199

>  <distance_score>  (519) 
2.883836816079532

>  <path>  (519) 
/opt/xchem-fragalysis-2/maxwin/BulkDock/SCRATCH/505733/C810-P66/C810-P66.minimised.mol

>  <scratch_subdir>  (519) 
/opt/xchem-fragalysis-2/maxwin/BulkDock/SCRATCH/505733/C810-P66

>  <fragmenstein_runtime>  (519) 
3.5501017570495605

>  <fragmenstein_outcome>  (519) 
too moved

>  <fragmenstein_mode>  (519) 
expansion

>  <fragmenstein_error>  (519) 


$$$$
C810-P113
     RDKit          3D

 51 53  0  0  0  0  0  0  0  0999 V2000
   13.7364    0.7316   14.6833 C   0  0  0  0  0  0  0  0  0  0  0  0
   14.3298    0.1780   15.9855 C   0  0  0  0  0  0  0  0  0  0  0  0
   14.5775    1.2967   17.0749 C   0  0  0  0  0  0  0  0  0  0  0  0
   15.6126    2.3788   16.7359 C   0  0  0  0  0  0  0  0  0  0  0  0
   15.3307    3.7437   17.2855 C   0  0  0  0  0  0  0  0  0  0  0  0
   14.2049    4.0257   18.2384 C   0  0  0  0  0  0  0  0  0  0  0  0
   14.1481    4.5983   16.8362 C   0  0  0  0  0  0  0  0  0  0  0  0
   13.2507    4.1634   15.7192 C   0  0  0  0  0  0  0  0  0  0  0  0
   11.7015    3.3926   16.1816 S   0  0  0  0  0  0  0  0  0  0  0  0
   13.3642   -0.9086   16.5263 C   0  0  0  0  0  0  0  0  0  0  0  0
   14.2434   -2.1161   16.9015 C   0  0  0  0  0  0  0  0  0  0  0  0
   13.9573   -2.5186   18.2661 N   0  0  0  0  0  0  0  0  0  0  0  0
   14.7409   -1.9317   19.3720 C   0  0  0  0  0  0  0  0  0  0  0  0
   15.6516   -2.9400   20.0999 C   0  0  0  0  0  0  0  0  0  0  0  0
   14.9875   -4.1307   20.5522 O   0  0  0  0  0  0  0  0  0  0  0  0
   13.7104   -4.3237   19.9323 C   0  0  0  0  0  0  0  0  0  0  0  0
   13.7504   -3.9531   18.4437 C   0  0  0  0  0  0  0  0  0  0  0  0
   15.6020   -1.6371   16.7339 N   0  0  0  0  0  0  0  0  0  0  0  0
   16.6313   -2.6313   16.5660 C   0  0  0  0  0  0  0  0  0  0  0  0
   16.8084   -3.0569   15.2291 O   0  0  0  0  0  0  0  0  0  0  0  0
   15.5840   -0.6356   15.6801 C   0  0  0  0  0  0  0  0  0  0  0  0
   12.7505    1.1668   14.8451 H   0  0  0  0  0  0  0  0  0  0  0  0
   13.5999   -0.0642   13.9402 H   0  0  0  0  0  0  0  0  0  0  0  0
   14.3883    1.4772   14.2213 H   0  0  0  0  0  0  0  0  0  0  0  0
   14.8806    0.8332   18.0203 H   0  0  0  0  0  0  0  0  0  0  0  0
   13.5948    1.7142   17.2763 H   0  0  0  0  0  0  0  0  0  0  0  0
   15.7533    2.4700   15.6547 H   0  0  0  0  0  0  0  0  0  0  0  0
   16.5833    2.0471   17.1266 H   0  0  0  0  0  0  0  0  0  0  0  0
   16.2626    4.2810   17.4447 H   0  0  0  0  0  0  0  0  0  0  0  0
   14.3991    4.7209   19.0515 H   0  0  0  0  0  0  0  0  0  0  0  0
   13.4901    3.2726   18.5390 H   0  0  0  0  0  0  0  0  0  0  0  0
   14.3349    5.6675   16.7594 H   0  0  0  0  0  0  0  0  0  0  0  0
   12.9855    5.0541   15.1372 H   0  0  0  0  0  0  0  0  0  0  0  0
   13.7839    3.5195   15.0187 H   0  0  0  0  0  0  0  0  0  0  0  0
   11.2397    3.2302   14.9347 H   0  0  0  0  0  0  0  0  0  0  0  0
   12.6313   -1.2238   15.7722 H   0  0  0  0  0  0  0  0  0  0  0  0
   12.7885   -0.5174   17.3692 H   0  0  0  0  0  0  0  0  0  0  0  0
   14.0142   -2.9157   16.1874 H   0  0  0  0  0  0  0  0  0  0  0  0
   14.0283   -1.5573   20.1151 H   0  0  0  0  0  0  0  0  0  0  0  0
   15.3260   -1.0553   19.0822 H   0  0  0  0  0  0  0  0  0  0  0  0
   16.0995   -2.4657   20.9795 H   0  0  0  0  0  0  0  0  0  0  0  0
   16.4774   -3.2527   19.4541 H   0  0  0  0  0  0  0  0  0  0  0  0
   12.9651   -3.7392   20.4819 H   0  0  0  0  0  0  0  0  0  0  0  0
   13.4466   -5.3766   20.0553 H   0  0  0  0  0  0  0  0  0  0  0  0
   14.5777   -4.4931   17.9750 H   0  0  0  0  0  0  0  0  0  0  0  0
   12.8192   -4.2545   17.9550 H   0  0  0  0  0  0  0  0  0  0  0  0
   16.4837   -3.5151   17.1918 H   0  0  0  0  0  0  0  0  0  0  0  0
   17.5861   -2.1976   16.8830 H   0  0  0  0  0  0  0  0  0  0  0  0
   16.0359   -3.5908   14.9819 H   0  0  0  0  0  0  0  0  0  0  0  0
   16.4917   -0.0237   15.6881 H   0  0  0  0  0  0  0  0  0  0  0  0
   15.5037   -1.0982   14.6877 H   0  0  0  0  0  0  0  0  0  0  0  0
  1  2  1  0
  2  3  1  0
  3  4  1  0
  4  5  1  0
  5  6  1  0
  6  7  1  0
  7  8  1  0
  8  9  1  0
  2 10  1  0
 10 11  1  0
 11 12  1  0
 12 13  1  0
 13 14  1  0
 14 15  1  0
 15 16  1  0
 16 17  1  0
 11 18  1  0
 18 19  1  0
 19 20  1  0
 18 21  1  0
 21  2  1  0
  7  5  1  0
 17 12  1  0
  1 22  1  0
  1 23  1  0
  1 24  1  0
  3 25  1  0
  3 26  1  0
  4 27  1  0
  4 28  1  0
  5 29  1  0
  6 30  1  0
  6 31  1  0
  7 32  1  0
  8 33  1  0
  8 34  1  0
  9 35  1  0
 10 36  1  0
 10 37  1  0
 11 38  1  0
 13 39  1  0
 13 40  1  0
 14 41  1  0
 14 42  1  0
 16 43  1  0
 16 44  1  0
 17 45  1  0
 17 46  1  0
 19 47  1  0
 19 48  1  0
 20 49  1  0
 21 50  1  0
 21 51  1  0
M  END
>  <Energy>  (520) 
59.63712562660961

>  <compound_id>  (520) 
810

>  <target_id>  (520) 
1

>  <reference_id>  (520) 
113

>  <inspiration_ids>  (520) 
[66, 113]

>  <energy_score>  (520) 
-36.49845629269572

>  <distance_score>  (520) 
2.3660214965122526

>  <path>  (520) 
/opt/xchem-fragalysis-2/maxwin/BulkDock/SCRATCH/505733/C810-P113/C810-P113.minimised.mol

>  <scratch_subdir>  (520) 
/opt/xchem-fragalysis-2/maxwin/BulkDock/SCRATCH/505733/C810-P113

>  <fragmenstein_runtime>  (520) 
3.499417304992676

>  <fragmenstein_outcome>  (520) 
too moved

>  <fragmenstein_mode>  (520) 
expansion

>  <fragmenstein_error>  (520) 


$$$$
C814-P66
     RDKit          3D

 46 48  0  0  0  0  0  0  0  0999 V2000
   20.1534   -3.9130   11.2450 C   0  0  0  0  0  0  0  0  0  0  0  0
   19.2487   -2.7286   11.0862 C   0  0  0  0  0  0  0  0  0  0  0  0
   19.5702   -1.7211   10.1844 C   0  0  0  0  0  0  0  0  0  0  0  0
   18.7107   -0.6361   10.0680 C   0  0  0  0  0  0  0  0  0  0  0  0
   17.5622   -0.5879   10.8532 C   0  0  0  0  0  0  0  0  0  0  0  0
   17.3090   -1.6318   11.7307 C   0  0  0  0  0  0  0  0  0  0  0  0
   16.1918   -1.6361   12.5399 N   0  0  0  0  0  0  0  0  0  0  0  0
   15.0562   -0.6034   12.6856 C   0  0  0  0  0  0  0  0  0  0  0  0
   14.8447    0.3779   12.0897 O   0  0  0  0  0  0  0  0  0  0  0  0
   14.1492   -1.0747   13.7494 C   0  0  0  0  0  0  0  0  0  0  0  0
   14.4568   -2.1895   14.5166 N   0  0  0  0  0  0  0  0  0  0  0  0
   13.4818   -2.3137   15.3917 C   0  0  0  0  0  0  0  0  0  0  0  0
   13.5743   -2.9413   16.7388 C   0  0  0  0  0  0  0  0  0  0  0  0
   14.5500   -2.1207   17.5859 C   0  0  0  0  0  0  0  0  0  0  0  0
   15.0125   -3.0570   18.6851 C   0  0  0  0  0  0  0  0  0  0  0  0
   14.5992   -4.4317   18.1989 C   0  0  0  0  0  0  0  0  0  0  0  0
   14.2141   -4.2519   16.8014 N   0  0  0  0  0  0  0  0  0  0  0  0
   12.4323   -1.5208   14.9977 N   0  0  0  0  0  0  0  0  0  0  0  0
   12.9959   -0.4961   14.2627 C   0  0  0  0  0  0  0  0  0  0  0  0
   12.3821    0.8670   14.2063 C   0  0  0  0  0  0  0  0  0  0  0  0
   11.7250    1.1942   12.8753 C   0  0  0  0  0  0  0  0  0  0  0  0
   13.3827    1.9515   14.6124 C   0  0  0  0  0  0  0  0  0  0  0  0
   18.1331   -2.6950   11.8528 N   0  0  0  0  0  0  0  0  0  0  0  0
   21.1422   -3.5906   11.5854 H   0  0  0  0  0  0  0  0  0  0  0  0
   19.7507   -4.6150   11.9824 H   0  0  0  0  0  0  0  0  0  0  0  0
   20.2551   -4.4419   10.2922 H   0  0  0  0  0  0  0  0  0  0  0  0
   20.4717   -1.7759    9.5834 H   0  0  0  0  0  0  0  0  0  0  0  0
   18.9304    0.1693    9.3735 H   0  0  0  0  0  0  0  0  0  0  0  0
   16.8908    0.2581   10.7658 H   0  0  0  0  0  0  0  0  0  0  0  0
   16.0233   -2.4181   13.1715 H   0  0  0  0  0  0  0  0  0  0  0  0
   12.5850   -2.9993   17.1987 H   0  0  0  0  0  0  0  0  0  0  0  0
   14.1089   -1.2043   17.9792 H   0  0  0  0  0  0  0  0  0  0  0  0
   15.4290   -1.8084   17.0038 H   0  0  0  0  0  0  0  0  0  0  0  0
   16.0969   -2.9830   18.8209 H   0  0  0  0  0  0  0  0  0  0  0  0
   14.5371   -2.8213   19.6426 H   0  0  0  0  0  0  0  0  0  0  0  0
   13.7473   -4.7949   18.7854 H   0  0  0  0  0  0  0  0  0  0  0  0
   15.4220   -5.1447   18.3012 H   0  0  0  0  0  0  0  0  0  0  0  0
   13.6047   -4.9853   16.4474 H   0  0  0  0  0  0  0  0  0  0  0  0
   11.5210   -1.4846   15.4301 H   0  0  0  0  0  0  0  0  0  0  0  0
   11.5822    0.9049   14.9533 H   0  0  0  0  0  0  0  0  0  0  0  0
   10.9017    0.5019   12.6861 H   0  0  0  0  0  0  0  0  0  0  0  0
   12.4238    1.1394   12.0369 H   0  0  0  0  0  0  0  0  0  0  0  0
   11.2996    2.2038   12.8882 H   0  0  0  0  0  0  0  0  0  0  0  0
   13.8442    1.7193   15.5789 H   0  0  0  0  0  0  0  0  0  0  0  0
   12.8805    2.9205   14.7084 H   0  0  0  0  0  0  0  0  0  0  0  0
   14.1861    2.0694   13.8797 H   0  0  0  0  0  0  0  0  0  0  0  0
  1  2  1  0
  2  3  2  0
  3  4  1  0
  4  5  2  0
  5  6  1  0
  6  7  1  0
  7  8  1  0
  8  9  2  0
  8 10  1  0
 10 11  1  0
 11 12  2  0
 12 13  1  0
 13 14  1  0
 14 15  1  0
 15 16  1  0
 16 17  1  0
 12 18  1  0
 18 19  1  0
 19 20  1  0
 20 21  1  0
 20 22  1  0
  6 23  2  0
 23  2  1  0
 19 10  2  0
 17 13  1  0
  1 24  1  0
  1 25  1  0
  1 26  1  0
  3 27  1  0
  4 28  1  0
  5 29  1  0
  7 30  1  0
 13 31  1  0
 14 32  1  0
 14 33  1  0
 15 34  1  0
 15 35  1  0
 16 36  1  0
 16 37  1  0
 17 38  1  0
 18 39  1  0
 20 40  1  0
 21 41  1  0
 21 42  1  0
 21 43  1  0
 22 44  1  0
 22 45  1  0
 22 46  1  0
M  END
>  <Energy>  (521) 
35.116436495116261

>  <compound_id>  (521) 
814

>  <target_id>  (521) 
1

>  <reference_id>  (521) 
66

>  <inspiration_ids>  (521) 
[66, 122]

>  <energy_score>  (521) 
-19.671893749585706

>  <distance_score>  (521) 
2.900564166036249

>  <path>  (521) 
/opt/xchem-fragalysis-2/maxwin/BulkDock/SCRATCH/505733/C814-P66/C814-P66.minimised.mol

>  <scratch_subdir>  (521) 
/opt/xchem-fragalysis-2/maxwin/BulkDock/SCRATCH/505733/C814-P66

>  <fragmenstein_runtime>  (521) 
2.6047990322113037

>  <fragmenstein_outcome>  (521) 
too moved

>  <fragmenstein_mode>  (521) 
expansion

>  <fragmenstein_error>  (521) 


$$$$
C814-P122
     RDKit          3D

 46 48  0  0  0  0  0  0  0  0999 V2000
   19.9352   -3.4371   11.3709 C   0  0  0  0  0  0  0  0  0  0  0  0
   18.7650   -2.5222   11.1702 C   0  0  0  0  0  0  0  0  0  0  0  0
   18.7425   -1.6441   10.0931 C   0  0  0  0  0  0  0  0  0  0  0  0
   17.6435   -0.8080    9.9418 C   0  0  0  0  0  0  0  0  0  0  0  0
   16.6051   -0.8717   10.8666 C   0  0  0  0  0  0  0  0  0  0  0  0
   16.6987   -1.7762   11.9139 C   0  0  0  0  0  0  0  0  0  0  0  0
   15.7071   -1.8769   12.8675 N   0  0  0  0  0  0  0  0  0  0  0  0
   14.4083   -1.0690   13.0503 C   0  0  0  0  0  0  0  0  0  0  0  0
   13.9315   -0.2409   12.3798 O   0  0  0  0  0  0  0  0  0  0  0  0
   13.7684   -1.5050   14.3110 C   0  0  0  0  0  0  0  0  0  0  0  0
   14.3393   -2.4614   15.1369 N   0  0  0  0  0  0  0  0  0  0  0  0
   13.5894   -2.5181   16.2168 C   0  0  0  0  0  0  0  0  0  0  0  0
   14.0188   -2.9972   17.5583 C   0  0  0  0  0  0  0  0  0  0  0  0
   15.4525   -3.5045   17.5775 C   0  0  0  0  0  0  0  0  0  0  0  0
   15.5449   -4.2889   18.8823 C   0  0  0  0  0  0  0  0  0  0  0  0
   14.1034   -4.4222   19.3500 C   0  0  0  0  0  0  0  0  0  0  0  0
   13.3096   -4.1337   18.1486 N   0  0  0  0  0  0  0  0  0  0  0  0
   12.4541   -1.7724   16.0373 N   0  0  0  0  0  0  0  0  0  0  0  0
   12.6282   -0.9962   14.9174 C   0  0  0  0  0  0  0  0  0  0  0  0
   11.7449    0.1541   14.5432 C   0  0  0  0  0  0  0  0  0  0  0  0
   12.3936    1.4824   14.9394 C   0  0  0  0  0  0  0  0  0  0  0  0
   10.3456    0.0613   15.1556 C   0  0  0  0  0  0  0  0  0  0  0  0
   17.7602   -2.5956   12.0746 N   0  0  0  0  0  0  0  0  0  0  0  0
   20.0556   -4.0931   10.5032 H   0  0  0  0  0  0  0  0  0  0  0  0
   20.8508   -2.8546   11.5121 H   0  0  0  0  0  0  0  0  0  0  0  0
   19.7910   -4.0660   12.2555 H   0  0  0  0  0  0  0  0  0  0  0  0
   19.5629   -1.6080    9.3842 H   0  0  0  0  0  0  0  0  0  0  0  0
   17.5920   -0.1096    9.1117 H   0  0  0  0  0  0  0  0  0  0  0  0
   15.7459   -0.2216   10.7509 H   0  0  0  0  0  0  0  0  0  0  0  0
   15.7774   -2.5765   13.6016 H   0  0  0  0  0  0  0  0  0  0  0  0
   13.9584   -2.1369   18.2394 H   0  0  0  0  0  0  0  0  0  0  0  0
   15.6647   -4.1737   16.7330 H   0  0  0  0  0  0  0  0  0  0  0  0
   16.1837   -2.6894   17.5447 H   0  0  0  0  0  0  0  0  0  0  0  0
   16.0055   -5.2667   18.7058 H   0  0  0  0  0  0  0  0  0  0  0  0
   16.1484   -3.7576   19.6257 H   0  0  0  0  0  0  0  0  0  0  0  0
   13.8852   -3.6840   20.1320 H   0  0  0  0  0  0  0  0  0  0  0  0
   13.8925   -5.4077   19.7637 H   0  0  0  0  0  0  0  0  0  0  0  0
   12.3579   -3.9007   18.4295 H   0  0  0  0  0  0  0  0  0  0  0  0
   11.7385   -1.6514   16.7348 H   0  0  0  0  0  0  0  0  0  0  0  0
   11.6154    0.1458   13.4539 H   0  0  0  0  0  0  0  0  0  0  0  0
   13.3715    1.6074   14.4621 H   0  0  0  0  0  0  0  0  0  0  0  0
   12.5457    1.5450   16.0232 H   0  0  0  0  0  0  0  0  0  0  0  0
   11.7653    2.3270   14.6366 H   0  0  0  0  0  0  0  0  0  0  0  0
    9.8895   -0.9189   14.9888 H   0  0  0  0  0  0  0  0  0  0  0  0
   10.3629    0.2340   16.2339 H   0  0  0  0  0  0  0  0  0  0  0  0
    9.6902    0.8191   14.7182 H   0  0  0  0  0  0  0  0  0  0  0  0
  1  2  1  0
  2  3  2  0
  3  4  1  0
  4  5  2  0
  5  6  1  0
  6  7  1  0
  7  8  1  0
  8  9  2  0
  8 10  1  0
 10 11  1  0
 11 12  2  0
 12 13  1  0
 13 14  1  0
 14 15  1  0
 15 16  1  0
 16 17  1  0
 12 18  1  0
 18 19  1  0
 19 20  1  0
 20 21  1  0
 20 22  1  0
  6 23  2  0
 23  2  1  0
 19 10  2  0
 17 13  1  0
  1 24  1  0
  1 25  1  0
  1 26  1  0
  3 27  1  0
  4 28  1  0
  5 29  1  0
  7 30  1  0
 13 31  1  0
 14 32  1  0
 14 33  1  0
 15 34  1  0
 15 35  1  0
 16 36  1  0
 16 37  1  0
 17 38  1  0
 18 39  1  0
 20 40  1  0
 21 41  1  0
 21 42  1  0
 21 43  1  0
 22 44  1  0
 22 45  1  0
 22 46  1  0
M  END
>  <Energy>  (522) 
27.652842376116091

>  <compound_id>  (522) 
814

>  <target_id>  (522) 
1

>  <reference_id>  (522) 
122

>  <inspiration_ids>  (522) 
[66, 122]

>  <energy_score>  (522) 
-27.135487868586182

>  <distance_score>  (522) 
2.8516762442639245

>  <path>  (522) 
/opt/xchem-fragalysis-2/maxwin/BulkDock/SCRATCH/505733/C814-P122/C814-P122.minimised.mol

>  <scratch_subdir>  (522) 
/opt/xchem-fragalysis-2/maxwin/BulkDock/SCRATCH/505733/C814-P122

>  <fragmenstein_runtime>  (522) 
2.9431917667388916

>  <fragmenstein_outcome>  (522) 
too moved

>  <fragmenstein_mode>  (522) 
expansion

>  <fragmenstein_error>  (522) 


$$$$
C817-P66
     RDKit          3D

 55 57  0  0  0  0  0  0  0  0999 V2000
   15.8978    0.6106   17.8735 C   0  0  0  0  0  0  0  0  0  0  0  0
   16.9736   -0.3809   18.3115 C   0  0  0  0  0  0  0  0  0  0  0  0
   16.4584   -1.5581   19.1542 C   0  0  0  0  0  0  0  0  0  0  0  0
   15.0712   -1.9733   18.9080 N   0  0  0  0  0  0  0  0  0  0  0  0
   14.8587   -3.3776   19.2414 C   0  0  0  0  0  0  0  0  0  0  0  0
   15.5011   -4.2959   18.3224 N   0  0  0  0  0  0  0  0  0  0  0  0
   15.2519   -4.2388   17.0695 C   0  0  0  0  0  0  0  0  0  0  0  0
   15.9523   -5.0533   16.2691 O   0  0  0  0  0  0  0  0  0  0  0  0
   14.3124   -3.3796   16.3288 C   0  0  0  0  0  0  0  0  0  0  0  0
   12.9282   -3.4686   16.4661 C   0  0  0  0  0  0  0  0  0  0  0  0
   12.0916   -2.6535   15.6910 C   0  0  0  0  0  0  0  0  0  0  0  0
   12.6341   -1.6831   14.8529 C   0  0  0  0  0  0  0  0  0  0  0  0
   11.7301   -0.8022   14.1875 N   0  0  0  0  0  0  0  0  0  0  0  0
   12.2456    0.7520   13.8008 S   0  0  0  0  0  0  0  0  0  0  0  0
   10.6997    1.5822   13.5789 C   0  0  0  0  0  0  0  0  0  0  0  0
   12.8823    1.3447   14.9586 O   0  0  0  0  0  0  0  0  0  0  0  0
   12.9115    0.7071   12.5176 O   0  0  0  0  0  0  0  0  0  0  0  0
   14.0122   -1.6415   14.6630 C   0  0  0  0  0  0  0  0  0  0  0  0
   14.8384   -2.5007   15.3895 C   0  0  0  0  0  0  0  0  0  0  0  0
   17.7952   -0.9192   17.1978 C   0  0  0  0  0  0  0  0  0  0  0  0
   18.9441   -1.5559   17.2739 N   0  0  0  0  0  0  0  0  0  0  0  0
   19.2183   -1.8004   15.9530 C   0  0  0  0  0  0  0  0  0  0  0  0
   20.4859   -2.4515   15.5013 C   0  0  0  0  0  0  0  0  0  0  0  0
   21.0371   -1.8759   14.2044 C   0  0  0  0  0  0  0  0  0  0  0  0
   20.3438   -2.6704   13.1037 C   0  0  0  0  0  0  0  0  0  0  0  0
   19.7729   -3.9050   13.7897 C   0  0  0  0  0  0  0  0  0  0  0  0
   20.2841   -3.8763   15.1610 N   0  0  0  0  0  0  0  0  0  0  0  0
   18.2751   -1.3857   15.0982 N   0  0  0  0  0  0  0  0  0  0  0  0
   17.3457   -0.7727   15.9201 O   0  0  0  0  0  0  0  0  0  0  0  0
   16.3463    1.4620   17.3489 H   0  0  0  0  0  0  0  0  0  0  0  0
   15.3561    1.0029   18.7408 H   0  0  0  0  0  0  0  0  0  0  0  0
   15.1688    0.1584   17.1927 H   0  0  0  0  0  0  0  0  0  0  0  0
   17.6708    0.1822   18.9485 H   0  0  0  0  0  0  0  0  0  0  0  0
   17.1474   -2.4095   19.0729 H   0  0  0  0  0  0  0  0  0  0  0  0
   16.5098   -1.2583   20.2105 H   0  0  0  0  0  0  0  0  0  0  0  0
   14.4812   -1.4258   19.5323 H   0  0  0  0  0  0  0  0  0  0  0  0
   15.2279   -3.5764   20.2552 H   0  0  0  0  0  0  0  0  0  0  0  0
   13.7912   -3.6099   19.2811 H   0  0  0  0  0  0  0  0  0  0  0  0
   16.6040   -5.5000   16.8349 H   0  0  0  0  0  0  0  0  0  0  0  0
   12.4991   -4.1993   17.1455 H   0  0  0  0  0  0  0  0  0  0  0  0
   11.0163   -2.7443   15.7778 H   0  0  0  0  0  0  0  0  0  0  0  0
   11.0794   -1.2429   13.5221 H   0  0  0  0  0  0  0  0  0  0  0  0
   10.9020    2.5723   13.1647 H   0  0  0  0  0  0  0  0  0  0  0  0
   10.2016    1.6842   14.5415 H   0  0  0  0  0  0  0  0  0  0  0  0
   10.0939    1.0067   12.8816 H   0  0  0  0  0  0  0  0  0  0  0  0
   14.4759   -0.9608   13.9541 H   0  0  0  0  0  0  0  0  0  0  0  0
   15.9036   -2.5091   15.1886 H   0  0  0  0  0  0  0  0  0  0  0  0
   21.2301   -2.3662   16.3009 H   0  0  0  0  0  0  0  0  0  0  0  0
   20.8819   -0.7977   14.0920 H   0  0  0  0  0  0  0  0  0  0  0  0
   22.1175   -2.0619   14.1467 H   0  0  0  0  0  0  0  0  0  0  0  0
   19.5444   -2.0833   12.6383 H   0  0  0  0  0  0  0  0  0  0  0  0
   21.0581   -2.9394   12.3181 H   0  0  0  0  0  0  0  0  0  0  0  0
   20.0820   -4.8248   13.2838 H   0  0  0  0  0  0  0  0  0  0  0  0
   18.6772   -3.8765   13.7825 H   0  0  0  0  0  0  0  0  0  0  0  0
   19.6097   -4.2898   15.8040 H   0  0  0  0  0  0  0  0  0  0  0  0
  1  2  1  0
  2  3  1  0
  3  4  1  0
  4  5  1  0
  5  6  1  0
  6  7  2  3
  7  8  1  0
  7  9  1  0
  9 10  2  0
 10 11  1  0
 11 12  2  0
 12 13  1  0
 13 14  1  0
 14 15  1  0
 14 16  2  0
 14 17  2  0
 12 18  1  0
 18 19  2  0
  2 20  1  0
 20 21  2  0
 21 22  1  0
 22 23  1  0
 23 24  1  0
 24 25  1  0
 25 26  1  0
 26 27  1  0
 22 28  2  0
 28 29  1  0
 19  9  1  0
 29 20  1  0
 27 23  1  0
  1 30  1  0
  1 31  1  0
  1 32  1  0
  2 33  1  0
  3 34  1  0
  3 35  1  0
  4 36  1  0
  5 37  1  0
  5 38  1  0
  8 39  1  0
 10 40  1  0
 11 41  1  0
 13 42  1  0
 15 43  1  0
 15 44  1  0
 15 45  1  0
 18 46  1  0
 19 47  1  0
 23 48  1  0
 24 49  1  0
 24 50  1  0
 25 51  1  0
 25 52  1  0
 26 53  1  0
 26 54  1  0
 27 55  1  0
M  END
>  <Energy>  (523) 
-15.869389610033698

>  <compound_id>  (523) 
817

>  <target_id>  (523) 
1

>  <reference_id>  (523) 
66

>  <inspiration_ids>  (523) 
[66, 191]

>  <energy_score>  (523) 
-58.291922567088264

>  <distance_score>  (523) 
2.518952367007882

>  <path>  (523) 
/opt/xchem-fragalysis-2/maxwin/BulkDock/SCRATCH/505733/C817-P66/C817-P66.minimised.mol

>  <scratch_subdir>  (523) 
/opt/xchem-fragalysis-2/maxwin/BulkDock/SCRATCH/505733/C817-P66

>  <fragmenstein_runtime>  (523) 
9.388449668884277

>  <fragmenstein_outcome>  (523) 
too moved

>  <fragmenstein_mode>  (523) 
expansion

>  <fragmenstein_error>  (523) 


$$$$
C817-P191
     RDKit          3D

 55 57  0  0  0  0  0  0  0  0999 V2000
   15.2060   -1.7060   13.5284 C   0  0  0  0  0  0  0  0  0  0  0  0
   16.3590   -0.8451   14.0436 C   0  0  0  0  0  0  0  0  0  0  0  0
   15.9505    0.5070   14.6677 C   0  0  0  0  0  0  0  0  0  0  0  0
   15.4514    1.5758   13.7448 N   0  0  0  0  0  0  0  0  0  0  0  0
   14.0913    1.4157   13.2083 C   0  0  0  0  0  0  0  0  0  0  0  0
   13.2889    0.8082   14.2132 N   0  0  0  0  0  0  0  0  0  0  0  0
   12.2484    0.1062   14.0010 C   0  0  0  0  0  0  0  0  0  0  0  0
   11.5008    0.1428   12.8904 O   0  0  0  0  0  0  0  0  0  0  0  0
   11.9313   -0.8945   15.0425 C   0  0  0  0  0  0  0  0  0  0  0  0
   12.5790   -0.6919   16.2623 C   0  0  0  0  0  0  0  0  0  0  0  0
   12.9184   -1.7753   17.0504 C   0  0  0  0  0  0  0  0  0  0  0  0
   12.5351   -3.0561   16.6877 C   0  0  0  0  0  0  0  0  0  0  0  0
   12.8727   -4.1792   17.4912 N   0  0  0  0  0  0  0  0  0  0  0  0
   14.5164   -4.4585   17.8039 S   0  0  0  0  0  0  0  0  0  0  0  0
   14.6743   -3.8744   19.4801 C   0  0  0  0  0  0  0  0  0  0  0  0
   14.6912   -5.8918   17.8369 O   0  0  0  0  0  0  0  0  0  0  0  0
   15.3185   -3.6215   16.9416 O   0  0  0  0  0  0  0  0  0  0  0  0
   11.7394   -3.2413   15.5661 C   0  0  0  0  0  0  0  0  0  0  0  0
   11.4792   -2.1714   14.7142 C   0  0  0  0  0  0  0  0  0  0  0  0
   17.2096   -1.6268   15.0111 C   0  0  0  0  0  0  0  0  0  0  0  0
   18.0504   -1.1897   15.9226 N   0  0  0  0  0  0  0  0  0  0  0  0
   18.8825   -2.2691   16.0715 C   0  0  0  0  0  0  0  0  0  0  0  0
   20.2956   -2.0782   16.5473 C   0  0  0  0  0  0  0  0  0  0  0  0
   21.0306   -1.0701   15.6652 C   0  0  0  0  0  0  0  0  0  0  0  0
   21.4018   -1.8899   14.4421 C   0  0  0  0  0  0  0  0  0  0  0  0
   21.6481   -3.2839   15.0034 C   0  0  0  0  0  0  0  0  0  0  0  0
   21.1250   -3.2962   16.3794 N   0  0  0  0  0  0  0  0  0  0  0  0
   18.4568   -3.3945   15.4777 N   0  0  0  0  0  0  0  0  0  0  0  0
   17.3704   -2.9580   14.7309 O   0  0  0  0  0  0  0  0  0  0  0  0
   15.5791   -2.6162   13.0449 H   0  0  0  0  0  0  0  0  0  0  0  0
   14.6094   -1.1971   12.7720 H   0  0  0  0  0  0  0  0  0  0  0  0
   14.5562   -2.0242   14.3460 H   0  0  0  0  0  0  0  0  0  0  0  0
   17.0072   -0.6245   13.1838 H   0  0  0  0  0  0  0  0  0  0  0  0
   15.2766    0.3612   15.5190 H   0  0  0  0  0  0  0  0  0  0  0  0
   16.8527    0.9508   15.1112 H   0  0  0  0  0  0  0  0  0  0  0  0
   15.4240    2.4318   14.2985 H   0  0  0  0  0  0  0  0  0  0  0  0
   13.7001    2.4036   12.9417 H   0  0  0  0  0  0  0  0  0  0  0  0
   14.1302    0.8319   12.2835 H   0  0  0  0  0  0  0  0  0  0  0  0
   10.6493   -0.3339   12.9681 H   0  0  0  0  0  0  0  0  0  0  0  0
   12.9769    0.2876   16.5273 H   0  0  0  0  0  0  0  0  0  0  0  0
   13.5511   -1.5933   17.9112 H   0  0  0  0  0  0  0  0  0  0  0  0
   12.2595   -4.3292   18.3010 H   0  0  0  0  0  0  0  0  0  0  0  0
   15.6947   -4.0832   19.8096 H   0  0  0  0  0  0  0  0  0  0  0  0
   14.4909   -2.8017   19.5202 H   0  0  0  0  0  0  0  0  0  0  0  0
   13.9670   -4.4171   20.1105 H   0  0  0  0  0  0  0  0  0  0  0  0
   11.3971   -4.2289   15.2884 H   0  0  0  0  0  0  0  0  0  0  0  0
   11.0269   -2.3817   13.7540 H   0  0  0  0  0  0  0  0  0  0  0  0
   20.2852   -1.7646   17.5959 H   0  0  0  0  0  0  0  0  0  0  0  0
   20.4416   -0.1867   15.3994 H   0  0  0  0  0  0  0  0  0  0  0  0
   21.9437   -0.7259   16.1681 H   0  0  0  0  0  0  0  0  0  0  0  0
   20.5729   -1.9066   13.7248 H   0  0  0  0  0  0  0  0  0  0  0  0
   22.2821   -1.4850   13.9339 H   0  0  0  0  0  0  0  0  0  0  0  0
   22.7188   -3.5108   15.0276 H   0  0  0  0  0  0  0  0  0  0  0  0
   21.1605   -4.0441   14.3834 H   0  0  0  0  0  0  0  0  0  0  0  0
   20.5225   -4.1140   16.4994 H   0  0  0  0  0  0  0  0  0  0  0  0
  1  2  1  0
  2  3  1  0
  3  4  1  0
  4  5  1  0
  5  6  1  0
  6  7  2  3
  7  8  1  0
  7  9  1  0
  9 10  2  0
 10 11  1  0
 11 12  2  0
 12 13  1  0
 13 14  1  0
 14 15  1  0
 14 16  2  0
 14 17  2  0
 12 18  1  0
 18 19  2  0
  2 20  1  0
 20 21  2  0
 21 22  1  0
 22 23  1  0
 23 24  1  0
 24 25  1  0
 25 26  1  0
 26 27  1  0
 22 28  2  0
 28 29  1  0
 19  9  1  0
 29 20  1  0
 27 23  1  0
  1 30  1  0
  1 31  1  0
  1 32  1  0
  2 33  1  0
  3 34  1  0
  3 35  1  0
  4 36  1  0
  5 37  1  0
  5 38  1  0
  8 39  1  0
 10 40  1  0
 11 41  1  0
 13 42  1  0
 15 43  1  0
 15 44  1  0
 15 45  1  0
 18 46  1  0
 19 47  1  0
 23 48  1  0
 24 49  1  0
 24 50  1  0
 25 51  1  0
 25 52  1  0
 26 53  1  0
 26 54  1  0
 27 55  1  0
M  END
>  <Energy>  (524) 
13.971875274155369

>  <compound_id>  (524) 
817

>  <target_id>  (524) 
1

>  <reference_id>  (524) 
191

>  <inspiration_ids>  (524) 
[66, 191]

>  <energy_score>  (524) 
-28.450657682897685

>  <distance_score>  (524) 
2.8389545219772554

>  <path>  (524) 
/opt/xchem-fragalysis-2/maxwin/BulkDock/SCRATCH/505733/C817-P191/C817-P191.minimised.mol

>  <scratch_subdir>  (524) 
/opt/xchem-fragalysis-2/maxwin/BulkDock/SCRATCH/505733/C817-P191

>  <fragmenstein_runtime>  (524) 
6.65407919883728

>  <fragmenstein_outcome>  (524) 
too moved

>  <fragmenstein_mode>  (524) 
expansion

>  <fragmenstein_error>  (524) 


$$$$
C819-P68
     RDKit          3D

 67 71  0  0  0  0  0  0  0  0999 V2000
    0.4100  -38.5485   25.6574 C   0  0  0  0  0  0  0  0  0  0  0  0
   -0.9813  -38.4601   25.5379 N   0  0  0  0  0  0  0  0  0  0  0  0
   -1.9529  -39.3886   24.9722 C   0  0  0  0  0  0  0  0  0  0  0  0
   -1.8000  -40.4986   24.5407 O   0  0  0  0  0  0  0  0  0  0  0  0
   -3.8097  -38.7082   24.7306 C   0  0  0  0  0  0  0  0  0  0  0  0
   -5.2568  -38.2343   23.8535 C   0  0  0  0  0  0  0  0  0  0  0  0
   -5.3099  -37.6109   22.5884 C   0  0  0  0  0  0  0  0  0  0  0  0
   -6.5169  -37.1990   22.0012 C   0  0  0  0  0  0  0  0  0  0  0  0
   -7.7306  -37.3305   22.6726 C   0  0  0  0  0  0  0  0  0  0  0  0
   -8.9542  -36.8522   22.0413 C   0  0  0  0  0  0  0  0  0  0  0  0
   -9.2985  -35.4441   21.9265 C   0  0  0  0  0  0  0  0  0  0  0  0
  -10.4484  -35.0329   21.3659 C   0  0  0  0  0  0  0  0  0  0  0  0
  -11.3728  -36.0022   20.9110 C   0  0  0  0  0  0  0  0  0  0  0  0
  -12.5686  -35.9027   20.3836 N   0  0  0  0  0  0  0  0  0  0  0  0
  -13.0221  -37.1801   20.1478 N   0  0  0  0  0  0  0  0  0  0  0  0
  -12.1028  -38.0347   20.5377 C   0  0  0  0  0  0  0  0  0  0  0  0
  -12.1700  -39.3828   20.4955 N   0  0  0  0  0  0  0  0  0  0  0  0
  -11.0212  -37.3371   21.0296 N   0  0  0  0  0  0  0  0  0  0  0  0
   -9.8191  -37.7676   21.5681 C   0  0  0  0  0  0  0  0  0  0  0  0
   -7.7477  -37.9216   23.9281 C   0  0  0  0  0  0  0  0  0  0  0  0
   -8.9415  -37.8841   24.8667 C   0  0  0  0  0  0  0  0  0  0  0  0
   -9.9191  -38.9544   24.6614 N   0  0  0  0  0  0  0  0  0  0  0  0
  -10.5093  -39.4103   25.9113 C   0  0  0  0  0  0  0  0  0  0  0  0
  -11.4316  -40.5987   25.6723 C   0  0  0  0  0  0  0  0  0  0  0  0
  -12.7380  -39.9665   25.2444 C   0  0  0  0  0  0  0  0  0  0  0  0
  -12.7806  -38.6729   26.0481 C   0  0  0  0  0  0  0  0  0  0  0  0
  -13.3554  -37.5243   25.2796 C   0  0  0  0  0  0  0  0  0  0  0  0
  -14.6191  -37.5060   24.8414 N   0  0  0  0  0  0  0  0  0  0  0  0
  -14.7010  -36.2916   24.1605 O   0  0  0  0  0  0  0  0  0  0  0  0
  -13.4809  -35.6869   24.2842 C   0  0  0  0  0  0  0  0  0  0  0  0
  -13.3130  -34.3629   23.6218 C   0  0  0  0  0  0  0  0  0  0  0  0
  -14.4936  -33.4353   23.8985 C   0  0  0  0  0  0  0  0  0  0  0  0
  -12.0157  -33.6859   24.0592 C   0  0  0  0  0  0  0  0  0  0  0  0
  -12.6119  -36.4089   24.9586 N   0  0  0  0  0  0  0  0  0  0  0  0
  -11.3812  -38.3790   26.4512 N   0  0  0  0  0  0  0  0  0  0  0  0
   -6.5433  -38.4653   24.4108 C   0  0  0  0  0  0  0  0  0  0  0  0
    1.1301  -37.8785   26.1123 H   0  0  0  0  0  0  0  0  0  0  0  0
    0.7007  -39.3657   26.2661 H   0  0  0  0  0  0  0  0  0  0  0  0
    0.6623  -38.5890   24.6145 H   0  0  0  0  0  0  0  0  0  0  0  0
   -1.4580  -37.6570   25.8780 H   0  0  0  0  0  0  0  0  0  0  0  0
   -3.9706  -38.1195   25.6236 H   0  0  0  0  0  0  0  0  0  0  0  0
   -3.4604  -38.4100   23.7679 H   0  0  0  0  0  0  0  0  0  0  0  0
   -4.4508  -37.4740   21.9483 H   0  0  0  0  0  0  0  0  0  0  0  0
   -6.4874  -36.7564   21.0091 H   0  0  0  0  0  0  0  0  0  0  0  0
   -8.5728  -34.7310   22.2889 H   0  0  0  0  0  0  0  0  0  0  0  0
  -10.6898  -33.9822   21.2558 H   0  0  0  0  0  0  0  0  0  0  0  0
  -11.6569  -39.9434   21.1659 H   0  0  0  0  0  0  0  0  0  0  0  0
  -13.0951  -39.7590   20.2998 H   0  0  0  0  0  0  0  0  0  0  0  0
   -9.6421  -38.8353   21.6057 H   0  0  0  0  0  0  0  0  0  0  0  0
   -9.4322  -36.9057   24.7792 H   0  0  0  0  0  0  0  0  0  0  0  0
   -8.5658  -37.9004   25.8968 H   0  0  0  0  0  0  0  0  0  0  0  0
  -10.6511  -38.6015   24.0520 H   0  0  0  0  0  0  0  0  0  0  0  0
   -9.7273  -39.6963   26.6221 H   0  0  0  0  0  0  0  0  0  0  0  0
  -11.0580  -41.2972   24.9185 H   0  0  0  0  0  0  0  0  0  0  0  0
  -11.5766  -41.1560   26.6067 H   0  0  0  0  0  0  0  0  0  0  0  0
  -12.7265  -39.7801   24.1629 H   0  0  0  0  0  0  0  0  0  0  0  0
  -13.5915  -40.6171   25.4614 H   0  0  0  0  0  0  0  0  0  0  0  0
  -13.3641  -38.8186   26.9649 H   0  0  0  0  0  0  0  0  0  0  0  0
  -13.2711  -34.5337   22.5425 H   0  0  0  0  0  0  0  0  0  0  0  0
  -14.5780  -33.1951   24.9644 H   0  0  0  0  0  0  0  0  0  0  0  0
  -14.3830  -32.5021   23.3412 H   0  0  0  0  0  0  0  0  0  0  0  0
  -15.4412  -33.8868   23.5843 H   0  0  0  0  0  0  0  0  0  0  0  0
  -11.1562  -34.3589   23.9949 H   0  0  0  0  0  0  0  0  0  0  0  0
  -11.8130  -32.8171   23.4257 H   0  0  0  0  0  0  0  0  0  0  0  0
  -12.0774  -33.3484   25.0999 H   0  0  0  0  0  0  0  0  0  0  0  0
  -11.1217  -37.4750   26.0571 H   0  0  0  0  0  0  0  0  0  0  0  0
   -6.6917  -39.0546   25.3079 H   0  0  0  0  0  0  0  0  0  0  0  0
  1  2  1  0
  2  3  1  0
  3  4  2  0
  3  5  1  0
  5  6  1  0
  6  7  2  0
  7  8  1  0
  8  9  2  0
  9 10  1  0
 10 11  1  0
 11 12  2  0
 12 13  1  0
 13 14  2  0
 14 15  1  0
 15 16  2  0
 16 17  1  0
 16 18  1  0
 18 19  1  0
  9 20  1  0
 20 21  1  0
 21 22  1  0
 22 23  1  0
 23 24  1  0
 24 25  1  0
 25 26  1  0
 26 27  1  0
 27 28  2  0
 28 29  1  0
 29 30  1  0
 30 31  1  0
 31 32  1  0
 31 33  1  0
 30 34  2  0
 26 35  1  0
 20 36  2  0
 36  6  1  0
 19 10  2  0
 35 23  1  0
 18 13  1  0
 34 27  1  0
  1 37  1  0
  1 38  1  0
  1 39  1  0
  2 40  1  0
  5 41  1  0
  5 42  1  0
  7 43  1  0
  8 44  1  0
 11 45  1  0
 12 46  1  0
 17 47  1  0
 17 48  1  0
 19 49  1  0
 21 50  1  0
 21 51  1  0
 22 52  1  0
 23 53  1  0
 24 54  1  0
 24 55  1  0
 25 56  1  0
 25 57  1  0
 26 58  1  0
 31 59  1  0
 32 60  1  0
 32 61  1  0
 32 62  1  0
 33 63  1  0
 33 64  1  0
 33 65  1  0
 35 66  1  0
 36 67  1  0
M  END
>  <Energy>  (525) 
196.13471768944385

>  <compound_id>  (525) 
819

>  <target_id>  (525) 
1

>  <reference_id>  (525) 
68

>  <inspiration_ids>  (525) 
[68, 19]

>  <energy_score>  (525) 
75.22795025390644

>  <distance_score>  (525) 
3.5077075943947005

>  <path>  (525) 
/opt/xchem-fragalysis-2/maxwin/BulkDock/SCRATCH/505733/C819-P68/C819-P68.minimised.mol

>  <scratch_subdir>  (525) 
/opt/xchem-fragalysis-2/maxwin/BulkDock/SCRATCH/505733/C819-P68

>  <fragmenstein_runtime>  (525) 
44.32032632827759

>  <fragmenstein_outcome>  (525) 
too moved

>  <fragmenstein_mode>  (525) 
expansion

>  <fragmenstein_error>  (525) 


$$$$
C819-P19
     RDKit          3D

 67 71  0  0  0  0  0  0  0  0999 V2000
    0.9121  -38.5200   25.9136 C   0  0  0  0  0  0  0  0  0  0  0  0
   -0.3964  -38.3074   25.2991 N   0  0  0  0  0  0  0  0  0  0  0  0
   -1.4191  -39.2326   24.8997 C   0  0  0  0  0  0  0  0  0  0  0  0
   -1.4976  -40.4188   25.0402 O   0  0  0  0  0  0  0  0  0  0  0  0
   -2.5024  -38.5010   24.0797 C   0  0  0  0  0  0  0  0  0  0  0  0
   -4.2938  -38.0065   23.4758 C   0  0  0  0  0  0  0  0  0  0  0  0
   -4.6258  -37.5240   22.1478 C   0  0  0  0  0  0  0  0  0  0  0  0
   -5.8869  -37.1057   21.7230 C   0  0  0  0  0  0  0  0  0  0  0  0
   -6.9638  -37.1455   22.5736 C   0  0  0  0  0  0  0  0  0  0  0  0
   -8.2135  -36.5151   22.1422 C   0  0  0  0  0  0  0  0  0  0  0  0
   -8.7661  -35.3290   22.8030 C   0  0  0  0  0  0  0  0  0  0  0  0
   -9.8705  -34.7092   22.3525 C   0  0  0  0  0  0  0  0  0  0  0  0
  -10.5252  -35.2293   21.2097 C   0  0  0  0  0  0  0  0  0  0  0  0
  -11.5502  -34.8093   20.5097 N   0  0  0  0  0  0  0  0  0  0  0  0
  -11.7778  -35.7245   19.5098 N   0  0  0  0  0  0  0  0  0  0  0  0
  -10.8675  -36.6683   19.5909 C   0  0  0  0  0  0  0  0  0  0  0  0
  -10.7254  -37.7347   18.7719 N   0  0  0  0  0  0  0  0  0  0  0  0
  -10.0239  -36.3920   20.6458 N   0  0  0  0  0  0  0  0  0  0  0  0
   -8.8772  -37.0307   21.0916 C   0  0  0  0  0  0  0  0  0  0  0  0
   -6.7807  -37.7032   23.8326 C   0  0  0  0  0  0  0  0  0  0  0  0
   -8.0131  -38.0673   24.6604 C   0  0  0  0  0  0  0  0  0  0  0  0
   -8.8831  -38.9353   23.8688 N   0  0  0  0  0  0  0  0  0  0  0  0
  -10.2979  -38.9648   24.0760 C   0  0  0  0  0  0  0  0  0  0  0  0
  -10.9420  -40.0558   23.2109 C   0  0  0  0  0  0  0  0  0  0  0  0
  -12.3264  -39.5218   22.8614 C   0  0  0  0  0  0  0  0  0  0  0  0
  -12.3865  -38.1813   23.5738 C   0  0  0  0  0  0  0  0  0  0  0  0
  -13.2380  -37.1360   22.9603 C   0  0  0  0  0  0  0  0  0  0  0  0
  -14.1803  -37.3940   22.0445 N   0  0  0  0  0  0  0  0  0  0  0  0
  -14.7456  -36.1426   21.8134 O   0  0  0  0  0  0  0  0  0  0  0  0
  -14.1154  -35.2738   22.6557 C   0  0  0  0  0  0  0  0  0  0  0  0
  -14.5961  -33.8721   22.6349 C   0  0  0  0  0  0  0  0  0  0  0  0
  -14.6227  -33.3024   24.0523 C   0  0  0  0  0  0  0  0  0  0  0  0
  -13.7476  -33.0279   21.6920 C   0  0  0  0  0  0  0  0  0  0  0  0
  -13.1995  -35.8369   23.4104 N   0  0  0  0  0  0  0  0  0  0  0  0
  -10.9623  -37.7832   23.6084 N   0  0  0  0  0  0  0  0  0  0  0  0
   -5.4377  -37.9644   24.2691 C   0  0  0  0  0  0  0  0  0  0  0  0
    0.9630  -39.3937   26.5557 H   0  0  0  0  0  0  0  0  0  0  0  0
    1.6641  -38.3809   25.1255 H   0  0  0  0  0  0  0  0  0  0  0  0
    1.4206  -37.6929   26.4456 H   0  0  0  0  0  0  0  0  0  0  0  0
   -0.6146  -37.4179   24.9515 H   0  0  0  0  0  0  0  0  0  0  0  0
   -2.0715  -38.8651   23.1214 H   0  0  0  0  0  0  0  0  0  0  0  0
   -3.1190  -38.9056   24.9014 H   0  0  0  0  0  0  0  0  0  0  0  0
   -3.8948  -37.3338   21.3670 H   0  0  0  0  0  0  0  0  0  0  0  0
   -5.9975  -36.7301   20.7167 H   0  0  0  0  0  0  0  0  0  0  0  0
   -8.2613  -34.9716   23.6941 H   0  0  0  0  0  0  0  0  0  0  0  0
  -10.2809  -33.8352   22.8424 H   0  0  0  0  0  0  0  0  0  0  0  0
   -9.8009  -38.1047   18.5889 H   0  0  0  0  0  0  0  0  0  0  0  0
  -11.2985  -37.6926   17.9321 H   0  0  0  0  0  0  0  0  0  0  0  0
   -8.5652  -37.9194   20.5612 H   0  0  0  0  0  0  0  0  0  0  0  0
   -8.5175  -37.1494   24.9804 H   0  0  0  0  0  0  0  0  0  0  0  0
   -7.7178  -38.5997   25.5687 H   0  0  0  0  0  0  0  0  0  0  0  0
   -8.4582  -39.8319   23.6793 H   0  0  0  0  0  0  0  0  0  0  0  0
  -10.5638  -39.1080   25.1215 H   0  0  0  0  0  0  0  0  0  0  0  0
  -10.3844  -40.2359   22.2822 H   0  0  0  0  0  0  0  0  0  0  0  0
  -11.0111  -41.0084   23.7403 H   0  0  0  0  0  0  0  0  0  0  0  0
  -12.4157  -39.4286   21.7721 H   0  0  0  0  0  0  0  0  0  0  0  0
  -13.1173  -40.1974   23.2048 H   0  0  0  0  0  0  0  0  0  0  0  0
  -12.7409  -38.3317   24.6039 H   0  0  0  0  0  0  0  0  0  0  0  0
  -15.6273  -33.8657   22.2581 H   0  0  0  0  0  0  0  0  0  0  0  0
  -13.6154  -33.2166   24.4753 H   0  0  0  0  0  0  0  0  0  0  0  0
  -15.0929  -32.3149   24.0652 H   0  0  0  0  0  0  0  0  0  0  0  0
  -15.2050  -33.9466   24.7217 H   0  0  0  0  0  0  0  0  0  0  0  0
  -13.7287  -33.4643   20.6878 H   0  0  0  0  0  0  0  0  0  0  0  0
  -14.1684  -32.0263   21.5860 H   0  0  0  0  0  0  0  0  0  0  0  0
  -12.7170  -32.9305   22.0479 H   0  0  0  0  0  0  0  0  0  0  0  0
  -10.8444  -36.9826   24.2188 H   0  0  0  0  0  0  0  0  0  0  0  0
   -5.2431  -38.1426   25.2911 H   0  0  0  0  0  0  0  0  0  0  0  0
  1  2  1  0
  2  3  1  0
  3  4  2  0
  3  5  1  0
  5  6  1  0
  6  7  2  0
  7  8  1  0
  8  9  2  0
  9 10  1  0
 10 11  1  0
 11 12  2  0
 12 13  1  0
 13 14  2  0
 14 15  1  0
 15 16  2  0
 16 17  1  0
 16 18  1  0
 18 19  1  0
  9 20  1  0
 20 21  1  0
 21 22  1  0
 22 23  1  0
 23 24  1  0
 24 25  1  0
 25 26  1  0
 26 27  1  0
 27 28  2  0
 28 29  1  0
 29 30  1  0
 30 31  1  0
 31 32  1  0
 31 33  1  0
 30 34  2  0
 26 35  1  0
 20 36  2  0
 36  6  1  0
 19 10  2  0
 35 23  1  0
 18 13  1  0
 34 27  1  0
  1 37  1  0
  1 38  1  0
  1 39  1  0
  2 40  1  0
  5 41  1  0
  5 42  1  0
  7 43  1  0
  8 44  1  0
 11 45  1  0
 12 46  1  0
 17 47  1  0
 17 48  1  0
 19 49  1  0
 21 50  1  0
 21 51  1  0
 22 52  1  0
 23 53  1  0
 24 54  1  0
 24 55  1  0
 25 56  1  0
 25 57  1  0
 26 58  1  0
 31 59  1  0
 32 60  1  0
 32 61  1  0
 32 62  1  0
 33 63  1  0
 33 64  1  0
 33 65  1  0
 35 66  1  0
 36 67  1  0
M  END
>  <Energy>  (526) 
195.17714302666508

>  <compound_id>  (526) 
819

>  <target_id>  (526) 
1

>  <reference_id>  (526) 
19

>  <inspiration_ids>  (526) 
[68, 19]

>  <energy_score>  (526) 
74.27037559113114

>  <distance_score>  (526) 
3.5017863422090962

>  <path>  (526) 
/opt/xchem-fragalysis-2/maxwin/BulkDock/SCRATCH/505733/C819-P19/C819-P19.minimised.mol

>  <scratch_subdir>  (526) 
/opt/xchem-fragalysis-2/maxwin/BulkDock/SCRATCH/505733/C819-P19

>  <fragmenstein_runtime>  (526) 
47.604721546173096

>  <fragmenstein_outcome>  (526) 
too moved

>  <fragmenstein_mode>  (526) 
expansion

>  <fragmenstein_error>  (526) 


$$$$
C823-P69
     RDKit          3D

 65 69  0  0  0  0  0  0  0  0999 V2000
   -5.0944    3.8694    1.4875 C   0  0  0  0  0  0  0  0  0  0  0  0
   -5.3046    4.2361    2.8451 O   0  0  0  0  0  0  0  0  0  0  0  0
   -5.4833    3.2324    3.7587 C   0  0  0  0  0  0  0  0  0  0  0  0
   -5.2559    1.8810    3.4887 C   0  0  0  0  0  0  0  0  0  0  0  0
   -5.4695    0.8817    4.4581 C   0  0  0  0  0  0  0  0  0  0  0  0
   -4.9912   -0.5160    4.0805 C   0  0  0  0  0  0  0  0  0  0  0  0
   -6.0030   -1.5159    3.8026 N   0  0  0  0  0  0  0  0  0  0  0  0
   -6.7070   -1.3574    2.5483 C   0  0  0  0  0  0  0  0  0  0  0  0
   -7.8553   -2.3562    2.4377 C   0  0  0  0  0  0  0  0  0  0  0  0
   -7.1885   -3.6722    2.0459 C   0  0  0  0  0  0  0  0  0  0  0  0
   -5.7935   -3.2762    1.5657 C   0  0  0  0  0  0  0  0  0  0  0  0
   -5.3624   -3.9153    0.2809 C   0  0  0  0  0  0  0  0  0  0  0  0
   -4.5532   -3.3082   -0.6040 N   0  0  0  0  0  0  0  0  0  0  0  0
   -4.3432   -4.2819   -1.5764 O   0  0  0  0  0  0  0  0  0  0  0  0
   -5.0202   -5.3919   -1.1665 C   0  0  0  0  0  0  0  0  0  0  0  0
   -4.9054   -6.5978   -2.0314 C   0  0  0  0  0  0  0  0  0  0  0  0
   -3.8492   -7.5488   -1.4700 C   0  0  0  0  0  0  0  0  0  0  0  0
   -6.2543   -7.3015   -2.1674 C   0  0  0  0  0  0  0  0  0  0  0  0
   -5.6486   -5.2294   -0.0237 N   0  0  0  0  0  0  0  0  0  0  0  0
   -5.8580   -1.8037    1.4640 N   0  0  0  0  0  0  0  0  0  0  0  0
   -6.0063    1.2710    5.7170 C   0  0  0  0  0  0  0  0  0  0  0  0
   -6.4080    0.3095    6.7537 C   0  0  0  0  0  0  0  0  0  0  0  0
   -7.8108    0.1041    7.1294 C   0  0  0  0  0  0  0  0  0  0  0  0
   -8.2914   -1.1291    7.3706 C   0  0  0  0  0  0  0  0  0  0  0  0
   -7.4072   -2.2205    7.2031 C   0  0  0  0  0  0  0  0  0  0  0  0
   -7.5847   -3.4983    6.9823 N   0  0  0  0  0  0  0  0  0  0  0  0
   -6.3580   -4.0340    6.6648 N   0  0  0  0  0  0  0  0  0  0  0  0
   -5.4283   -3.1221    6.8437 C   0  0  0  0  0  0  0  0  0  0  0  0
   -4.0767   -3.2286    6.7639 N   0  0  0  0  0  0  0  0  0  0  0  0
   -6.0531   -1.9367    7.1330 N   0  0  0  0  0  0  0  0  0  0  0  0
   -5.5283   -0.6594    7.0495 C   0  0  0  0  0  0  0  0  0  0  0  0
   -6.2233    2.6260    5.9864 C   0  0  0  0  0  0  0  0  0  0  0  0
   -5.9155    3.6008    5.0380 C   0  0  0  0  0  0  0  0  0  0  0  0
   -6.1540    4.8862    5.4547 O   0  0  0  0  0  0  0  0  0  0  0  0
   -5.1005    5.8012    5.1567 C   0  0  0  0  0  0  0  0  0  0  0  0
   -4.1177    3.3920    1.3589 H   0  0  0  0  0  0  0  0  0  0  0  0
   -5.0964    4.7863    0.8902 H   0  0  0  0  0  0  0  0  0  0  0  0
   -5.9018    3.2290    1.1167 H   0  0  0  0  0  0  0  0  0  0  0  0
   -4.8734    1.5797    2.5169 H   0  0  0  0  0  0  0  0  0  0  0  0
   -4.3065   -0.8942    4.8410 H   0  0  0  0  0  0  0  0  0  0  0  0
   -4.3095   -0.4343    3.2237 H   0  0  0  0  0  0  0  0  0  0  0  0
   -6.6850   -1.5348    4.5583 H   0  0  0  0  0  0  0  0  0  0  0  0
   -7.0771   -0.3378    2.4025 H   0  0  0  0  0  0  0  0  0  0  0  0
   -8.5434   -2.0470    1.6399 H   0  0  0  0  0  0  0  0  0  0  0  0
   -8.4440   -2.4517    3.3566 H   0  0  0  0  0  0  0  0  0  0  0  0
   -7.0999   -4.3176    2.9257 H   0  0  0  0  0  0  0  0  0  0  0  0
   -7.7903   -4.1963    1.2959 H   0  0  0  0  0  0  0  0  0  0  0  0
   -5.0547   -3.5588    2.3287 H   0  0  0  0  0  0  0  0  0  0  0  0
   -4.5867   -6.2862   -3.0342 H   0  0  0  0  0  0  0  0  0  0  0  0
   -2.8695   -7.0596   -1.4210 H   0  0  0  0  0  0  0  0  0  0  0  0
   -4.1017   -7.8780   -0.4561 H   0  0  0  0  0  0  0  0  0  0  0  0
   -3.7489   -8.4381   -2.1012 H   0  0  0  0  0  0  0  0  0  0  0  0
   -6.6324   -7.6426   -1.1974 H   0  0  0  0  0  0  0  0  0  0  0  0
   -7.0050   -6.6275   -2.5954 H   0  0  0  0  0  0  0  0  0  0  0  0
   -6.1732   -8.1742   -2.8241 H   0  0  0  0  0  0  0  0  0  0  0  0
   -4.9218   -1.4259    1.5300 H   0  0  0  0  0  0  0  0  0  0  0  0
   -8.4634    0.9703    7.1934 H   0  0  0  0  0  0  0  0  0  0  0  0
   -9.3292   -1.3176    7.6244 H   0  0  0  0  0  0  0  0  0  0  0  0
   -3.5255   -2.6158    7.3570 H   0  0  0  0  0  0  0  0  0  0  0  0
   -3.7239   -4.1785    6.8577 H   0  0  0  0  0  0  0  0  0  0  0  0
   -4.4685   -0.6064    6.8526 H   0  0  0  0  0  0  0  0  0  0  0  0
   -6.6303    2.9434    6.9458 H   0  0  0  0  0  0  0  0  0  0  0  0
   -5.2961    6.3077    4.2072 H   0  0  0  0  0  0  0  0  0  0  0  0
   -5.0949    6.5646    5.9411 H   0  0  0  0  0  0  0  0  0  0  0  0
   -4.1136    5.3244    5.1516 H   0  0  0  0  0  0  0  0  0  0  0  0
  1  2  1  0
  2  3  1  0
  3  4  2  0
  4  5  1  0
  5  6  1  0
  6  7  1  0
  7  8  1  0
  8  9  1  0
  9 10  1  0
 10 11  1  0
 11 12  1  0
 12 13  2  0
 13 14  1  0
 14 15  1  0
 15 16  1  0
 16 17  1  0
 16 18  1  0
 15 19  2  0
 11 20  1  0
  5 21  2  0
 21 22  1  0
 22 23  1  0
 23 24  2  0
 24 25  1  0
 25 26  2  0
 26 27  1  0
 27 28  2  0
 28 29  1  0
 28 30  1  0
 30 31  1  0
 21 32  1  0
 32 33  2  0
 33 34  1  0
 34 35  1  0
 33  3  1  0
 20  8  1  0
 31 22  2  0
 19 12  1  0
 30 25  1  0
  1 36  1  0
  1 37  1  0
  1 38  1  0
  4 39  1  0
  6 40  1  0
  6 41  1  0
  7 42  1  0
  8 43  1  0
  9 44  1  0
  9 45  1  0
 10 46  1  0
 10 47  1  0
 11 48  1  0
 16 49  1  0
 17 50  1  0
 17 51  1  0
 17 52  1  0
 18 53  1  0
 18 54  1  0
 18 55  1  0
 20 56  1  0
 23 57  1  0
 24 58  1  0
 29 59  1  0
 29 60  1  0
 31 61  1  0
 32 62  1  0
 35 63  1  0
 35 64  1  0
 35 65  1  0
M  END
>  <Energy>  (527) 
72.993232893093776

>  <compound_id>  (527) 
823

>  <target_id>  (527) 
1

>  <reference_id>  (527) 
69

>  <inspiration_ids>  (527) 
[69, 24]

>  <energy_score>  (527) 
-30.1248018906972

>  <distance_score>  (527) 
1.9226344475012391

>  <path>  (527) 
/opt/xchem-fragalysis-2/maxwin/BulkDock/SCRATCH/505733/C823-P69/C823-P69.minimised.mol

>  <scratch_subdir>  (527) 
/opt/xchem-fragalysis-2/maxwin/BulkDock/SCRATCH/505733/C823-P69

>  <fragmenstein_runtime>  (527) 
8.23882532119751

>  <fragmenstein_outcome>  (527) 
too moved

>  <fragmenstein_mode>  (527) 
expansion

>  <fragmenstein_error>  (527) 


$$$$
C823-P24
     RDKit          3D

 65 69  0  0  0  0  0  0  0  0999 V2000
   -3.1908    5.1664    3.4749 C   0  0  0  0  0  0  0  0  0  0  0  0
   -4.0238    4.1169    3.0070 O   0  0  0  0  0  0  0  0  0  0  0  0
   -4.4834    3.1827    3.8978 C   0  0  0  0  0  0  0  0  0  0  0  0
   -5.3337    2.2561    3.2823 C   0  0  0  0  0  0  0  0  0  0  0  0
   -5.9597    1.2189    3.9953 C   0  0  0  0  0  0  0  0  0  0  0  0
   -6.9529    0.3611    3.2361 C   0  0  0  0  0  0  0  0  0  0  0  0
   -6.2793   -0.6717    2.4322 N   0  0  0  0  0  0  0  0  0  0  0  0
   -7.2194   -1.2633    1.5017 C   0  0  0  0  0  0  0  0  0  0  0  0
   -8.1893   -2.2599    2.1349 C   0  0  0  0  0  0  0  0  0  0  0  0
   -7.9577   -3.5703    1.3975 C   0  0  0  0  0  0  0  0  0  0  0  0
   -7.1766   -3.1761    0.1525 C   0  0  0  0  0  0  0  0  0  0  0  0
   -8.0246   -2.8386   -1.0423 C   0  0  0  0  0  0  0  0  0  0  0  0
   -9.1414   -2.0956   -0.9783 N   0  0  0  0  0  0  0  0  0  0  0  0
   -9.5738   -2.0479   -2.3028 O   0  0  0  0  0  0  0  0  0  0  0  0
   -8.6795   -2.7792   -3.0304 C   0  0  0  0  0  0  0  0  0  0  0  0
   -8.9128   -2.8859   -4.4974 C   0  0  0  0  0  0  0  0  0  0  0  0
  -10.2421   -3.5774   -4.7943 C   0  0  0  0  0  0  0  0  0  0  0  0
   -8.8483   -1.5138   -5.1656 C   0  0  0  0  0  0  0  0  0  0  0  0
   -7.7178   -3.2995   -2.3026 N   0  0  0  0  0  0  0  0  0  0  0  0
   -6.3703   -2.0166    0.5954 N   0  0  0  0  0  0  0  0  0  0  0  0
   -5.6672    1.0738    5.3643 C   0  0  0  0  0  0  0  0  0  0  0  0
   -6.3020    0.0402    6.2104 C   0  0  0  0  0  0  0  0  0  0  0  0
   -7.0977    0.3608    7.4046 C   0  0  0  0  0  0  0  0  0  0  0  0
   -7.8145   -0.5728    8.0592 C   0  0  0  0  0  0  0  0  0  0  0  0
   -7.8179   -1.9073    7.5802 C   0  0  0  0  0  0  0  0  0  0  0  0
   -8.4476   -2.9938    7.9616 N   0  0  0  0  0  0  0  0  0  0  0  0
   -8.1370   -3.9985    7.0761 N   0  0  0  0  0  0  0  0  0  0  0  0
   -7.3143   -3.5090    6.1792 C   0  0  0  0  0  0  0  0  0  0  0  0
   -6.8567   -4.1369    5.0745 N   0  0  0  0  0  0  0  0  0  0  0  0
   -7.0303   -2.1946    6.4803 N   0  0  0  0  0  0  0  0  0  0  0  0
   -6.2495   -1.2513    5.8226 C   0  0  0  0  0  0  0  0  0  0  0  0
   -4.8063    2.0013    5.9808 C   0  0  0  0  0  0  0  0  0  0  0  0
   -4.2310    3.0698    5.2714 C   0  0  0  0  0  0  0  0  0  0  0  0
   -3.4284    4.0072    5.8616 O   0  0  0  0  0  0  0  0  0  0  0  0
   -3.3357    4.0174    7.2783 C   0  0  0  0  0  0  0  0  0  0  0  0
   -2.9494    5.8007    2.6159 H   0  0  0  0  0  0  0  0  0  0  0  0
   -2.2442    4.7859    3.8673 H   0  0  0  0  0  0  0  0  0  0  0  0
   -3.7150    5.7959    4.2008 H   0  0  0  0  0  0  0  0  0  0  0  0
   -5.5403    2.3784    2.2190 H   0  0  0  0  0  0  0  0  0  0  0  0
   -7.6931   -0.0808    3.9105 H   0  0  0  0  0  0  0  0  0  0  0  0
   -7.5302    1.0341    2.5861 H   0  0  0  0  0  0  0  0  0  0  0  0
   -5.5881   -0.1941    1.8525 H   0  0  0  0  0  0  0  0  0  0  0  0
   -7.7596   -0.4965    0.9331 H   0  0  0  0  0  0  0  0  0  0  0  0
   -9.2213   -1.9168    1.9961 H   0  0  0  0  0  0  0  0  0  0  0  0
   -8.0405   -2.3957    3.2101 H   0  0  0  0  0  0  0  0  0  0  0  0
   -7.3444   -4.2281    2.0260 H   0  0  0  0  0  0  0  0  0  0  0  0
   -8.8961   -4.0931    1.1857 H   0  0  0  0  0  0  0  0  0  0  0  0
   -6.5044   -3.9931   -0.1368 H   0  0  0  0  0  0  0  0  0  0  0  0
   -8.1107   -3.5039   -4.9209 H   0  0  0  0  0  0  0  0  0  0  0  0
  -10.2808   -4.5687   -4.3288 H   0  0  0  0  0  0  0  0  0  0  0  0
  -11.0922   -2.9994   -4.4142 H   0  0  0  0  0  0  0  0  0  0  0  0
  -10.3791   -3.7073   -5.8731 H   0  0  0  0  0  0  0  0  0  0  0  0
   -9.6395   -0.8489   -4.8009 H   0  0  0  0  0  0  0  0  0  0  0  0
   -7.8875   -1.0258   -4.9665 H   0  0  0  0  0  0  0  0  0  0  0  0
   -8.9598   -1.6055   -6.2513 H   0  0  0  0  0  0  0  0  0  0  0  0
   -5.6076   -2.3733    1.1626 H   0  0  0  0  0  0  0  0  0  0  0  0
   -7.1153    1.3912    7.7495 H   0  0  0  0  0  0  0  0  0  0  0  0
   -8.4119   -0.3319    8.9316 H   0  0  0  0  0  0  0  0  0  0  0  0
   -5.8809   -4.0174    4.8388 H   0  0  0  0  0  0  0  0  0  0  0  0
   -7.1073   -5.1313    5.0921 H   0  0  0  0  0  0  0  0  0  0  0  0
   -5.7074   -1.5956    4.9516 H   0  0  0  0  0  0  0  0  0  0  0  0
   -4.6062    1.8745    7.0410 H   0  0  0  0  0  0  0  0  0  0  0  0
   -2.7123    4.8681    7.5688 H   0  0  0  0  0  0  0  0  0  0  0  0
   -4.3192    4.1466    7.7419 H   0  0  0  0  0  0  0  0  0  0  0  0
   -2.8468    3.1067    7.6302 H   0  0  0  0  0  0  0  0  0  0  0  0
  1  2  1  0
  2  3  1  0
  3  4  2  0
  4  5  1  0
  5  6  1  0
  6  7  1  0
  7  8  1  0
  8  9  1  0
  9 10  1  0
 10 11  1  0
 11 12  1  0
 12 13  2  0
 13 14  1  0
 14 15  1  0
 15 16  1  0
 16 17  1  0
 16 18  1  0
 15 19  2  0
 11 20  1  0
  5 21  2  0
 21 22  1  0
 22 23  1  0
 23 24  2  0
 24 25  1  0
 25 26  2  0
 26 27  1  0
 27 28  2  0
 28 29  1  0
 28 30  1  0
 30 31  1  0
 21 32  1  0
 32 33  2  0
 33 34  1  0
 34 35  1  0
 33  3  1  0
 20  8  1  0
 31 22  2  0
 19 12  1  0
 30 25  1  0
  1 36  1  0
  1 37  1  0
  1 38  1  0
  4 39  1  0
  6 40  1  0
  6 41  1  0
  7 42  1  0
  8 43  1  0
  9 44  1  0
  9 45  1  0
 10 46  1  0
 10 47  1  0
 11 48  1  0
 16 49  1  0
 17 50  1  0
 17 51  1  0
 17 52  1  0
 18 53  1  0
 18 54  1  0
 18 55  1  0
 20 56  1  0
 23 57  1  0
 24 58  1  0
 29 59  1  0
 29 60  1  0
 31 61  1  0
 32 62  1  0
 35 63  1  0
 35 64  1  0
 35 65  1  0
M  END
>  <Energy>  (528) 
43.501570947849899

>  <compound_id>  (528) 
823

>  <target_id>  (528) 
1

>  <reference_id>  (528) 
24

>  <inspiration_ids>  (528) 
[69, 24]

>  <energy_score>  (528) 
-80.90432930126397

>  <distance_score>  (528) 
2.1673049833818485

>  <path>  (528) 
/opt/xchem-fragalysis-2/maxwin/BulkDock/SCRATCH/505733/C823-P24/C823-P24.minimised.mol

>  <scratch_subdir>  (528) 
/opt/xchem-fragalysis-2/maxwin/BulkDock/SCRATCH/505733/C823-P24

>  <fragmenstein_runtime>  (528) 
13.624430894851685

>  <fragmenstein_outcome>  (528) 
too moved

>  <fragmenstein_mode>  (528) 
expansion

>  <fragmenstein_error>  (528) 


$$$$
C824-P69
     RDKit          3D

 47 49  0  0  0  0  0  0  0  0999 V2000
   -8.7329   -3.4231    2.2903 C   0  0  0  0  0  0  0  0  0  0  0  0
   -8.2478   -2.0458    2.7332 C   0  0  0  0  0  0  0  0  0  0  0  0
   -9.4316   -1.1963    3.2095 C   0  0  0  0  0  0  0  0  0  0  0  0
   -7.2324   -2.1593    3.8075 C   0  0  0  0  0  0  0  0  0  0  0  0
   -7.3679   -1.8761    5.0747 N   0  0  0  0  0  0  0  0  0  0  0  0
   -6.1214   -2.1370    5.5707 C   0  0  0  0  0  0  0  0  0  0  0  0
   -5.8410   -1.9598    7.0240 C   0  0  0  0  0  0  0  0  0  0  0  0
   -6.9389   -1.1484    7.7390 C   0  0  0  0  0  0  0  0  0  0  0  0
   -6.3317    0.2434    7.9294 C   0  0  0  0  0  0  0  0  0  0  0  0
   -6.5212    1.1147    6.6452 C   0  0  0  0  0  0  0  0  0  0  0  0
   -6.0094    2.5597    6.6423 N   0  0  0  0  0  0  0  0  0  0  0  0
   -7.3900    2.8199    7.2012 C   0  0  0  0  0  0  0  0  0  0  0  0
   -5.7414    3.4555    5.5539 C   0  0  0  0  0  0  0  0  0  0  0  0
   -5.9361    3.3295    4.3704 O   0  0  0  0  0  0  0  0  0  0  0  0
   -4.9951    4.7308    5.9752 C   0  0  0  0  0  0  0  0  0  0  0  0
   -5.0167    5.0904    7.3729 N   0  0  0  0  0  0  0  0  0  0  0  0
   -4.1189    4.7377    8.3299 C   0  0  0  0  0  0  0  0  0  0  0  0
   -4.4728    5.2813    9.4727 N   0  0  0  0  0  0  0  0  0  0  0  0
   -5.5856    6.0568    9.2430 N   0  0  0  0  0  0  0  0  0  0  0  0
   -5.8765    5.9625    7.9677 C   0  0  0  0  0  0  0  0  0  0  0  0
   -4.8996   -0.1680    8.2405 C   0  0  0  0  0  0  0  0  0  0  0  0
   -4.6008   -1.1876    7.2441 N   0  0  0  0  0  0  0  0  0  0  0  0
   -5.2376   -2.5893    4.6690 N   0  0  0  0  0  0  0  0  0  0  0  0
   -5.9793   -2.5889    3.4790 O   0  0  0  0  0  0  0  0  0  0  0  0
   -9.4527   -3.3361    1.4694 H   0  0  0  0  0  0  0  0  0  0  0  0
   -9.2230   -3.9563    3.1125 H   0  0  0  0  0  0  0  0  0  0  0  0
   -7.8996   -4.0420    1.9396 H   0  0  0  0  0  0  0  0  0  0  0  0
   -7.7895   -1.5429    1.8727 H   0  0  0  0  0  0  0  0  0  0  0  0
   -9.9452   -1.6571    4.0613 H   0  0  0  0  0  0  0  0  0  0  0  0
  -10.1638   -1.0713    2.4044 H   0  0  0  0  0  0  0  0  0  0  0  0
   -9.1011   -0.1980    3.5183 H   0  0  0  0  0  0  0  0  0  0  0  0
   -5.7575   -2.9590    7.4532 H   0  0  0  0  0  0  0  0  0  0  0  0
   -7.9141   -1.1152    7.2450 H   0  0  0  0  0  0  0  0  0  0  0  0
   -7.1151   -1.5792    8.7304 H   0  0  0  0  0  0  0  0  0  0  0  0
   -6.7966    0.7033    8.8021 H   0  0  0  0  0  0  0  0  0  0  0  0
   -7.4917    0.9445    6.1452 H   0  0  0  0  0  0  0  0  0  0  0  0
   -5.8567    0.6847    5.8807 H   0  0  0  0  0  0  0  0  0  0  0  0
   -7.4368    3.8959    7.4030 H   0  0  0  0  0  0  0  0  0  0  0  0
   -8.1971    2.7022    6.4605 H   0  0  0  0  0  0  0  0  0  0  0  0
   -7.6120    2.3807    8.1769 H   0  0  0  0  0  0  0  0  0  0  0  0
   -5.4250    5.5732    5.4202 H   0  0  0  0  0  0  0  0  0  0  0  0
   -3.9472    4.6291    5.6754 H   0  0  0  0  0  0  0  0  0  0  0  0
   -3.2544    4.1091    8.1658 H   0  0  0  0  0  0  0  0  0  0  0  0
   -6.6789    6.4756    7.4568 H   0  0  0  0  0  0  0  0  0  0  0  0
   -4.8419   -0.6130    9.2373 H   0  0  0  0  0  0  0  0  0  0  0  0
   -4.1997    0.6637    8.2452 H   0  0  0  0  0  0  0  0  0  0  0  0
   -3.8451   -1.8022    7.5387 H   0  0  0  0  0  0  0  0  0  0  0  0
  1  2  1  0
  2  3  1  0
  2  4  1  0
  4  5  2  0
  5  6  1  0
  6  7  1  0
  7  8  1  0
  8  9  1  0
  9 10  1  0
 10 11  1  0
 11 12  1  0
 11 13  1  0
 13 14  2  0
 13 15  1  0
 15 16  1  0
 16 17  1  0
 17 18  2  0
 18 19  1  0
 19 20  2  0
  9 21  1  0
 21 22  1  0
  6 23  2  0
 23 24  1  0
 24  4  1  0
 22  7  1  0
 20 16  1  0
  1 25  1  0
  1 26  1  0
  1 27  1  0
  2 28  1  0
  3 29  1  0
  3 30  1  0
  3 31  1  0
  7 32  1  0
  8 33  1  0
  8 34  1  0
  9 35  1  0
 10 36  1  0
 10 37  1  0
 12 38  1  0
 12 39  1  0
 12 40  1  0
 15 41  1  0
 15 42  1  0
 17 43  1  0
 20 44  1  0
 21 45  1  0
 21 46  1  0
 22 47  1  0
M  END
>  <Energy>  (529) 
113.83245680117082

>  <compound_id>  (529) 
824

>  <target_id>  (529) 
1

>  <reference_id>  (529) 
69

>  <inspiration_ids>  (529) 
[69, 33]

>  <energy_score>  (529) 
18.71232094755561

>  <distance_score>  (529) 
2.413034103584432

>  <path>  (529) 
/opt/xchem-fragalysis-2/maxwin/BulkDock/SCRATCH/505733/C824-P69/C824-P69.minimised.mol

>  <scratch_subdir>  (529) 
/opt/xchem-fragalysis-2/maxwin/BulkDock/SCRATCH/505733/C824-P69

>  <fragmenstein_runtime>  (529) 
5.671125650405884

>  <fragmenstein_outcome>  (529) 
too moved

>  <fragmenstein_mode>  (529) 
expansion

>  <fragmenstein_error>  (529) 


$$$$
C824-P33
     RDKit          3D

 47 49  0  0  0  0  0  0  0  0999 V2000
   -9.7295   -4.1457    5.9221 C   0  0  0  0  0  0  0  0  0  0  0  0
   -8.7803   -3.0837    5.4072 C   0  0  0  0  0  0  0  0  0  0  0  0
   -9.4183   -2.2128    4.3319 C   0  0  0  0  0  0  0  0  0  0  0  0
   -8.3331   -2.2357    6.5246 C   0  0  0  0  0  0  0  0  0  0  0  0
   -7.1347   -1.7789    6.7756 N   0  0  0  0  0  0  0  0  0  0  0  0
   -7.3784   -0.9622    7.8502 C   0  0  0  0  0  0  0  0  0  0  0  0
   -6.3848    0.0009    8.3982 C   0  0  0  0  0  0  0  0  0  0  0  0
   -6.4955    1.3233    7.6553 C   0  0  0  0  0  0  0  0  0  0  0  0
   -5.5032    1.1976    6.5014 C   0  0  0  0  0  0  0  0  0  0  0  0
   -6.2410    1.1934    5.1334 C   0  0  0  0  0  0  0  0  0  0  0  0
   -6.6334    2.6468    4.9299 N   0  0  0  0  0  0  0  0  0  0  0  0
   -7.3262    2.0641    3.7223 C   0  0  0  0  0  0  0  0  0  0  0  0
   -5.8538    3.7752    4.5509 C   0  0  0  0  0  0  0  0  0  0  0  0
   -4.7024    3.8503    4.2069 O   0  0  0  0  0  0  0  0  0  0  0  0
   -6.6634    5.0496    4.7364 C   0  0  0  0  0  0  0  0  0  0  0  0
   -6.4266    5.5702    6.0646 N   0  0  0  0  0  0  0  0  0  0  0  0
   -5.2591    6.0673    6.5579 C   0  0  0  0  0  0  0  0  0  0  0  0
   -5.4285    6.3955    7.8181 N   0  0  0  0  0  0  0  0  0  0  0  0
   -6.7283    6.0953    8.1579 N   0  0  0  0  0  0  0  0  0  0  0  0
   -7.3123    5.5916    7.0960 C   0  0  0  0  0  0  0  0  0  0  0  0
   -4.6966   -0.0654    6.7890 C   0  0  0  0  0  0  0  0  0  0  0  0
   -4.9925   -0.4329    8.1750 N   0  0  0  0  0  0  0  0  0  0  0  0
   -8.6590   -0.8871    8.2294 N   0  0  0  0  0  0  0  0  0  0  0  0
   -9.2954   -1.7528    7.3587 O   0  0  0  0  0  0  0  0  0  0  0  0
  -10.1685   -4.7249    5.1099 H   0  0  0  0  0  0  0  0  0  0  0  0
  -10.5513   -3.7024    6.4918 H   0  0  0  0  0  0  0  0  0  0  0  0
   -9.1959   -4.8331    6.5867 H   0  0  0  0  0  0  0  0  0  0  0  0
   -7.9034   -3.5747    4.9693 H   0  0  0  0  0  0  0  0  0  0  0  0
  -10.3123   -1.6973    4.6999 H   0  0  0  0  0  0  0  0  0  0  0  0
   -9.7035   -2.8178    3.4669 H   0  0  0  0  0  0  0  0  0  0  0  0
   -8.7184   -1.4453    3.9811 H   0  0  0  0  0  0  0  0  0  0  0  0
   -6.5833    0.1150    9.4652 H   0  0  0  0  0  0  0  0  0  0  0  0
   -7.5164    1.5501    7.3257 H   0  0  0  0  0  0  0  0  0  0  0  0
   -6.1946    2.1616    8.2804 H   0  0  0  0  0  0  0  0  0  0  0  0
   -4.8252    2.0591    6.5578 H   0  0  0  0  0  0  0  0  0  0  0  0
   -7.0782    0.4878    5.2335 H   0  0  0  0  0  0  0  0  0  0  0  0
   -5.5015    0.8621    4.3895 H   0  0  0  0  0  0  0  0  0  0  0  0
   -7.7944    2.9195    3.2121 H   0  0  0  0  0  0  0  0  0  0  0  0
   -6.6506    1.6588    2.9531 H   0  0  0  0  0  0  0  0  0  0  0  0
   -8.1841    1.4185    3.9610 H   0  0  0  0  0  0  0  0  0  0  0  0
   -7.7362    4.8739    4.6107 H   0  0  0  0  0  0  0  0  0  0  0  0
   -6.3480    5.8030    4.0078 H   0  0  0  0  0  0  0  0  0  0  0  0
   -4.3426    6.1594    5.9904 H   0  0  0  0  0  0  0  0  0  0  0  0
   -8.3321    5.2384    7.0379 H   0  0  0  0  0  0  0  0  0  0  0  0
   -3.6266    0.1193    6.7003 H   0  0  0  0  0  0  0  0  0  0  0  0
   -4.9325   -0.8823    6.1002 H   0  0  0  0  0  0  0  0  0  0  0  0
   -4.3885    0.1014    8.8000 H   0  0  0  0  0  0  0  0  0  0  0  0
  1  2  1  0
  2  3  1  0
  2  4  1  0
  4  5  2  0
  5  6  1  0
  6  7  1  0
  7  8  1  0
  8  9  1  0
  9 10  1  0
 10 11  1  0
 11 12  1  0
 11 13  1  0
 13 14  2  0
 13 15  1  0
 15 16  1  0
 16 17  1  0
 17 18  2  0
 18 19  1  0
 19 20  2  0
  9 21  1  0
 21 22  1  0
  6 23  2  0
 23 24  1  0
 24  4  1  0
 22  7  1  0
 20 16  1  0
  1 25  1  0
  1 26  1  0
  1 27  1  0
  2 28  1  0
  3 29  1  0
  3 30  1  0
  3 31  1  0
  7 32  1  0
  8 33  1  0
  8 34  1  0
  9 35  1  0
 10 36  1  0
 10 37  1  0
 12 38  1  0
 12 39  1  0
 12 40  1  0
 15 41  1  0
 15 42  1  0
 17 43  1  0
 20 44  1  0
 21 45  1  0
 21 46  1  0
 22 47  1  0
M  END
>  <Energy>  (530) 
105.52912265326542

>  <compound_id>  (530) 
824

>  <target_id>  (530) 
1

>  <reference_id>  (530) 
33

>  <inspiration_ids>  (530) 
[69, 33]

>  <energy_score>  (530) 
10.408986799652325

>  <distance_score>  (530) 
2.7181734827913053

>  <path>  (530) 
/opt/xchem-fragalysis-2/maxwin/BulkDock/SCRATCH/505733/C824-P33/C824-P33.minimised.mol

>  <scratch_subdir>  (530) 
/opt/xchem-fragalysis-2/maxwin/BulkDock/SCRATCH/505733/C824-P33

>  <fragmenstein_runtime>  (530) 
7.030912399291992

>  <fragmenstein_outcome>  (530) 
too moved

>  <fragmenstein_mode>  (530) 
expansion

>  <fragmenstein_error>  (530) 


$$$$
C824-P69
     RDKit          2D

  0  0  0  0  0  0  0  0  0  0999 V2000
M  END
>  <compound_id>  (531) 
824

>  <target_id>  (531) 
1

>  <reference_id>  (531) 
69

>  <inspiration_ids>  (531) 
[69, 51]

>  <energy_score>  (531) 
nan

>  <distance_score>  (531) 
nan

>  <path>  (531) 
/opt/xchem-fragalysis-2/maxwin/BulkDock/SCRATCH/505733/C824-P69/C824-P69.minimised.mol

>  <scratch_subdir>  (531) 
/opt/xchem-fragalysis-2/maxwin/BulkDock/SCRATCH/505733/C824-P69

>  <fragmenstein_runtime>  (531) 
24.55140447616577

>  <fragmenstein_outcome>  (531) 
crashed

>  <fragmenstein_mode>  (531) 
expansion

>  <fragmenstein_error>  (531) 
PoisonError: None has poison atoms [8, 9, 10, 8, 9, 10, 8, 9, 10, 8, 9, 10, 8, 9, 10, 8, 9, 10, 8, 9, 10, 8, 9, 10, 8, 0, 20, 21, 8, 0, 20, 21, 8, 0, 20, 21, 8, 0, 20, 21, 8, 0, 20, 21, 8, 0, 20, 21, 8, 0, 20, 21, 8, 0, 20, 21]

$$$$
C825-P69
     RDKit          3D

 64 68  0  0  0  0  0  0  0  0999 V2000
  -11.4081   -3.0931    6.4431 C   0  0  0  0  0  0  0  0  0  0  0  0
  -11.1584   -1.8017    5.9191 N   0  0  0  0  0  0  0  0  0  0  0  0
  -12.0386   -0.6948    5.6868 C   0  0  0  0  0  0  0  0  0  0  0  0
  -13.2213   -0.6016    5.8010 O   0  0  0  0  0  0  0  0  0  0  0  0
  -11.1956    0.4758    5.3434 C   0  0  0  0  0  0  0  0  0  0  0  0
  -10.5640    0.3641    4.1039 C   0  0  0  0  0  0  0  0  0  0  0  0
   -9.2072    0.6303    4.0319 C   0  0  0  0  0  0  0  0  0  0  0  0
   -8.4965    1.0218    5.1818 C   0  0  0  0  0  0  0  0  0  0  0  0
   -7.0422    0.7463    5.1684 C   0  0  0  0  0  0  0  0  0  0  0  0
   -6.2173    0.7932    3.9496 C   0  0  0  0  0  0  0  0  0  0  0  0
   -5.1064    0.0459    3.8121 C   0  0  0  0  0  0  0  0  0  0  0  0
   -4.6604   -0.7254    4.9128 C   0  0  0  0  0  0  0  0  0  0  0  0
   -3.6715   -1.5683    5.0746 N   0  0  0  0  0  0  0  0  0  0  0  0
   -3.5989   -1.8744    6.4226 N   0  0  0  0  0  0  0  0  0  0  0  0
   -4.5440   -1.2144    7.0471 C   0  0  0  0  0  0  0  0  0  0  0  0
   -4.7112   -1.0590    8.3757 N   0  0  0  0  0  0  0  0  0  0  0  0
   -5.3277   -0.5721    6.1145 N   0  0  0  0  0  0  0  0  0  0  0  0
   -6.5274    0.1121    6.2436 C   0  0  0  0  0  0  0  0  0  0  0  0
   -9.2024    1.3587    6.3554 C   0  0  0  0  0  0  0  0  0  0  0  0
  -10.5736    1.0834    6.4528 C   0  0  0  0  0  0  0  0  0  0  0  0
  -11.3467    1.2619    7.7454 C   0  0  0  0  0  0  0  0  0  0  0  0
  -11.3195    0.0810    8.6014 N   0  0  0  0  0  0  0  0  0  0  0  0
  -12.1955    0.2164    9.7713 C   0  0  0  0  0  0  0  0  0  0  0  0
  -13.5184   -0.5166    9.8319 C   0  0  0  0  0  0  0  0  0  0  0  0
  -13.7931   -0.5966   11.2870 N   0  0  0  0  0  0  0  0  0  0  0  0
  -12.4932   -0.8651   12.0000 C   0  0  0  0  0  0  0  0  0  0  0  0
  -12.2621   -2.3971   12.5757 C   0  0  0  0  0  0  0  0  0  0  0  0
  -10.9059   -3.0083   13.5614 N   0  0  0  0  0  0  0  0  0  0  0  0
  -11.0464   -4.9705   13.4675 O   0  0  0  0  0  0  0  0  0  0  0  0
  -12.9854   -5.4549   13.5330 C   0  0  0  0  0  0  0  0  0  0  0  0
  -14.3246   -5.3683   13.3482 C   0  0  0  0  0  0  0  0  0  0  0  0
  -13.4402   -6.2912   11.6166 C   0  0  0  0  0  0  0  0  0  0  0  0
  -15.6070   -4.4670   13.3998 C   0  0  0  0  0  0  0  0  0  0  0  0
  -13.7165   -3.9668   12.6601 N   0  0  0  0  0  0  0  0  0  0  0  0
  -11.4712   -0.3925   10.9543 C   0  0  0  0  0  0  0  0  0  0  0  0
  -10.5651   -3.3442    7.0871 H   0  0  0  0  0  0  0  0  0  0  0  0
  -12.3404   -3.0775    7.0053 H   0  0  0  0  0  0  0  0  0  0  0  0
  -11.4308   -3.8004    5.6145 H   0  0  0  0  0  0  0  0  0  0  0  0
  -10.1994   -1.4938    5.7979 H   0  0  0  0  0  0  0  0  0  0  0  0
  -11.0614   -0.1429    3.2784 H   0  0  0  0  0  0  0  0  0  0  0  0
   -8.6969    0.3613    3.1092 H   0  0  0  0  0  0  0  0  0  0  0  0
   -6.5522    1.4227    3.1293 H   0  0  0  0  0  0  0  0  0  0  0  0
   -4.5206    0.0495    2.9002 H   0  0  0  0  0  0  0  0  0  0  0  0
   -5.2132   -0.2595    8.7390 H   0  0  0  0  0  0  0  0  0  0  0  0
   -3.8918   -1.2797    8.9438 H   0  0  0  0  0  0  0  0  0  0  0  0
   -7.0451   -0.0347    7.1838 H   0  0  0  0  0  0  0  0  0  0  0  0
   -8.6744    1.7047    7.2419 H   0  0  0  0  0  0  0  0  0  0  0  0
  -12.3800    1.5380    7.4970 H   0  0  0  0  0  0  0  0  0  0  0  0
  -10.9212    2.1188    8.2831 H   0  0  0  0  0  0  0  0  0  0  0  0
  -11.6022   -0.7502    8.0780 H   0  0  0  0  0  0  0  0  0  0  0  0
  -12.3772    1.2798    9.9900 H   0  0  0  0  0  0  0  0  0  0  0  0
  -13.4321   -1.5088    9.3843 H   0  0  0  0  0  0  0  0  0  0  0  0
  -14.3136    0.0248    9.3113 H   0  0  0  0  0  0  0  0  0  0  0  0
  -14.5033   -1.3091   11.4431 H   0  0  0  0  0  0  0  0  0  0  0  0
  -12.4521   -0.2240   12.8892 H   0  0  0  0  0  0  0  0  0  0  0  0
  -14.2310   -5.6496   14.3721 H   0  0  0  0  0  0  0  0  0  0  0  0
  -13.5134   -7.4166   11.4704 H   0  0  0  0  0  0  0  0  0  0  0  0
  -14.1299   -6.2488   10.8599 H   0  0  0  0  0  0  0  0  0  0  0  0
  -12.4897   -6.0480   11.2185 H   0  0  0  0  0  0  0  0  0  0  0  0
  -15.6274   -3.6254   12.7064 H   0  0  0  0  0  0  0  0  0  0  0  0
  -16.4092   -5.1918   13.3001 H   0  0  0  0  0  0  0  0  0  0  0  0
  -15.8143   -3.8603   14.2958 H   0  0  0  0  0  0  0  0  0  0  0  0
  -10.9222    0.4810   11.3007 H   0  0  0  0  0  0  0  0  0  0  0  0
  -10.7828   -1.1957   10.6700 H   0  0  0  0  0  0  0  0  0  0  0  0
  1  2  1  0
  2  3  1  0
  3  4  2  0
  3  5  1  0
  5  6  2  0
  6  7  1  0
  7  8  2  0
  8  9  1  0
  9 10  1  0
 10 11  2  0
 11 12  1  0
 12 13  2  0
 13 14  1  0
 14 15  2  0
 15 16  1  0
 15 17  1  0
 17 18  1  0
  8 19  1  0
 19 20  2  0
 20 21  1  0
 21 22  1  0
 22 23  1  0
 23 24  1  0
 24 25  1  0
 25 26  1  0
 26 27  1  0
 27 28  2  0
 28 29  1  0
 29 30  1  0
 30 31  1  0
 31 32  1  0
 31 33  1  0
 30 34  2  0
 26 35  1  0
 20  5  1  0
 35 23  1  0
 18  9  2  0
 34 27  1  0
 17 12  1  0
  1 36  1  0
  1 37  1  0
  1 38  1  0
  2 39  1  0
  6 40  1  0
  7 41  1  0
 10 42  1  0
 11 43  1  0
 16 44  1  0
 16 45  1  0
 18 46  1  0
 19 47  1  0
 21 48  1  0
 21 49  1  0
 22 50  1  0
 23 51  1  0
 24 52  1  0
 24 53  1  0
 25 54  1  0
 26 55  1  0
 31 56  1  0
 32 57  1  0
 32 58  1  0
 32 59  1  0
 33 60  1  0
 33 61  1  0
 33 62  1  0
 35 63  1  0
 35 64  1  0
M  END
>  <Energy>  (532) 
1073.8898687669766

>  <compound_id>  (532) 
825

>  <target_id>  (532) 
1

>  <reference_id>  (532) 
69

>  <inspiration_ids>  (532) 
[69, 73]

>  <energy_score>  (532) 
908.721931612595

>  <distance_score>  (532) 
4.146446684959955

>  <path>  (532) 
/opt/xchem-fragalysis-2/maxwin/BulkDock/SCRATCH/505733/C825-P69/C825-P69.minimised.mol

>  <scratch_subdir>  (532) 
/opt/xchem-fragalysis-2/maxwin/BulkDock/SCRATCH/505733/C825-P69

>  <fragmenstein_runtime>  (532) 
20.823225736618042

>  <fragmenstein_outcome>  (532) 
too moved

>  <fragmenstein_mode>  (532) 
expansion

>  <fragmenstein_error>  (532) 


$$$$
C825-P73
     RDKit          3D

 64 68  0  0  0  0  0  0  0  0999 V2000
   -8.5275   -4.1018    7.3229 C   0  0  0  0  0  0  0  0  0  0  0  0
   -9.0571   -2.9822    6.6158 N   0  0  0  0  0  0  0  0  0  0  0  0
  -10.2983   -2.8125    5.9161 C   0  0  0  0  0  0  0  0  0  0  0  0
  -11.2383   -3.5355    5.8122 O   0  0  0  0  0  0  0  0  0  0  0  0
  -10.2643   -1.5327    5.1537 C   0  0  0  0  0  0  0  0  0  0  0  0
   -9.6049   -1.6894    3.9365 C   0  0  0  0  0  0  0  0  0  0  0  0
   -8.5419   -0.8526    3.6571 C   0  0  0  0  0  0  0  0  0  0  0  0
   -8.1577    0.1055    4.6109 C   0  0  0  0  0  0  0  0  0  0  0  0
   -6.6925    0.1749    4.8744 C   0  0  0  0  0  0  0  0  0  0  0  0
   -5.6941   -0.2066    3.8651 C   0  0  0  0  0  0  0  0  0  0  0  0
   -4.5705   -0.8632    4.2007 C   0  0  0  0  0  0  0  0  0  0  0  0
   -4.2617   -1.0392    5.5715 C   0  0  0  0  0  0  0  0  0  0  0  0
   -3.2774   -1.6339    6.1933 N   0  0  0  0  0  0  0  0  0  0  0  0
   -3.4109   -1.4145    7.5366 N   0  0  0  0  0  0  0  0  0  0  0  0
   -4.4941   -0.7005    7.7184 C   0  0  0  0  0  0  0  0  0  0  0  0
   -4.9815   -0.2518    8.8858 N   0  0  0  0  0  0  0  0  0  0  0  0
   -5.0937   -0.4560    6.5013 N   0  0  0  0  0  0  0  0  0  0  0  0
   -6.3114    0.1224    6.1734 C   0  0  0  0  0  0  0  0  0  0  0  0
   -9.0801    0.5036    5.5905 C   0  0  0  0  0  0  0  0  0  0  0  0
  -10.1452   -0.3477    5.8962 C   0  0  0  0  0  0  0  0  0  0  0  0
  -11.0078   -0.1084    7.1053 C   0  0  0  0  0  0  0  0  0  0  0  0
  -10.3765   -0.5955    8.3256 N   0  0  0  0  0  0  0  0  0  0  0  0
  -11.1758   -0.2576    9.5085 C   0  0  0  0  0  0  0  0  0  0  0  0
  -12.6545   -0.6419    9.5133 C   0  0  0  0  0  0  0  0  0  0  0  0
  -13.0164   -0.6223   10.9283 N   0  0  0  0  0  0  0  0  0  0  0  0
  -11.7905   -1.0380   11.7344 C   0  0  0  0  0  0  0  0  0  0  0  0
  -11.8852   -2.3924   12.7668 C   0  0  0  0  0  0  0  0  0  0  0  0
  -10.8073   -3.7181   13.7222 N   0  0  0  0  0  0  0  0  0  0  0  0
  -12.1724   -5.4078   13.7924 O   0  0  0  0  0  0  0  0  0  0  0  0
  -13.9556   -4.7871   13.5337 C   0  0  0  0  0  0  0  0  0  0  0  0
  -15.4151   -5.5909   12.8174 C   0  0  0  0  0  0  0  0  0  0  0  0
  -14.0134   -6.3194   11.3500 C   0  0  0  0  0  0  0  0  0  0  0  0
  -17.3384   -5.6918   13.2733 C   0  0  0  0  0  0  0  0  0  0  0  0
  -13.7299   -3.3920   12.5976 N   0  0  0  0  0  0  0  0  0  0  0  0
  -10.6374   -0.9845   10.7323 C   0  0  0  0  0  0  0  0  0  0  0  0
   -8.7141   -3.9597    8.3871 H   0  0  0  0  0  0  0  0  0  0  0  0
   -8.9993   -5.0133    6.9647 H   0  0  0  0  0  0  0  0  0  0  0  0
   -7.4512   -4.1477    7.1434 H   0  0  0  0  0  0  0  0  0  0  0  0
   -8.4542   -2.1925    6.4167 H   0  0  0  0  0  0  0  0  0  0  0  0
   -9.7276   -2.6004    3.3614 H   0  0  0  0  0  0  0  0  0  0  0  0
   -7.8946   -1.1399    2.8323 H   0  0  0  0  0  0  0  0  0  0  0  0
   -5.9080    0.0058    2.8213 H   0  0  0  0  0  0  0  0  0  0  0  0
   -3.8518   -1.1744    3.4541 H   0  0  0  0  0  0  0  0  0  0  0  0
   -5.5926    0.5531    8.9175 H   0  0  0  0  0  0  0  0  0  0  0  0
   -4.3339   -0.3153    9.6736 H   0  0  0  0  0  0  0  0  0  0  0  0
   -6.9579    0.3104    7.0214 H   0  0  0  0  0  0  0  0  0  0  0  0
   -8.8571    1.3228    6.2719 H   0  0  0  0  0  0  0  0  0  0  0  0
  -11.9808   -0.5871    6.9379 H   0  0  0  0  0  0  0  0  0  0  0  0
  -11.2002    0.9699    7.1794 H   0  0  0  0  0  0  0  0  0  0  0  0
  -10.3301   -1.6234    8.2741 H   0  0  0  0  0  0  0  0  0  0  0  0
  -11.0899    0.8237    9.6867 H   0  0  0  0  0  0  0  0  0  0  0  0
  -12.8155   -1.6308    9.0778 H   0  0  0  0  0  0  0  0  0  0  0  0
  -13.2633    0.0735    8.9520 H   0  0  0  0  0  0  0  0  0  0  0  0
  -13.8591   -1.1643   11.1163 H   0  0  0  0  0  0  0  0  0  0  0  0
  -11.9618   -0.1908   12.3953 H   0  0  0  0  0  0  0  0  0  0  0  0
  -15.6058   -4.5400   12.7948 H   0  0  0  0  0  0  0  0  0  0  0  0
  -13.2778   -5.7739   10.8944 H   0  0  0  0  0  0  0  0  0  0  0  0
  -13.8559   -7.4271   11.1796 H   0  0  0  0  0  0  0  0  0  0  0  0
  -12.9704   -6.3705   11.8042 H   0  0  0  0  0  0  0  0  0  0  0  0
  -18.1819   -5.4613   12.5745 H   0  0  0  0  0  0  0  0  0  0  0  0
  -17.6260   -6.7531   13.4601 H   0  0  0  0  0  0  0  0  0  0  0  0
  -17.7185   -5.0015   14.0668 H   0  0  0  0  0  0  0  0  0  0  0  0
  -10.2893   -1.9762   10.5186 H   0  0  0  0  0  0  0  0  0  0  0  0
   -9.7088   -0.5062   11.0355 H   0  0  0  0  0  0  0  0  0  0  0  0
  1  2  1  0
  2  3  1  0
  3  4  2  0
  3  5  1  0
  5  6  2  0
  6  7  1  0
  7  8  2  0
  8  9  1  0
  9 10  1  0
 10 11  2  0
 11 12  1  0
 12 13  2  0
 13 14  1  0
 14 15  2  0
 15 16  1  0
 15 17  1  0
 17 18  1  0
  8 19  1  0
 19 20  2  0
 20 21  1  0
 21 22  1  0
 22 23  1  0
 23 24  1  0
 24 25  1  0
 25 26  1  0
 26 27  1  0
 27 28  2  0
 28 29  1  0
 29 30  1  0
 30 31  1  0
 31 32  1  0
 31 33  1  0
 30 34  2  0
 26 35  1  0
 20  5  1  0
 35 23  1  0
 18  9  2  0
 34 27  1  0
 17 12  1  0
  1 36  1  0
  1 37  1  0
  1 38  1  0
  2 39  1  0
  6 40  1  0
  7 41  1  0
 10 42  1  0
 11 43  1  0
 16 44  1  0
 16 45  1  0
 18 46  1  0
 19 47  1  0
 21 48  1  0
 21 49  1  0
 22 50  1  0
 23 51  1  0
 24 52  1  0
 24 53  1  0
 25 54  1  0
 26 55  1  0
 31 56  1  0
 32 57  1  0
 32 58  1  0
 32 59  1  0
 33 60  1  0
 33 61  1  0
 33 62  1  0
 35 63  1  0
 35 64  1  0
M  END
>  <Energy>  (533) 
1094.6151366853478

>  <compound_id>  (533) 
825

>  <target_id>  (533) 
1

>  <reference_id>  (533) 
73

>  <inspiration_ids>  (533) 
[69, 73]

>  <energy_score>  (533) 
929.4471995309779

>  <distance_score>  (533) 
3.579390044153115

>  <path>  (533) 
/opt/xchem-fragalysis-2/maxwin/BulkDock/SCRATCH/505733/C825-P73/C825-P73.minimised.mol

>  <scratch_subdir>  (533) 
/opt/xchem-fragalysis-2/maxwin/BulkDock/SCRATCH/505733/C825-P73

>  <fragmenstein_runtime>  (533) 
29.521876096725464

>  <fragmenstein_outcome>  (533) 
too moved

>  <fragmenstein_mode>  (533) 
expansion

>  <fragmenstein_error>  (533) 


$$$$
C827-P69
     RDKit          3D

 48 51  0  0  0  0  0  0  0  0999 V2000
   -4.5556   -5.5386   -0.7002 C   0  0  0  0  0  0  0  0  0  0  0  0
   -5.7574   -6.4215   -0.3711 C   0  0  0  0  0  0  0  0  0  0  0  0
   -6.0907   -7.3420   -1.5432 C   0  0  0  0  0  0  0  0  0  0  0  0
   -6.9400   -5.6011    0.0114 C   0  0  0  0  0  0  0  0  0  0  0  0
   -7.6745   -5.6426    1.1038 N   0  0  0  0  0  0  0  0  0  0  0  0
   -8.5895   -4.6360    0.8614 C   0  0  0  0  0  0  0  0  0  0  0  0
   -9.6671   -4.2557    1.8203 C   0  0  0  0  0  0  0  0  0  0  0  0
  -10.6242   -5.4006    2.1475 C   0  0  0  0  0  0  0  0  0  0  0  0
  -10.8813   -5.2817    3.6455 C   0  0  0  0  0  0  0  0  0  0  0  0
  -10.2497   -3.9524    4.0466 C   0  0  0  0  0  0  0  0  0  0  0  0
   -9.9827   -3.7370    5.5568 C   0  0  0  0  0  0  0  0  0  0  0  0
   -8.8982   -4.4683    6.2153 N   0  0  0  0  0  0  0  0  0  0  0  0
   -7.6063   -3.7953    6.1127 C   0  0  0  0  0  0  0  0  0  0  0  0
   -7.4111   -2.5442    6.9135 C   0  0  0  0  0  0  0  0  0  0  0  0
   -8.3544   -1.9500    7.6767 C   0  0  0  0  0  0  0  0  0  0  0  0
   -8.0970   -0.6837    8.3270 C   0  0  0  0  0  0  0  0  0  0  0  0
   -6.8831   -0.1243    8.2775 C   0  0  0  0  0  0  0  0  0  0  0  0
   -5.8367   -0.8087    7.6171 C   0  0  0  0  0  0  0  0  0  0  0  0
   -4.5453   -0.5884    7.5561 N   0  0  0  0  0  0  0  0  0  0  0  0
   -3.9844   -1.5517    6.7484 N   0  0  0  0  0  0  0  0  0  0  0  0
   -4.9493   -2.3502    6.3551 C   0  0  0  0  0  0  0  0  0  0  0  0
   -6.1388   -1.9636    6.9148 N   0  0  0  0  0  0  0  0  0  0  0  0
   -9.0976   -3.8675    3.1321 N   0  0  0  0  0  0  0  0  0  0  0  0
   -8.4422   -4.0129   -0.3156 N   0  0  0  0  0  0  0  0  0  0  0  0
   -7.3478   -4.6552   -0.8847 O   0  0  0  0  0  0  0  0  0  0  0  0
   -4.7310   -4.9313   -1.5954 H   0  0  0  0  0  0  0  0  0  0  0  0
   -3.6629   -6.1479   -0.8769 H   0  0  0  0  0  0  0  0  0  0  0  0
   -4.3412   -4.8531    0.1258 H   0  0  0  0  0  0  0  0  0  0  0  0
   -5.4869   -7.0394    0.4927 H   0  0  0  0  0  0  0  0  0  0  0  0
   -6.9530   -7.9773   -1.3122 H   0  0  0  0  0  0  0  0  0  0  0  0
   -6.3356   -6.7716   -2.4465 H   0  0  0  0  0  0  0  0  0  0  0  0
   -5.2429   -7.9947   -1.7770 H   0  0  0  0  0  0  0  0  0  0  0  0
  -10.2404   -3.4084    1.4195 H   0  0  0  0  0  0  0  0  0  0  0  0
  -10.2205   -6.3922    1.9124 H   0  0  0  0  0  0  0  0  0  0  0  0
  -11.5584   -5.2872    1.5852 H   0  0  0  0  0  0  0  0  0  0  0  0
  -11.9454   -5.3371    3.8446 H   0  0  0  0  0  0  0  0  0  0  0  0
  -10.4658   -6.1327    4.1796 H   0  0  0  0  0  0  0  0  0  0  0  0
  -10.9447   -3.1512    3.7574 H   0  0  0  0  0  0  0  0  0  0  0  0
  -10.9087   -3.9812    6.0849 H   0  0  0  0  0  0  0  0  0  0  0  0
   -9.8658   -2.6566    5.6897 H   0  0  0  0  0  0  0  0  0  0  0  0
   -8.7967   -5.3497    5.6920 H   0  0  0  0  0  0  0  0  0  0  0  0
   -7.3608   -3.5967    5.0640 H   0  0  0  0  0  0  0  0  0  0  0  0
   -6.8671   -4.5252    6.4575 H   0  0  0  0  0  0  0  0  0  0  0  0
   -9.3439   -2.3751    7.8213 H   0  0  0  0  0  0  0  0  0  0  0  0
   -8.9193   -0.1999    8.8456 H   0  0  0  0  0  0  0  0  0  0  0  0
   -6.6887    0.8292    8.7414 H   0  0  0  0  0  0  0  0  0  0  0  0
   -4.8380   -3.2067    5.7092 H   0  0  0  0  0  0  0  0  0  0  0  0
   -8.7607   -2.9072    3.0804 H   0  0  0  0  0  0  0  0  0  0  0  0
  1  2  1  0
  2  3  1  0
  2  4  1  0
  4  5  2  0
  5  6  1  0
  6  7  1  0
  7  8  1  0
  8  9  1  0
  9 10  1  0
 10 11  1  0
 11 12  1  0
 12 13  1  0
 13 14  1  0
 14 15  2  0
 15 16  1  0
 16 17  2  0
 17 18  1  0
 18 19  2  0
 19 20  1  0
 20 21  2  0
 21 22  1  0
 10 23  1  0
  6 24  2  0
 24 25  1  0
 25  4  1  0
 23  7  1  0
 22 14  1  0
 22 18  1  0
  1 26  1  0
  1 27  1  0
  1 28  1  0
  2 29  1  0
  3 30  1  0
  3 31  1  0
  3 32  1  0
  7 33  1  0
  8 34  1  0
  8 35  1  0
  9 36  1  0
  9 37  1  0
 10 38  1  0
 11 39  1  0
 11 40  1  0
 12 41  1  0
 13 42  1  0
 13 43  1  0
 15 44  1  0
 16 45  1  0
 17 46  1  0
 21 47  1  0
 23 48  1  0
M  END
>  <Energy>  (534) 
84.016720597417006

>  <compound_id>  (534) 
827

>  <target_id>  (534) 
1

>  <reference_id>  (534) 
69

>  <inspiration_ids>  (534) 
[69, 99]

>  <energy_score>  (534) 
-32.527425464485844

>  <distance_score>  (534) 
2.272135701630619

>  <path>  (534) 
/opt/xchem-fragalysis-2/maxwin/BulkDock/SCRATCH/505733/C827-P69/C827-P69.minimised.mol

>  <scratch_subdir>  (534) 
/opt/xchem-fragalysis-2/maxwin/BulkDock/SCRATCH/505733/C827-P69

>  <fragmenstein_runtime>  (534) 
65.89427256584167

>  <fragmenstein_outcome>  (534) 
too moved

>  <fragmenstein_mode>  (534) 
expansion

>  <fragmenstein_error>  (534) 


$$$$
C827-P99
     RDKit          3D

 48 51  0  0  0  0  0  0  0  0999 V2000
   -8.8935   -2.8471   -3.0215 C   0  0  0  0  0  0  0  0  0  0  0  0
   -9.5437   -3.7081   -1.9389 C   0  0  0  0  0  0  0  0  0  0  0  0
  -10.8137   -4.3719   -2.4620 C   0  0  0  0  0  0  0  0  0  0  0  0
   -9.8037   -2.9128   -0.7055 C   0  0  0  0  0  0  0  0  0  0  0  0
   -9.3513   -3.1065    0.5136 N   0  0  0  0  0  0  0  0  0  0  0  0
   -9.8439   -2.0045    1.1819 C   0  0  0  0  0  0  0  0  0  0  0  0
   -9.4876   -1.6780    2.5975 C   0  0  0  0  0  0  0  0  0  0  0  0
   -7.9828   -1.7661    2.8478 C   0  0  0  0  0  0  0  0  0  0  0  0
   -7.8406   -2.7858    3.9716 C   0  0  0  0  0  0  0  0  0  0  0  0
   -9.1661   -2.6763    4.7163 C   0  0  0  0  0  0  0  0  0  0  0  0
   -9.5987   -3.7591    5.7500 C   0  0  0  0  0  0  0  0  0  0  0  0
   -8.8108   -4.0871    6.9337 N   0  0  0  0  0  0  0  0  0  0  0  0
   -7.4410   -3.6562    6.9189 C   0  0  0  0  0  0  0  0  0  0  0  0
   -7.2065   -2.2107    7.2473 C   0  0  0  0  0  0  0  0  0  0  0  0
   -8.1557   -1.3647    7.7086 C   0  0  0  0  0  0  0  0  0  0  0  0
   -7.8394    0.0118    8.0233 C   0  0  0  0  0  0  0  0  0  0  0  0
   -6.5891    0.4734    7.9000 C   0  0  0  0  0  0  0  0  0  0  0  0
   -5.5693   -0.4073    7.4683 C   0  0  0  0  0  0  0  0  0  0  0  0
   -4.2726   -0.2502    7.3445 N   0  0  0  0  0  0  0  0  0  0  0  0
   -3.7442   -1.4194    6.8536 N   0  0  0  0  0  0  0  0  0  0  0  0
   -4.7323   -2.2716    6.7154 C   0  0  0  0  0  0  0  0  0  0  0  0
   -5.9095   -1.7038    7.1223 N   0  0  0  0  0  0  0  0  0  0  0  0
  -10.0670   -2.6431    3.5494 N   0  0  0  0  0  0  0  0  0  0  0  0
  -10.5826   -1.1775    0.4279 N   0  0  0  0  0  0  0  0  0  0  0  0
  -10.5660   -1.7863   -0.8280 O   0  0  0  0  0  0  0  0  0  0  0  0
   -9.5610   -2.0443   -3.3547 H   0  0  0  0  0  0  0  0  0  0  0  0
   -8.6353   -3.4536   -3.8962 H   0  0  0  0  0  0  0  0  0  0  0  0
   -7.9727   -2.3818   -2.6521 H   0  0  0  0  0  0  0  0  0  0  0  0
   -8.8343   -4.5043   -1.6782 H   0  0  0  0  0  0  0  0  0  0  0  0
  -11.2341   -5.0530   -1.7146 H   0  0  0  0  0  0  0  0  0  0  0  0
  -11.5823   -3.6330   -2.7147 H   0  0  0  0  0  0  0  0  0  0  0  0
  -10.6027   -4.9598   -3.3618 H   0  0  0  0  0  0  0  0  0  0  0  0
   -9.8372   -0.6680    2.8479 H   0  0  0  0  0  0  0  0  0  0  0  0
   -7.3850   -2.0588    1.9781 H   0  0  0  0  0  0  0  0  0  0  0  0
   -7.6114   -0.7920    3.1910 H   0  0  0  0  0  0  0  0  0  0  0  0
   -6.9600   -2.5200    4.5535 H   0  0  0  0  0  0  0  0  0  0  0  0
   -7.6910   -3.7880    3.5559 H   0  0  0  0  0  0  0  0  0  0  0  0
   -9.2273   -1.6979    5.2089 H   0  0  0  0  0  0  0  0  0  0  0  0
   -9.8331   -4.6877    5.2280 H   0  0  0  0  0  0  0  0  0  0  0  0
  -10.5684   -3.4271    6.1412 H   0  0  0  0  0  0  0  0  0  0  0  0
   -9.2884   -3.7959    7.7886 H   0  0  0  0  0  0  0  0  0  0  0  0
   -6.9484   -3.9765    5.9983 H   0  0  0  0  0  0  0  0  0  0  0  0
   -6.9477   -4.2636    7.6728 H   0  0  0  0  0  0  0  0  0  0  0  0
   -9.1865   -1.6650    7.8762 H   0  0  0  0  0  0  0  0  0  0  0  0
   -8.6424    0.6581    8.3659 H   0  0  0  0  0  0  0  0  0  0  0  0
   -6.3385    1.5014    8.1288 H   0  0  0  0  0  0  0  0  0  0  0  0
   -4.6456   -3.2824    6.3557 H   0  0  0  0  0  0  0  0  0  0  0  0
  -11.0146   -2.3833    3.8342 H   0  0  0  0  0  0  0  0  0  0  0  0
  1  2  1  0
  2  3  1  0
  2  4  1  0
  4  5  2  0
  5  6  1  0
  6  7  1  0
  7  8  1  0
  8  9  1  0
  9 10  1  0
 10 11  1  0
 11 12  1  0
 12 13  1  0
 13 14  1  0
 14 15  2  0
 15 16  1  0
 16 17  2  0
 17 18  1  0
 18 19  2  0
 19 20  1  0
 20 21  2  0
 21 22  1  0
 10 23  1  0
  6 24  2  0
 24 25  1  0
 25  4  1  0
 23  7  1  0
 22 14  1  0
 22 18  1  0
  1 26  1  0
  1 27  1  0
  1 28  1  0
  2 29  1  0
  3 30  1  0
  3 31  1  0
  3 32  1  0
  7 33  1  0
  8 34  1  0
  8 35  1  0
  9 36  1  0
  9 37  1  0
 10 38  1  0
 11 39  1  0
 11 40  1  0
 12 41  1  0
 13 42  1  0
 13 43  1  0
 15 44  1  0
 16 45  1  0
 17 46  1  0
 21 47  1  0
 23 48  1  0
M  END
>  <Energy>  (535) 
91.307381946058015

>  <compound_id>  (535) 
827

>  <target_id>  (535) 
1

>  <reference_id>  (535) 
99

>  <inspiration_ids>  (535) 
[69, 99]

>  <energy_score>  (535) 
-25.236764115841936

>  <distance_score>  (535) 
2.207162501225022

>  <path>  (535) 
/opt/xchem-fragalysis-2/maxwin/BulkDock/SCRATCH/505733/C827-P99/C827-P99.minimised.mol

>  <scratch_subdir>  (535) 
/opt/xchem-fragalysis-2/maxwin/BulkDock/SCRATCH/505733/C827-P99

>  <fragmenstein_runtime>  (535) 
67.4794397354126

>  <fragmenstein_outcome>  (535) 
too moved

>  <fragmenstein_mode>  (535) 
expansion

>  <fragmenstein_error>  (535) 


$$$$
C828-P69
     RDKit          3D

 65 69  0  0  0  0  0  0  0  0999 V2000
  -11.2585   -0.5569    2.9124 C   0  0  0  0  0  0  0  0  0  0  0  0
   -9.9788   -1.3841    2.9891 C   0  0  0  0  0  0  0  0  0  0  0  0
  -10.1624   -2.7451    2.3194 C   0  0  0  0  0  0  0  0  0  0  0  0
   -9.4987   -1.5585    4.3884 C   0  0  0  0  0  0  0  0  0  0  0  0
   -8.2684   -1.5147    4.8452 N   0  0  0  0  0  0  0  0  0  0  0  0
   -8.4243   -1.9024    6.1526 C   0  0  0  0  0  0  0  0  0  0  0  0
   -7.2651   -2.1839    7.0606 C   0  0  0  0  0  0  0  0  0  0  0  0
   -6.0269   -2.6676    6.2989 C   0  0  0  0  0  0  0  0  0  0  0  0
   -5.1223   -1.4540    6.2495 C   0  0  0  0  0  0  0  0  0  0  0  0
   -5.3385   -0.8490    7.6079 C   0  0  0  0  0  0  0  0  0  0  0  0
   -6.7578   -1.0523    7.8684 N   0  0  0  0  0  0  0  0  0  0  0  0
   -7.5734    0.1509    8.0509 C   0  0  0  0  0  0  0  0  0  0  0  0
   -7.4883    1.2036    6.9301 C   0  0  0  0  0  0  0  0  0  0  0  0
   -8.3318    2.4783    7.1330 C   0  0  0  0  0  0  0  0  0  0  0  0
   -7.8749    3.2856    8.2510 N   0  0  0  0  0  0  0  0  0  0  0  0
   -9.7931    2.2084    7.1348 C   0  0  0  0  0  0  0  0  0  0  0  0
  -10.3258    1.9994    5.8818 O   0  0  0  0  0  0  0  0  0  0  0  0
  -11.6356    1.7383    6.0962 C   0  0  0  0  0  0  0  0  0  0  0  0
  -12.0050    1.7660    7.3511 N   0  0  0  0  0  0  0  0  0  0  0  0
  -10.8267    2.0807    8.0464 C   0  0  0  0  0  0  0  0  0  0  0  0
  -10.8580    2.1883    9.5183 C   0  0  0  0  0  0  0  0  0  0  0  0
   -9.9707    2.5550   10.1803 O   0  0  0  0  0  0  0  0  0  0  0  0
  -12.2541    1.6700    9.9162 N   0  0  0  0  0  0  0  0  0  0  0  0
  -12.8569    1.5867   11.1447 C   0  0  0  0  0  0  0  0  0  0  0  0
  -12.4555    2.1900   12.2724 C   0  0  0  0  0  0  0  0  0  0  0  0
  -13.1912    2.1300   13.4441 N   0  0  0  0  0  0  0  0  0  0  0  0
  -14.4053    1.4826   13.5837 C   0  0  0  0  0  0  0  0  0  0  0  0
  -15.0597    1.4279   14.6237 O   0  0  0  0  0  0  0  0  0  0  0  0
  -14.9126    0.8387   12.3608 C   0  0  0  0  0  0  0  0  0  0  0  0
  -16.1808    0.2638   12.3811 C   0  0  0  0  0  0  0  0  0  0  0  0
  -16.6850   -0.3122   11.2287 C   0  0  0  0  0  0  0  0  0  0  0  0
  -15.9025   -0.3936   10.0880 C   0  0  0  0  0  0  0  0  0  0  0  0
  -14.6316    0.1515   10.0762 C   0  0  0  0  0  0  0  0  0  0  0  0
  -14.1368    0.8410   11.1954 C   0  0  0  0  0  0  0  0  0  0  0  0
   -9.7003   -2.1015    6.5198 N   0  0  0  0  0  0  0  0  0  0  0  0
  -10.4166   -1.8831    5.3439 O   0  0  0  0  0  0  0  0  0  0  0  0
  -11.5736   -0.4251    1.8717 H   0  0  0  0  0  0  0  0  0  0  0  0
  -11.1010    0.4385    3.3393 H   0  0  0  0  0  0  0  0  0  0  0  0
  -12.0843   -1.0289    3.4558 H   0  0  0  0  0  0  0  0  0  0  0  0
   -9.2012   -0.8421    2.4355 H   0  0  0  0  0  0  0  0  0  0  0  0
  -10.4843   -2.6285    1.2791 H   0  0  0  0  0  0  0  0  0  0  0  0
   -9.2232   -3.3101    2.3183 H   0  0  0  0  0  0  0  0  0  0  0  0
  -10.9091   -3.3530    2.8404 H   0  0  0  0  0  0  0  0  0  0  0  0
   -7.5900   -2.9806    7.7394 H   0  0  0  0  0  0  0  0  0  0  0  0
   -6.2297   -3.0693    5.3011 H   0  0  0  0  0  0  0  0  0  0  0  0
   -5.5252   -3.4542    6.8734 H   0  0  0  0  0  0  0  0  0  0  0  0
   -4.0775   -1.7262    6.0738 H   0  0  0  0  0  0  0  0  0  0  0  0
   -5.4396   -0.7676    5.4559 H   0  0  0  0  0  0  0  0  0  0  0  0
   -5.0135    0.1907    7.6703 H   0  0  0  0  0  0  0  0  0  0  0  0
   -4.7545   -1.3902    8.3587 H   0  0  0  0  0  0  0  0  0  0  0  0
   -8.6144   -0.1328    8.2409 H   0  0  0  0  0  0  0  0  0  0  0  0
   -7.2430    0.6176    8.9852 H   0  0  0  0  0  0  0  0  0  0  0  0
   -6.4469    1.5224    6.8006 H   0  0  0  0  0  0  0  0  0  0  0  0
   -7.7760    0.7533    5.9752 H   0  0  0  0  0  0  0  0  0  0  0  0
   -8.1380    3.0971    6.2452 H   0  0  0  0  0  0  0  0  0  0  0  0
   -8.1099    2.8408    9.1479 H   0  0  0  0  0  0  0  0  0  0  0  0
   -8.3857    4.1679    8.2768 H   0  0  0  0  0  0  0  0  0  0  0  0
  -12.2426    1.5369    5.2252 H   0  0  0  0  0  0  0  0  0  0  0  0
  -12.7481    1.3574    9.0868 H   0  0  0  0  0  0  0  0  0  0  0  0
  -11.5579    2.7992   12.3177 H   0  0  0  0  0  0  0  0  0  0  0  0
  -12.8785    2.6940   14.2390 H   0  0  0  0  0  0  0  0  0  0  0  0
  -16.7898    0.2963   13.2807 H   0  0  0  0  0  0  0  0  0  0  0  0
  -17.6969   -0.7075   11.2297 H   0  0  0  0  0  0  0  0  0  0  0  0
  -16.2848   -0.8838    9.1956 H   0  0  0  0  0  0  0  0  0  0  0  0
  -14.0654    0.0236    9.1592 H   0  0  0  0  0  0  0  0  0  0  0  0
  1  2  1  0
  2  3  1  0
  2  4  1  0
  4  5  2  0
  5  6  1  0
  6  7  1  0
  7  8  1  0
  8  9  1  0
  9 10  1  0
 10 11  1  0
 11 12  1  0
 12 13  1  0
 13 14  1  0
 14 15  1  0
 14 16  1  0
 16 17  1  0
 17 18  1  0
 18 19  2  0
 19 20  1  0
 20 21  1  0
 21 22  2  0
 21 23  1  0
 23 24  1  0
 24 25  2  0
 25 26  1  0
 26 27  1  0
 27 28  2  0
 27 29  1  0
 29 30  2  0
 30 31  1  0
 31 32  2  0
 32 33  1  0
 33 34  2  0
  6 35  2  0
 35 36  1  0
 36  4  1  0
 11  7  1  0
 20 16  2  0
 34 24  1  0
 34 29  1  0
  1 37  1  0
  1 38  1  0
  1 39  1  0
  2 40  1  0
  3 41  1  0
  3 42  1  0
  3 43  1  0
  7 44  1  0
  8 45  1  0
  8 46  1  0
  9 47  1  0
  9 48  1  0
 10 49  1  0
 10 50  1  0
 12 51  1  0
 12 52  1  0
 13 53  1  0
 13 54  1  0
 14 55  1  0
 15 56  1  0
 15 57  1  0
 18 58  1  0
 23 59  1  0
 25 60  1  0
 26 61  1  0
 30 62  1  0
 31 63  1  0
 32 64  1  0
 33 65  1  0
M  END
>  <Energy>  (536) 
115.34341020403252

>  <compound_id>  (536) 
828

>  <target_id>  (536) 
1

>  <reference_id>  (536) 
69

>  <inspiration_ids>  (536) 
[69, 100]

>  <energy_score>  (536) 
-76.78063821313975

>  <distance_score>  (536) 
2.8135094596881465

>  <path>  (536) 
/opt/xchem-fragalysis-2/maxwin/BulkDock/SCRATCH/505733/C828-P69/C828-P69.minimised.mol

>  <scratch_subdir>  (536) 
/opt/xchem-fragalysis-2/maxwin/BulkDock/SCRATCH/505733/C828-P69

>  <fragmenstein_runtime>  (536) 
14.754250526428223

>  <fragmenstein_outcome>  (536) 
too moved

>  <fragmenstein_mode>  (536) 
expansion

>  <fragmenstein_error>  (536) 


$$$$
C828-P100
     RDKit          3D

 65 69  0  0  0  0  0  0  0  0999 V2000
  -12.2930   -0.6157    3.7393 C   0  0  0  0  0  0  0  0  0  0  0  0
  -10.8817   -1.0841    3.3948 C   0  0  0  0  0  0  0  0  0  0  0  0
  -10.8832   -2.0668    2.2267 C   0  0  0  0  0  0  0  0  0  0  0  0
  -10.1908   -1.6224    4.5988 C   0  0  0  0  0  0  0  0  0  0  0  0
   -9.4130   -0.9816    5.4383 N   0  0  0  0  0  0  0  0  0  0  0  0
   -9.0560   -1.9695    6.3223 C   0  0  0  0  0  0  0  0  0  0  0  0
   -8.0153   -1.7802    7.3668 C   0  0  0  0  0  0  0  0  0  0  0  0
   -6.6359   -1.7698    6.7469 C   0  0  0  0  0  0  0  0  0  0  0  0
   -5.7598   -0.8838    7.6068 C   0  0  0  0  0  0  0  0  0  0  0  0
   -6.6909   -0.2408    8.5820 C   0  0  0  0  0  0  0  0  0  0  0  0
   -8.0340   -0.5522    8.1539 N   0  0  0  0  0  0  0  0  0  0  0  0
   -8.8729    0.6081    7.8904 C   0  0  0  0  0  0  0  0  0  0  0  0
   -8.3775    1.6143    6.8268 C   0  0  0  0  0  0  0  0  0  0  0  0
   -8.8664    3.0657    7.0379 C   0  0  0  0  0  0  0  0  0  0  0  0
   -8.2384    3.6779    8.1934 N   0  0  0  0  0  0  0  0  0  0  0  0
  -10.3486    3.1552    7.0941 C   0  0  0  0  0  0  0  0  0  0  0  0
  -10.9640    3.2268    5.8661 O   0  0  0  0  0  0  0  0  0  0  0  0
  -12.2887    3.1746    6.1402 C   0  0  0  0  0  0  0  0  0  0  0  0
  -12.5875    3.0795    7.4119 N   0  0  0  0  0  0  0  0  0  0  0  0
  -11.3427    3.1143    8.0573 C   0  0  0  0  0  0  0  0  0  0  0  0
  -11.2718    2.9996    9.5289 C   0  0  0  0  0  0  0  0  0  0  0  0
  -10.4401    3.4682   10.1985 O   0  0  0  0  0  0  0  0  0  0  0  0
  -12.5219    2.1829    9.9127 N   0  0  0  0  0  0  0  0  0  0  0  0
  -13.0365    1.8678   11.1427 C   0  0  0  0  0  0  0  0  0  0  0  0
  -12.5932    2.3211   12.3223 C   0  0  0  0  0  0  0  0  0  0  0  0
  -13.2734    2.0796   13.5024 N   0  0  0  0  0  0  0  0  0  0  0  0
  -14.4793    1.4134   13.6033 C   0  0  0  0  0  0  0  0  0  0  0  0
  -15.1163    1.2709   14.6461 O   0  0  0  0  0  0  0  0  0  0  0  0
  -14.9917    0.8659   12.3363 C   0  0  0  0  0  0  0  0  0  0  0  0
  -16.2157    0.2061   12.3326 C   0  0  0  0  0  0  0  0  0  0  0  0
  -16.7113   -0.2927   11.1410 C   0  0  0  0  0  0  0  0  0  0  0  0
  -15.9579   -0.2183    9.9796 C   0  0  0  0  0  0  0  0  0  0  0  0
  -14.7293    0.4153    9.9882 C   0  0  0  0  0  0  0  0  0  0  0  0
  -14.2559    1.0322   11.1558 C   0  0  0  0  0  0  0  0  0  0  0  0
   -9.5585   -3.1778    6.0353 N   0  0  0  0  0  0  0  0  0  0  0  0
  -10.3242   -2.9452    4.8943 O   0  0  0  0  0  0  0  0  0  0  0  0
  -12.7768   -0.1649    2.8663 H   0  0  0  0  0  0  0  0  0  0  0  0
  -12.2713    0.1375    4.5353 H   0  0  0  0  0  0  0  0  0  0  0  0
  -12.9234   -1.4393    4.0858 H   0  0  0  0  0  0  0  0  0  0  0  0
  -10.3163   -0.2005    3.0690 H   0  0  0  0  0  0  0  0  0  0  0  0
  -11.3157   -1.6035    1.3333 H   0  0  0  0  0  0  0  0  0  0  0  0
   -9.8633   -2.3826    1.9797 H   0  0  0  0  0  0  0  0  0  0  0  0
  -11.4640   -2.9673    2.4477 H   0  0  0  0  0  0  0  0  0  0  0  0
   -8.0800   -2.6163    8.0748 H   0  0  0  0  0  0  0  0  0  0  0  0
   -6.6928   -1.3346    5.7430 H   0  0  0  0  0  0  0  0  0  0  0  0
   -6.2317   -2.7849    6.6660 H   0  0  0  0  0  0  0  0  0  0  0  0
   -4.9723   -1.4506    8.1094 H   0  0  0  0  0  0  0  0  0  0  0  0
   -5.2729   -0.1182    6.9929 H   0  0  0  0  0  0  0  0  0  0  0  0
   -6.5571   -0.6394    9.5809 H   0  0  0  0  0  0  0  0  0  0  0  0
   -6.4931    0.8298    8.6471 H   0  0  0  0  0  0  0  0  0  0  0  0
   -9.8994    0.2957    7.6650 H   0  0  0  0  0  0  0  0  0  0  0  0
   -8.9613    1.1311    8.8511 H   0  0  0  0  0  0  0  0  0  0  0  0
   -7.2824    1.6332    6.7771 H   0  0  0  0  0  0  0  0  0  0  0  0
   -8.7002    1.2822    5.8346 H   0  0  0  0  0  0  0  0  0  0  0  0
   -8.5348    3.6434    6.1646 H   0  0  0  0  0  0  0  0  0  0  0  0
   -8.5878    4.6208    8.3503 H   0  0  0  0  0  0  0  0  0  0  0  0
   -7.2320    3.7386    8.0809 H   0  0  0  0  0  0  0  0  0  0  0  0
  -12.9609    3.2063    5.2945 H   0  0  0  0  0  0  0  0  0  0  0  0
  -13.0757    2.0010    9.0821 H   0  0  0  0  0  0  0  0  0  0  0  0
  -11.7209    2.9616   12.4123 H   0  0  0  0  0  0  0  0  0  0  0  0
  -12.9500    2.5747   14.3366 H   0  0  0  0  0  0  0  0  0  0  0  0
  -16.7970    0.1036   13.2447 H   0  0  0  0  0  0  0  0  0  0  0  0
  -17.6935   -0.7548   11.1300 H   0  0  0  0  0  0  0  0  0  0  0  0
  -16.3282   -0.6636    9.0591 H   0  0  0  0  0  0  0  0  0  0  0  0
  -14.1702    0.4096    9.0575 H   0  0  0  0  0  0  0  0  0  0  0  0
  1  2  1  0
  2  3  1  0
  2  4  1  0
  4  5  2  0
  5  6  1  0
  6  7  1  0
  7  8  1  0
  8  9  1  0
  9 10  1  0
 10 11  1  0
 11 12  1  0
 12 13  1  0
 13 14  1  0
 14 15  1  0
 14 16  1  0
 16 17  1  0
 17 18  1  0
 18 19  2  0
 19 20  1  0
 20 21  1  0
 21 22  2  0
 21 23  1  0
 23 24  1  0
 24 25  2  0
 25 26  1  0
 26 27  1  0
 27 28  2  0
 27 29  1  0
 29 30  2  0
 30 31  1  0
 31 32  2  0
 32 33  1  0
 33 34  2  0
  6 35  2  0
 35 36  1  0
 36  4  1  0
 11  7  1  0
 20 16  2  0
 34 24  1  0
 34 29  1  0
  1 37  1  0
  1 38  1  0
  1 39  1  0
  2 40  1  0
  3 41  1  0
  3 42  1  0
  3 43  1  0
  7 44  1  0
  8 45  1  0
  8 46  1  0
  9 47  1  0
  9 48  1  0
 10 49  1  0
 10 50  1  0
 12 51  1  0
 12 52  1  0
 13 53  1  0
 13 54  1  0
 14 55  1  0
 15 56  1  0
 15 57  1  0
 18 58  1  0
 23 59  1  0
 25 60  1  0
 26 61  1  0
 30 62  1  0
 31 63  1  0
 32 64  1  0
 33 65  1  0
M  END
>  <Energy>  (537) 
128.26148194777167

>  <compound_id>  (537) 
828

>  <target_id>  (537) 
1

>  <reference_id>  (537) 
100

>  <inspiration_ids>  (537) 
[69, 100]

>  <energy_score>  (537) 
-63.86256646940092

>  <distance_score>  (537) 
2.8780465568105993

>  <path>  (537) 
/opt/xchem-fragalysis-2/maxwin/BulkDock/SCRATCH/505733/C828-P100/C828-P100.minimised.mol

>  <scratch_subdir>  (537) 
/opt/xchem-fragalysis-2/maxwin/BulkDock/SCRATCH/505733/C828-P100

>  <fragmenstein_runtime>  (537) 
33.0536367893219

>  <fragmenstein_outcome>  (537) 
too moved

>  <fragmenstein_mode>  (537) 
expansion

>  <fragmenstein_error>  (537) 


$$$$
C829-P69
     RDKit          3D

 68 72  0  0  0  0  0  0  0  0999 V2000
  -10.2529    6.6069   10.9025 C   0  0  0  0  0  0  0  0  0  0  0  0
  -10.0655    5.1283   11.2544 C   0  0  0  0  0  0  0  0  0  0  0  0
   -9.6130    5.0124   12.7060 C   0  0  0  0  0  0  0  0  0  0  0  0
  -11.3035    4.3402   11.0142 C   0  0  0  0  0  0  0  0  0  0  0  0
  -11.8524    3.3864   11.7294 N   0  0  0  0  0  0  0  0  0  0  0  0
  -13.0114    3.1343   11.0327 C   0  0  0  0  0  0  0  0  0  0  0  0
  -14.0927    2.2182   11.5258 C   0  0  0  0  0  0  0  0  0  0  0  0
  -14.2533    2.2422   13.0417 C   0  0  0  0  0  0  0  0  0  0  0  0
  -13.2978    1.1775   13.5545 C   0  0  0  0  0  0  0  0  0  0  0  0
  -12.8156    0.4577   12.3059 C   0  0  0  0  0  0  0  0  0  0  0  0
  -13.7335    0.8227   11.2224 N   0  0  0  0  0  0  0  0  0  0  0  0
  -14.9040   -0.0618   11.1227 C   0  0  0  0  0  0  0  0  0  0  0  0
  -15.7745    0.1768    9.8709 C   0  0  0  0  0  0  0  0  0  0  0  0
  -15.2339   -0.3804    8.5493 C   0  0  0  0  0  0  0  0  0  0  0  0
  -13.7975   -0.1152    8.3282 C   0  0  0  0  0  0  0  0  0  0  0  0
  -12.7527   -0.9273    8.3906 N   0  0  0  0  0  0  0  0  0  0  0  0
  -11.6862   -0.0585    8.2707 C   0  0  0  0  0  0  0  0  0  0  0  0
  -10.2658   -0.3389    8.1325 C   0  0  0  0  0  0  0  0  0  0  0  0
   -9.5168    0.5048    8.4353 O   0  0  0  0  0  0  0  0  0  0  0  0
  -10.0109   -1.7215    7.4922 N   0  0  0  0  0  0  0  0  0  0  0  0
   -8.8620   -2.2818    7.0310 C   0  0  0  0  0  0  0  0  0  0  0  0
   -8.4997   -3.5649    6.9902 C   0  0  0  0  0  0  0  0  0  0  0  0
   -7.2132   -3.9190    6.6658 N   0  0  0  0  0  0  0  0  0  0  0  0
   -6.1851   -3.0105    6.5369 C   0  0  0  0  0  0  0  0  0  0  0  0
   -5.0173   -3.3406    6.4350 O   0  0  0  0  0  0  0  0  0  0  0  0
   -6.5584   -1.6011    6.4254 C   0  0  0  0  0  0  0  0  0  0  0  0
   -5.6338   -0.6414    6.0318 C   0  0  0  0  0  0  0  0  0  0  0  0
   -6.0981    0.5723    5.5368 C   0  0  0  0  0  0  0  0  0  0  0  0
   -7.4570    0.7962    5.3916 C   0  0  0  0  0  0  0  0  0  0  0  0
   -8.3522   -0.1696    5.8087 C   0  0  0  0  0  0  0  0  0  0  0  0
   -7.9115   -1.3242    6.4486 C   0  0  0  0  0  0  0  0  0  0  0  0
  -12.1532    1.2113    7.9776 C   0  0  0  0  0  0  0  0  0  0  0  0
  -11.5167    2.4862    7.5627 C   0  0  0  0  0  0  0  0  0  0  0  0
  -10.6089    2.3018    6.4265 N   0  0  0  0  0  0  0  0  0  0  0  0
  -13.5106    1.1768    8.0066 O   0  0  0  0  0  0  0  0  0  0  0  0
  -13.1461    3.8362    9.9007 N   0  0  0  0  0  0  0  0  0  0  0  0
  -12.0187    4.6506    9.8930 O   0  0  0  0  0  0  0  0  0  0  0  0
   -9.3369    7.1737   11.1013 H   0  0  0  0  0  0  0  0  0  0  0  0
  -11.0647    7.0573   11.4852 H   0  0  0  0  0  0  0  0  0  0  0  0
  -10.4939    6.7361    9.8415 H   0  0  0  0  0  0  0  0  0  0  0  0
   -9.2821    4.7236   10.6049 H   0  0  0  0  0  0  0  0  0  0  0  0
   -8.6805    5.5609   12.8759 H   0  0  0  0  0  0  0  0  0  0  0  0
   -9.4403    3.9661   12.9704 H   0  0  0  0  0  0  0  0  0  0  0  0
  -10.3694    5.4116   13.3904 H   0  0  0  0  0  0  0  0  0  0  0  0
  -15.0300    2.5398   11.0600 H   0  0  0  0  0  0  0  0  0  0  0  0
  -14.0549    3.2246   13.4776 H   0  0  0  0  0  0  0  0  0  0  0  0
  -15.2785    1.9689   13.3218 H   0  0  0  0  0  0  0  0  0  0  0  0
  -12.4583    1.6159   14.1026 H   0  0  0  0  0  0  0  0  0  0  0  0
  -13.8244    0.5010   14.2334 H   0  0  0  0  0  0  0  0  0  0  0  0
  -11.8203    0.8132   12.0299 H   0  0  0  0  0  0  0  0  0  0  0  0
  -12.7047   -0.6178   12.4447 H   0  0  0  0  0  0  0  0  0  0  0  0
  -15.5384    0.0265   12.0132 H   0  0  0  0  0  0  0  0  0  0  0  0
  -14.5728   -1.1030   11.0863 H   0  0  0  0  0  0  0  0  0  0  0  0
  -16.7540   -0.2874   10.0457 H   0  0  0  0  0  0  0  0  0  0  0  0
  -15.9858    1.2436    9.7421 H   0  0  0  0  0  0  0  0  0  0  0  0
  -15.8098    0.0617    7.7261 H   0  0  0  0  0  0  0  0  0  0  0  0
  -15.4305   -1.4468    8.4828 H   0  0  0  0  0  0  0  0  0  0  0  0
  -10.8858   -2.2379    7.4400 H   0  0  0  0  0  0  0  0  0  0  0  0
   -9.1500   -4.3692    7.2976 H   0  0  0  0  0  0  0  0  0  0  0  0
   -6.9525   -4.8951    6.6465 H   0  0  0  0  0  0  0  0  0  0  0  0
   -4.5720   -0.8743    6.0141 H   0  0  0  0  0  0  0  0  0  0  0  0
   -5.4033    1.3082    5.1456 H   0  0  0  0  0  0  0  0  0  0  0  0
   -7.8159    1.7119    4.9275 H   0  0  0  0  0  0  0  0  0  0  0  0
   -9.4088   -0.0091    5.6253 H   0  0  0  0  0  0  0  0  0  0  0  0
  -12.2783    3.2180    7.2757 H   0  0  0  0  0  0  0  0  0  0  0  0
  -10.9405    2.9038    8.3914 H   0  0  0  0  0  0  0  0  0  0  0  0
   -9.7751    1.8369    6.7922 H   0  0  0  0  0  0  0  0  0  0  0  0
  -11.0481    1.6928    5.7424 H   0  0  0  0  0  0  0  0  0  0  0  0
  1  2  1  0
  2  3  1  0
  2  4  1  0
  4  5  2  0
  5  6  1  0
  6  7  1  0
  7  8  1  0
  8  9  1  0
  9 10  1  0
 10 11  1  0
 11 12  1  0
 12 13  1  0
 13 14  1  0
 14 15  1  0
 15 16  2  0
 16 17  1  0
 17 18  1  0
 18 19  2  0
 18 20  1  0
 20 21  1  0
 21 22  2  0
 22 23  1  0
 23 24  1  0
 24 25  2  0
 24 26  1  0
 26 27  2  0
 27 28  1  0
 28 29  2  0
 29 30  1  0
 30 31  2  0
 17 32  2  0
 32 33  1  0
 33 34  1  0
 32 35  1  0
  6 36  2  0
 36 37  1  0
 37  4  1  0
 11  7  1  0
 35 15  1  0
 31 21  1  0
 31 26  1  0
  1 38  1  0
  1 39  1  0
  1 40  1  0
  2 41  1  0
  3 42  1  0
  3 43  1  0
  3 44  1  0
  7 45  1  0
  8 46  1  0
  8 47  1  0
  9 48  1  0
  9 49  1  0
 10 50  1  0
 10 51  1  0
 12 52  1  0
 12 53  1  0
 13 54  1  0
 13 55  1  0
 14 56  1  0
 14 57  1  0
 20 58  1  0
 22 59  1  0
 23 60  1  0
 27 61  1  0
 28 62  1  0
 29 63  1  0
 30 64  1  0
 33 65  1  0
 33 66  1  0
 34 67  1  0
 34 68  1  0
M  END
>  <Energy>  (538) 
133.07071729028661

>  <compound_id>  (538) 
829

>  <target_id>  (538) 
1

>  <reference_id>  (538) 
69

>  <inspiration_ids>  (538) 
[69, 139]

>  <energy_score>  (538) 
-60.57832067400932

>  <distance_score>  (538) 
2.742623460367659

>  <path>  (538) 
/opt/xchem-fragalysis-2/maxwin/BulkDock/SCRATCH/505733/C829-P69/C829-P69.minimised.mol

>  <scratch_subdir>  (538) 
/opt/xchem-fragalysis-2/maxwin/BulkDock/SCRATCH/505733/C829-P69

>  <fragmenstein_runtime>  (538) 
8.198395729064941

>  <fragmenstein_outcome>  (538) 
too moved

>  <fragmenstein_mode>  (538) 
expansion

>  <fragmenstein_error>  (538) 


$$$$
C829-P139
     RDKit          3D

 68 72  0  0  0  0  0  0  0  0999 V2000
  -10.8609    6.4535   12.8453 C   0  0  0  0  0  0  0  0  0  0  0  0
  -10.2122    5.7436   11.6541 C   0  0  0  0  0  0  0  0  0  0  0  0
   -8.7848    5.3581   11.9928 C   0  0  0  0  0  0  0  0  0  0  0  0
  -11.0313    4.5813   11.2240 C   0  0  0  0  0  0  0  0  0  0  0  0
  -11.7698    3.7870   11.9573 N   0  0  0  0  0  0  0  0  0  0  0  0
  -12.5997    3.2227   11.0235 C   0  0  0  0  0  0  0  0  0  0  0  0
  -13.8263    2.4481   11.4239 C   0  0  0  0  0  0  0  0  0  0  0  0
  -14.0886    2.4809   12.9329 C   0  0  0  0  0  0  0  0  0  0  0  0
  -13.2503    1.3398   13.4917 C   0  0  0  0  0  0  0  0  0  0  0  0
  -12.7526    0.5993   12.2595 C   0  0  0  0  0  0  0  0  0  0  0  0
  -13.6098    1.0231   11.1453 N   0  0  0  0  0  0  0  0  0  0  0  0
  -14.8583    0.2457   11.0468 C   0  0  0  0  0  0  0  0  0  0  0  0
  -15.7392    0.5871    9.8245 C   0  0  0  0  0  0  0  0  0  0  0  0
  -15.3167   -0.0041    8.4749 C   0  0  0  0  0  0  0  0  0  0  0  0
  -13.8567    0.0173    8.2438 C   0  0  0  0  0  0  0  0  0  0  0  0
  -12.9429   -0.8790    8.5741 N   0  0  0  0  0  0  0  0  0  0  0  0
  -11.7695   -0.2018    8.3799 C   0  0  0  0  0  0  0  0  0  0  0  0
  -10.4096   -0.6348    8.6101 C   0  0  0  0  0  0  0  0  0  0  0  0
   -9.7949   -0.2332    9.5192 O   0  0  0  0  0  0  0  0  0  0  0  0
   -9.9845   -1.5557    7.4385 N   0  0  0  0  0  0  0  0  0  0  0  0
   -8.7643   -2.0644    7.1114 C   0  0  0  0  0  0  0  0  0  0  0  0
   -8.6198   -3.2627    6.5293 C   0  0  0  0  0  0  0  0  0  0  0  0
   -7.4138   -3.7274    6.0912 N   0  0  0  0  0  0  0  0  0  0  0  0
   -6.2683   -2.9828    6.1243 C   0  0  0  0  0  0  0  0  0  0  0  0
   -5.2546   -3.3346    5.5474 O   0  0  0  0  0  0  0  0  0  0  0  0
   -6.3294   -1.6756    6.7874 C   0  0  0  0  0  0  0  0  0  0  0  0
   -5.1750   -0.8902    6.8367 C   0  0  0  0  0  0  0  0  0  0  0  0
   -5.2756    0.4410    7.1935 C   0  0  0  0  0  0  0  0  0  0  0  0
   -6.5177    0.9744    7.4801 C   0  0  0  0  0  0  0  0  0  0  0  0
   -7.6392    0.1617    7.5048 C   0  0  0  0  0  0  0  0  0  0  0  0
   -7.5734   -1.1928    7.1941 C   0  0  0  0  0  0  0  0  0  0  0  0
  -12.0185    0.9922    7.7372 C   0  0  0  0  0  0  0  0  0  0  0  0
  -11.1501    2.0345    7.1506 C   0  0  0  0  0  0  0  0  0  0  0  0
  -10.5344    1.5466    5.9117 N   0  0  0  0  0  0  0  0  0  0  0  0
  -13.3693    1.1397    7.6340 O   0  0  0  0  0  0  0  0  0  0  0  0
  -12.2935    3.5184    9.7516 N   0  0  0  0  0  0  0  0  0  0  0  0
  -11.2455    4.4348    9.8834 O   0  0  0  0  0  0  0  0  0  0  0  0
  -10.3100    7.3647   13.1023 H   0  0  0  0  0  0  0  0  0  0  0  0
  -10.8761    5.8117   13.7321 H   0  0  0  0  0  0  0  0  0  0  0  0
  -11.8947    6.7395   12.6206 H   0  0  0  0  0  0  0  0  0  0  0  0
  -10.1788    6.4675   10.8292 H   0  0  0  0  0  0  0  0  0  0  0  0
   -8.2321    6.2074   12.4092 H   0  0  0  0  0  0  0  0  0  0  0  0
   -8.2640    5.0529   11.0827 H   0  0  0  0  0  0  0  0  0  0  0  0
   -8.7466    4.5395   12.7193 H   0  0  0  0  0  0  0  0  0  0  0  0
  -14.6717    2.8896   10.8882 H   0  0  0  0  0  0  0  0  0  0  0  0
  -13.8424    3.4374   13.4052 H   0  0  0  0  0  0  0  0  0  0  0  0
  -15.1486    2.2898   13.1421 H   0  0  0  0  0  0  0  0  0  0  0  0
  -12.4135    1.7106   14.0928 H   0  0  0  0  0  0  0  0  0  0  0  0
  -13.8689    0.7016   14.1285 H   0  0  0  0  0  0  0  0  0  0  0  0
  -11.7286    0.9071   12.0321 H   0  0  0  0  0  0  0  0  0  0  0  0
  -12.7007   -0.4787   12.3870 H   0  0  0  0  0  0  0  0  0  0  0  0
  -14.6170   -0.8196   10.9915 H   0  0  0  0  0  0  0  0  0  0  0  0
  -15.4673    0.3673   11.9508 H   0  0  0  0  0  0  0  0  0  0  0  0
  -16.7563    0.2278   10.0320 H   0  0  0  0  0  0  0  0  0  0  0  0
  -15.8449    1.6710    9.7127 H   0  0  0  0  0  0  0  0  0  0  0  0
  -15.8222    0.5541    7.6765 H   0  0  0  0  0  0  0  0  0  0  0  0
  -15.6951   -1.0233    8.3834 H   0  0  0  0  0  0  0  0  0  0  0  0
  -10.7924   -1.7722    6.8682 H   0  0  0  0  0  0  0  0  0  0  0  0
   -9.4576   -3.9328    6.3715 H   0  0  0  0  0  0  0  0  0  0  0  0
   -7.3614   -4.6336    5.6292 H   0  0  0  0  0  0  0  0  0  0  0  0
   -4.2142   -1.3012    6.5350 H   0  0  0  0  0  0  0  0  0  0  0  0
   -4.3906    1.0704    7.2085 H   0  0  0  0  0  0  0  0  0  0  0  0
   -6.6216    2.0333    7.7068 H   0  0  0  0  0  0  0  0  0  0  0  0
   -8.5584    0.6682    7.7534 H   0  0  0  0  0  0  0  0  0  0  0  0
  -11.7269    2.9372    6.9243 H   0  0  0  0  0  0  0  0  0  0  0  0
  -10.3634    2.3207    7.8556 H   0  0  0  0  0  0  0  0  0  0  0  0
  -11.2773    1.3177    5.2545 H   0  0  0  0  0  0  0  0  0  0  0  0
  -10.0154    0.6899    6.0858 H   0  0  0  0  0  0  0  0  0  0  0  0
  1  2  1  0
  2  3  1  0
  2  4  1  0
  4  5  2  0
  5  6  1  0
  6  7  1  0
  7  8  1  0
  8  9  1  0
  9 10  1  0
 10 11  1  0
 11 12  1  0
 12 13  1  0
 13 14  1  0
 14 15  1  0
 15 16  2  0
 16 17  1  0
 17 18  1  0
 18 19  2  0
 18 20  1  0
 20 21  1  0
 21 22  2  0
 22 23  1  0
 23 24  1  0
 24 25  2  0
 24 26  1  0
 26 27  2  0
 27 28  1  0
 28 29  2  0
 29 30  1  0
 30 31  2  0
 17 32  2  0
 32 33  1  0
 33 34  1  0
 32 35  1  0
  6 36  2  0
 36 37  1  0
 37  4  1  0
 11  7  1  0
 35 15  1  0
 31 21  1  0
 31 26  1  0
  1 38  1  0
  1 39  1  0
  1 40  1  0
  2 41  1  0
  3 42  1  0
  3 43  1  0
  3 44  1  0
  7 45  1  0
  8 46  1  0
  8 47  1  0
  9 48  1  0
  9 49  1  0
 10 50  1  0
 10 51  1  0
 12 52  1  0
 12 53  1  0
 13 54  1  0
 13 55  1  0
 14 56  1  0
 14 57  1  0
 20 58  1  0
 22 59  1  0
 23 60  1  0
 27 61  1  0
 28 62  1  0
 29 63  1  0
 30 64  1  0
 33 65  1  0
 33 66  1  0
 34 67  1  0
 34 68  1  0
M  END
>  <Energy>  (539) 
137.10757721502611

>  <compound_id>  (539) 
829

>  <target_id>  (539) 
1

>  <reference_id>  (539) 
139

>  <inspiration_ids>  (539) 
[69, 139]

>  <energy_score>  (539) 
-56.54146074927115

>  <distance_score>  (539) 
2.6741715602756613

>  <path>  (539) 
/opt/xchem-fragalysis-2/maxwin/BulkDock/SCRATCH/505733/C829-P139/C829-P139.minimised.mol

>  <scratch_subdir>  (539) 
/opt/xchem-fragalysis-2/maxwin/BulkDock/SCRATCH/505733/C829-P139

>  <fragmenstein_runtime>  (539) 
10.89600658416748

>  <fragmenstein_outcome>  (539) 
too moved

>  <fragmenstein_mode>  (539) 
expansion

>  <fragmenstein_error>  (539) 


$$$$
C831-P69
     RDKit          3D

 55 59  0  0  0  0  0  0  0  0999 V2000
  -12.1160    0.4446    4.8408 C   0  0  0  0  0  0  0  0  0  0  0  0
  -11.6156    0.6503    6.0676 C   0  0  0  0  0  0  0  0  0  0  0  0
  -11.1075   -0.4404    6.9707 C   0  0  0  0  0  0  0  0  0  0  0  0
   -9.7082   -0.2061    7.3371 N   0  0  0  0  0  0  0  0  0  0  0  0
   -9.0100   -1.4537    7.6738 C   0  0  0  0  0  0  0  0  0  0  0  0
   -8.8177   -2.7422    6.4344 S   0  0  0  0  0  0  0  0  0  0  0  0
   -7.5820   -1.8653    5.5755 C   0  0  0  0  0  0  0  0  0  0  0  0
   -7.9377   -0.7809    4.8609 C   0  0  0  0  0  0  0  0  0  0  0  0
   -6.9477    0.2163    4.5267 C   0  0  0  0  0  0  0  0  0  0  0  0
   -5.6708    0.0773    4.9065 C   0  0  0  0  0  0  0  0  0  0  0  0
   -5.2709   -1.0822    5.6107 C   0  0  0  0  0  0  0  0  0  0  0  0
   -4.1060   -1.4692    6.0811 N   0  0  0  0  0  0  0  0  0  0  0  0
   -4.2930   -2.6688    6.7179 N   0  0  0  0  0  0  0  0  0  0  0  0
   -5.5602   -2.9875    6.5918 C   0  0  0  0  0  0  0  0  0  0  0  0
   -6.2342   -2.0265    5.9008 N   0  0  0  0  0  0  0  0  0  0  0  0
   -9.4280   -1.7935    8.9966 N   0  0  0  0  0  0  0  0  0  0  0  0
   -9.6217   -0.5080    9.6617 N   0  0  0  0  0  0  0  0  0  0  0  0
   -9.5330    0.5251    8.6187 C   0  0  0  0  0  0  0  0  0  0  0  0
   -8.1062    1.1523    8.4841 C   0  0  0  0  0  0  0  0  0  0  0  0
   -8.3414    2.5294    7.8763 C   0  0  0  0  0  0  0  0  0  0  0  0
   -9.7297    2.8789    8.1551 N   0  0  0  0  0  0  0  0  0  0  0  0
  -10.2161    1.8396    9.0975 C   0  0  0  0  0  0  0  0  0  0  0  0
  -11.6823    1.9053    9.3286 C   0  0  0  0  0  0  0  0  0  0  0  0
  -12.3165    3.0898    9.3939 N   0  0  0  0  0  0  0  0  0  0  0  0
  -13.6300    2.7411    9.6722 O   0  0  0  0  0  0  0  0  0  0  0  0
  -13.6512    1.3850    9.7838 C   0  0  0  0  0  0  0  0  0  0  0  0
  -14.9817    0.7673    9.9640 C   0  0  0  0  0  0  0  0  0  0  0  0
  -15.0243   -0.0641   11.2397 C   0  0  0  0  0  0  0  0  0  0  0  0
  -15.3393   -0.0827    8.7451 C   0  0  0  0  0  0  0  0  0  0  0  0
  -12.4709    0.8291    9.6534 N   0  0  0  0  0  0  0  0  0  0  0  0
  -12.4689    1.2780    4.2417 H   0  0  0  0  0  0  0  0  0  0  0  0
  -12.1830   -0.5494    4.4077 H   0  0  0  0  0  0  0  0  0  0  0  0
  -11.5789    1.6695    6.4422 H   0  0  0  0  0  0  0  0  0  0  0  0
  -11.7673   -0.5635    7.8320 H   0  0  0  0  0  0  0  0  0  0  0  0
  -11.2108   -1.3805    6.4155 H   0  0  0  0  0  0  0  0  0  0  0  0
   -7.9547   -1.2290    7.8492 H   0  0  0  0  0  0  0  0  0  0  0  0
   -8.9753   -0.5363    4.6453 H   0  0  0  0  0  0  0  0  0  0  0  0
   -7.2762    1.0892    3.9694 H   0  0  0  0  0  0  0  0  0  0  0  0
   -4.9255    0.8133    4.6337 H   0  0  0  0  0  0  0  0  0  0  0  0
   -6.0520   -3.8655    6.9703 H   0  0  0  0  0  0  0  0  0  0  0  0
  -10.3042   -2.3320    8.9550 H   0  0  0  0  0  0  0  0  0  0  0  0
   -8.9117   -0.3377   10.3747 H   0  0  0  0  0  0  0  0  0  0  0  0
   -7.6642    1.2362    9.4764 H   0  0  0  0  0  0  0  0  0  0  0  0
   -7.3680    0.6169    7.8812 H   0  0  0  0  0  0  0  0  0  0  0  0
   -8.1946    2.5032    6.7914 H   0  0  0  0  0  0  0  0  0  0  0  0
   -7.6470    3.2678    8.2879 H   0  0  0  0  0  0  0  0  0  0  0  0
   -9.8139    3.7926    8.5994 H   0  0  0  0  0  0  0  0  0  0  0  0
   -9.7890    2.0937   10.0831 H   0  0  0  0  0  0  0  0  0  0  0  0
  -15.7380    1.5574   10.0552 H   0  0  0  0  0  0  0  0  0  0  0  0
  -14.7929    0.5482   12.1184 H   0  0  0  0  0  0  0  0  0  0  0  0
  -16.0148   -0.5066   11.3882 H   0  0  0  0  0  0  0  0  0  0  0  0
  -14.2931   -0.8746   11.1990 H   0  0  0  0  0  0  0  0  0  0  0  0
  -14.6007   -0.8739    8.5754 H   0  0  0  0  0  0  0  0  0  0  0  0
  -16.3206   -0.5527    8.8694 H   0  0  0  0  0  0  0  0  0  0  0  0
  -15.3733    0.5319    7.8382 H   0  0  0  0  0  0  0  0  0  0  0  0
  1  2  2  0
  2  3  1  0
  3  4  1  0
  4  5  1  0
  5  6  1  0
  6  7  1  0
  7  8  2  0
  8  9  1  0
  9 10  2  0
 10 11  1  0
 11 12  2  0
 12 13  1  0
 13 14  2  0
 14 15  1  0
  5 16  1  0
 16 17  1  0
 17 18  1  0
 18 19  1  0
 19 20  1  0
 20 21  1  0
 21 22  1  0
 22 23  1  0
 23 24  2  0
 24 25  1  0
 25 26  1  0
 26 27  1  0
 27 28  1  0
 27 29  1  0
 26 30  2  0
 18  4  1  0
 30 23  1  0
 15  7  1  0
 22 18  1  0
 15 11  1  0
  1 31  1  0
  1 32  1  0
  2 33  1  0
  3 34  1  0
  3 35  1  0
  5 36  1  0
  8 37  1  0
  9 38  1  0
 10 39  1  0
 14 40  1  0
 16 41  1  0
 17 42  1  0
 19 43  1  0
 19 44  1  0
 20 45  1  0
 20 46  1  0
 21 47  1  0
 22 48  1  0
 27 49  1  0
 28 50  1  0
 28 51  1  0
 28 52  1  0
 29 53  1  0
 29 54  1  0
 29 55  1  0
M  END
>  <Energy>  (540) 
133.25785345035399

>  <compound_id>  (540) 
831

>  <target_id>  (540) 
1

>  <reference_id>  (540) 
69

>  <inspiration_ids>  (540) 
[69, 179]

>  <energy_score>  (540) 
-97.16438968463137

>  <distance_score>  (540) 
2.4292536592041145

>  <path>  (540) 
/opt/xchem-fragalysis-2/maxwin/BulkDock/SCRATCH/505733/C831-P69/C831-P69.minimised.mol

>  <scratch_subdir>  (540) 
/opt/xchem-fragalysis-2/maxwin/BulkDock/SCRATCH/505733/C831-P69

>  <fragmenstein_runtime>  (540) 
7.902674198150635

>  <fragmenstein_outcome>  (540) 
too moved

>  <fragmenstein_mode>  (540) 
expansion

>  <fragmenstein_error>  (540) 


$$$$
C831-P179
     RDKit          3D

 55 59  0  0  0  0  0  0  0  0999 V2000
  -12.9225   -1.2570    4.4945 C   0  0  0  0  0  0  0  0  0  0  0  0
  -11.8876   -0.5965    5.0235 C   0  0  0  0  0  0  0  0  0  0  0  0
  -11.6728   -0.4114    6.4981 C   0  0  0  0  0  0  0  0  0  0  0  0
  -10.2783   -0.5751    6.8413 N   0  0  0  0  0  0  0  0  0  0  0  0
   -9.7806   -1.9371    6.8877 C   0  0  0  0  0  0  0  0  0  0  0  0
   -8.8001   -2.4333    5.3835 S   0  0  0  0  0  0  0  0  0  0  0  0
   -7.3985   -1.4266    5.5379 C   0  0  0  0  0  0  0  0  0  0  0  0
   -7.4509   -0.1238    5.2019 C   0  0  0  0  0  0  0  0  0  0  0  0
   -6.4169    0.7864    5.6704 C   0  0  0  0  0  0  0  0  0  0  0  0
   -5.3836    0.3414    6.3993 C   0  0  0  0  0  0  0  0  0  0  0  0
   -5.2119   -1.0508    6.5592 C   0  0  0  0  0  0  0  0  0  0  0  0
   -4.1928   -1.7548    6.9897 N   0  0  0  0  0  0  0  0  0  0  0  0
   -4.5295   -3.0746    6.8542 N   0  0  0  0  0  0  0  0  0  0  0  0
   -5.7643   -3.1367    6.4072 C   0  0  0  0  0  0  0  0  0  0  0  0
   -6.2274   -1.8890    6.1355 N   0  0  0  0  0  0  0  0  0  0  0  0
   -8.9015   -1.9836    8.0520 N   0  0  0  0  0  0  0  0  0  0  0  0
   -8.5430   -0.5836    8.3200 N   0  0  0  0  0  0  0  0  0  0  0  0
   -9.7578    0.1959    7.9613 C   0  0  0  0  0  0  0  0  0  0  0  0
   -9.4345    1.5851    7.3867 C   0  0  0  0  0  0  0  0  0  0  0  0
   -8.8654    2.3417    8.5444 C   0  0  0  0  0  0  0  0  0  0  0  0
   -9.7450    1.9935    9.6462 N   0  0  0  0  0  0  0  0  0  0  0  0
  -10.2842    0.6108    9.3876 C   0  0  0  0  0  0  0  0  0  0  0  0
  -11.7325    0.6667    9.7145 C   0  0  0  0  0  0  0  0  0  0  0  0
  -12.1416    0.5421   10.9900 N   0  0  0  0  0  0  0  0  0  0  0  0
  -13.4900    0.8577   10.9385 O   0  0  0  0  0  0  0  0  0  0  0  0
  -13.7637    1.1311    9.6375 C   0  0  0  0  0  0  0  0  0  0  0  0
  -15.1472    1.5360    9.3057 C   0  0  0  0  0  0  0  0  0  0  0  0
  -15.6134    2.7056   10.1727 C   0  0  0  0  0  0  0  0  0  0  0  0
  -16.1086    0.3556    9.4222 C   0  0  0  0  0  0  0  0  0  0  0  0
  -12.7209    1.0362    8.8491 N   0  0  0  0  0  0  0  0  0  0  0  0
  -13.0436   -1.3551    3.4216 H   0  0  0  0  0  0  0  0  0  0  0  0
  -13.6756   -1.7238    5.1236 H   0  0  0  0  0  0  0  0  0  0  0  0
  -11.1692   -0.1271    4.3565 H   0  0  0  0  0  0  0  0  0  0  0  0
  -11.9823    0.6227    6.6696 H   0  0  0  0  0  0  0  0  0  0  0  0
  -12.3221   -1.0589    7.0990 H   0  0  0  0  0  0  0  0  0  0  0  0
  -10.5807   -2.6767    6.9958 H   0  0  0  0  0  0  0  0  0  0  0  0
   -8.3291    0.3083    4.7292 H   0  0  0  0  0  0  0  0  0  0  0  0
   -6.5505    1.8470    5.4805 H   0  0  0  0  0  0  0  0  0  0  0  0
   -4.6316    1.0060    6.8046 H   0  0  0  0  0  0  0  0  0  0  0  0
   -6.3496   -4.0278    6.2389 H   0  0  0  0  0  0  0  0  0  0  0  0
   -9.4851   -2.3641    8.8136 H   0  0  0  0  0  0  0  0  0  0  0  0
   -7.7755   -0.2762    7.7320 H   0  0  0  0  0  0  0  0  0  0  0  0
   -8.7478    1.5971    6.5479 H   0  0  0  0  0  0  0  0  0  0  0  0
  -10.3475    2.0887    7.0396 H   0  0  0  0  0  0  0  0  0  0  0  0
   -8.8532    3.4211    8.3691 H   0  0  0  0  0  0  0  0  0  0  0  0
   -7.8404    2.0046    8.7101 H   0  0  0  0  0  0  0  0  0  0  0  0
   -9.2257    1.9904   10.5241 H   0  0  0  0  0  0  0  0  0  0  0  0
   -9.8461   -0.0633   10.1359 H   0  0  0  0  0  0  0  0  0  0  0  0
  -15.1590    1.8741    8.2614 H   0  0  0  0  0  0  0  0  0  0  0  0
  -14.9285    3.5565   10.0848 H   0  0  0  0  0  0  0  0  0  0  0  0
  -15.6660    2.4293   11.2320 H   0  0  0  0  0  0  0  0  0  0  0  0
  -16.6090    3.0432    9.8652 H   0  0  0  0  0  0  0  0  0  0  0  0
  -15.8181   -0.4488    8.7383 H   0  0  0  0  0  0  0  0  0  0  0  0
  -16.1230   -0.0576   10.4372 H   0  0  0  0  0  0  0  0  0  0  0  0
  -17.1296    0.6571    9.1650 H   0  0  0  0  0  0  0  0  0  0  0  0
  1  2  2  0
  2  3  1  0
  3  4  1  0
  4  5  1  0
  5  6  1  0
  6  7  1  0
  7  8  2  0
  8  9  1  0
  9 10  2  0
 10 11  1  0
 11 12  2  0
 12 13  1  0
 13 14  2  0
 14 15  1  0
  5 16  1  0
 16 17  1  0
 17 18  1  0
 18 19  1  0
 19 20  1  0
 20 21  1  0
 21 22  1  0
 22 23  1  0
 23 24  2  0
 24 25  1  0
 25 26  1  0
 26 27  1  0
 27 28  1  0
 27 29  1  0
 26 30  2  0
 18  4  1  0
 30 23  1  0
 15  7  1  0
 22 18  1  0
 15 11  1  0
  1 31  1  0
  1 32  1  0
  2 33  1  0
  3 34  1  0
  3 35  1  0
  5 36  1  0
  8 37  1  0
  9 38  1  0
 10 39  1  0
 14 40  1  0
 16 41  1  0
 17 42  1  0
 19 43  1  0
 19 44  1  0
 20 45  1  0
 20 46  1  0
 21 47  1  0
 22 48  1  0
 27 49  1  0
 28 50  1  0
 28 51  1  0
 28 52  1  0
 29 53  1  0
 29 54  1  0
 29 55  1  0
M  END
>  <Energy>  (541) 
127.8941200153551

>  <compound_id>  (541) 
831

>  <target_id>  (541) 
1

>  <reference_id>  (541) 
179

>  <inspiration_ids>  (541) 
[69, 179]

>  <energy_score>  (541) 
-102.52812311963083

>  <distance_score>  (541) 
2.2747294418397876

>  <path>  (541) 
/opt/xchem-fragalysis-2/maxwin/BulkDock/SCRATCH/505733/C831-P179/C831-P179.minimised.mol

>  <scratch_subdir>  (541) 
/opt/xchem-fragalysis-2/maxwin/BulkDock/SCRATCH/505733/C831-P179

>  <fragmenstein_runtime>  (541) 
7.425013303756714

>  <fragmenstein_outcome>  (541) 
too moved

>  <fragmenstein_mode>  (541) 
expansion

>  <fragmenstein_error>  (541) 


$$$$
C832-P69
     RDKit          3D

 67 72  0  0  0  0  0  0  0  0999 V2000
  -11.1683   -0.7462   10.2623 C   0  0  0  0  0  0  0  0  0  0  0  0
   -9.9665   -0.5318    9.7181 C   0  0  0  0  0  0  0  0  0  0  0  0
   -9.5126   -1.1310    8.4211 C   0  0  0  0  0  0  0  0  0  0  0  0
   -8.6296   -0.2244    7.7098 N   0  0  0  0  0  0  0  0  0  0  0  0
   -8.9042    1.0664    7.3262 C   0  0  0  0  0  0  0  0  0  0  0  0
  -10.2112    1.5792    6.3149 S   0  0  0  0  0  0  0  0  0  0  0  0
  -11.5917    1.0811    7.2165 C   0  0  0  0  0  0  0  0  0  0  0  0
  -12.4182    0.1406    6.7084 C   0  0  0  0  0  0  0  0  0  0  0  0
  -13.6017   -0.2609    7.4519 C   0  0  0  0  0  0  0  0  0  0  0  0
  -13.9176    0.3138    8.6267 C   0  0  0  0  0  0  0  0  0  0  0  0
  -13.0644    1.3129    9.1697 C   0  0  0  0  0  0  0  0  0  0  0  0
  -13.0822    1.9591   10.3145 N   0  0  0  0  0  0  0  0  0  0  0  0
  -11.9702    2.7686   10.3570 N   0  0  0  0  0  0  0  0  0  0  0  0
  -11.3048    2.6021    9.2354 C   0  0  0  0  0  0  0  0  0  0  0  0
  -11.9276    1.6667    8.4478 N   0  0  0  0  0  0  0  0  0  0  0  0
   -7.8491    1.8103    7.5713 N   0  0  0  0  0  0  0  0  0  0  0  0
   -6.8278    0.9670    7.9243 N   0  0  0  0  0  0  0  0  0  0  0  0
   -7.2547   -0.2731    7.7599 C   0  0  0  0  0  0  0  0  0  0  0  0
   -6.3644   -1.4628    7.5493 C   0  0  0  0  0  0  0  0  0  0  0  0
   -6.9835   -2.7344    6.9346 C   0  0  0  0  0  0  0  0  0  0  0  0
   -6.9811   -2.7986    5.4128 C   0  0  0  0  0  0  0  0  0  0  0  0
   -6.8934   -1.4247    4.7841 C   0  0  0  0  0  0  0  0  0  0  0  0
   -5.6277   -0.6419    5.2379 C   0  0  0  0  0  0  0  0  0  0  0  0
   -4.4735   -0.8453    4.2485 C   0  0  0  0  0  0  0  0  0  0  0  0
   -4.7328    0.0725    3.1411 N   0  0  0  0  0  0  0  0  0  0  0  0
   -5.2984    1.2956    3.7690 C   0  0  0  0  0  0  0  0  0  0  0  0
   -6.2885    1.9322    2.8392 C   0  0  0  0  0  0  0  0  0  0  0  0
   -6.3556    3.2547    2.6354 N   0  0  0  0  0  0  0  0  0  0  0  0
   -7.4269    3.3869    1.7505 O   0  0  0  0  0  0  0  0  0  0  0  0
   -7.8964    2.1267    1.5162 C   0  0  0  0  0  0  0  0  0  0  0  0
   -9.0715    2.0062    0.6109 C   0  0  0  0  0  0  0  0  0  0  0  0
  -10.2914    1.5124    1.3872 C   0  0  0  0  0  0  0  0  0  0  0  0
   -8.7583    1.0721   -0.5564 C   0  0  0  0  0  0  0  0  0  0  0  0
   -7.2315    1.1918    2.1568 N   0  0  0  0  0  0  0  0  0  0  0  0
   -5.9399    0.8580    5.0785 C   0  0  0  0  0  0  0  0  0  0  0  0
   -5.1804   -1.0629    6.6612 C   0  0  0  0  0  0  0  0  0  0  0  0
  -11.4801   -0.2666   11.1851 H   0  0  0  0  0  0  0  0  0  0  0  0
  -11.9085   -1.3565    9.7648 H   0  0  0  0  0  0  0  0  0  0  0  0
   -9.2621    0.1129   10.2412 H   0  0  0  0  0  0  0  0  0  0  0  0
  -10.3223   -1.4217    7.7491 H   0  0  0  0  0  0  0  0  0  0  0  0
   -8.9512   -2.0261    8.6833 H   0  0  0  0  0  0  0  0  0  0  0  0
  -12.2408   -0.3384    5.7488 H   0  0  0  0  0  0  0  0  0  0  0  0
  -14.2378   -1.0316    7.0282 H   0  0  0  0  0  0  0  0  0  0  0  0
  -14.7984    0.0211    9.1870 H   0  0  0  0  0  0  0  0  0  0  0  0
  -10.3846    3.1024    8.9679 H   0  0  0  0  0  0  0  0  0  0  0  0
   -5.9702   -1.6904    8.5377 H   0  0  0  0  0  0  0  0  0  0  0  0
   -7.9914   -2.9448    7.2857 H   0  0  0  0  0  0  0  0  0  0  0  0
   -6.3925   -3.5967    7.2618 H   0  0  0  0  0  0  0  0  0  0  0  0
   -7.8813   -3.3177    5.0630 H   0  0  0  0  0  0  0  0  0  0  0  0
   -6.1315   -3.4050    5.0737 H   0  0  0  0  0  0  0  0  0  0  0  0
   -6.9188   -1.5353    3.6935 H   0  0  0  0  0  0  0  0  0  0  0  0
   -7.8140   -0.8860    5.0365 H   0  0  0  0  0  0  0  0  0  0  0  0
   -3.5073   -0.5979    4.6945 H   0  0  0  0  0  0  0  0  0  0  0  0
   -4.4038   -1.8782    3.8903 H   0  0  0  0  0  0  0  0  0  0  0  0
   -5.4733   -0.3183    2.5505 H   0  0  0  0  0  0  0  0  0  0  0  0
   -4.4762    1.9941    3.9628 H   0  0  0  0  0  0  0  0  0  0  0  0
   -9.3078    2.9955    0.1990 H   0  0  0  0  0  0  0  0  0  0  0  0
  -11.1694    1.4535    0.7353 H   0  0  0  0  0  0  0  0  0  0  0  0
  -10.1210    0.5179    1.8158 H   0  0  0  0  0  0  0  0  0  0  0  0
  -10.5311    2.1914    2.2134 H   0  0  0  0  0  0  0  0  0  0  0  0
   -7.8924    1.4313   -1.1240 H   0  0  0  0  0  0  0  0  0  0  0  0
   -8.5301    0.0571   -0.2111 H   0  0  0  0  0  0  0  0  0  0  0  0
   -9.6087    1.0111   -1.2440 H   0  0  0  0  0  0  0  0  0  0  0  0
   -5.5514    1.4613    5.8925 H   0  0  0  0  0  0  0  0  0  0  0  0
   -7.0170    1.0550    5.0680 H   0  0  0  0  0  0  0  0  0  0  0  0
   -4.4951   -1.9202    6.5938 H   0  0  0  0  0  0  0  0  0  0  0  0
   -4.6076   -0.2736    7.1524 H   0  0  0  0  0  0  0  0  0  0  0  0
  1  2  2  0
  2  3  1  0
  3  4  1  0
  4  5  1  0
  5  6  1  0
  6  7  1  0
  7  8  2  0
  8  9  1  0
  9 10  2  0
 10 11  1  0
 11 12  2  0
 12 13  1  0
 13 14  2  0
 14 15  1  0
  5 16  2  0
 16 17  1  0
 17 18  2  0
 18 19  1  0
 19 20  1  0
 20 21  1  0
 21 22  1  0
 22 23  1  0
 23 24  1  0
 24 25  1  0
 25 26  1  0
 26 27  1  0
 27 28  2  0
 28 29  1  0
 29 30  1  0
 30 31  1  0
 31 32  1  0
 31 33  1  0
 30 34  2  0
 26 35  1  0
 23 36  1  0
 18  4  1  0
 36 19  1  0
 15  7  1  0
 35 23  1  0
 15 11  1  0
 34 27  1  0
  1 37  1  0
  1 38  1  0
  2 39  1  0
  3 40  1  0
  3 41  1  0
  8 42  1  0
  9 43  1  0
 10 44  1  0
 14 45  1  0
 19 46  1  0
 20 47  1  0
 20 48  1  0
 21 49  1  0
 21 50  1  0
 22 51  1  0
 22 52  1  0
 24 53  1  0
 24 54  1  0
 25 55  1  0
 26 56  1  0
 31 57  1  0
 32 58  1  0
 32 59  1  0
 32 60  1  0
 33 61  1  0
 33 62  1  0
 33 63  1  0
 35 64  1  0
 35 65  1  0
 36 66  1  0
 36 67  1  0
M  END
>  <Energy>  (542) 
132.11773348504801

>  <compound_id>  (542) 
832

>  <target_id>  (542) 
1

>  <reference_id>  (542) 
69

>  <inspiration_ids>  (542) 
[69, 181]

>  <energy_score>  (542) 
-65.66753302935564

>  <distance_score>  (542) 
1.7228196239852818

>  <path>  (542) 
/opt/xchem-fragalysis-2/maxwin/BulkDock/SCRATCH/505733/C832-P69/C832-P69.minimised.mol

>  <scratch_subdir>  (542) 
/opt/xchem-fragalysis-2/maxwin/BulkDock/SCRATCH/505733/C832-P69

>  <fragmenstein_runtime>  (542) 
19.25527262687683

>  <fragmenstein_outcome>  (542) 
too moved

>  <fragmenstein_mode>  (542) 
expansion

>  <fragmenstein_error>  (542) 


$$$$
C832-P181
     RDKit          3D

 67 72  0  0  0  0  0  0  0  0999 V2000
  -11.1464   -0.4324   10.2473 C   0  0  0  0  0  0  0  0  0  0  0  0
   -9.9555   -0.2284    9.6757 C   0  0  0  0  0  0  0  0  0  0  0  0
   -9.5213   -0.8715    8.3967 C   0  0  0  0  0  0  0  0  0  0  0  0
   -8.6004   -0.0156    7.6799 N   0  0  0  0  0  0  0  0  0  0  0  0
   -8.8542    1.2267    7.1502 C   0  0  0  0  0  0  0  0  0  0  0  0
  -10.2069    1.7144    6.1825 S   0  0  0  0  0  0  0  0  0  0  0  0
  -11.5821    1.1482    7.0519 C   0  0  0  0  0  0  0  0  0  0  0  0
  -12.3418    0.1547    6.5392 C   0  0  0  0  0  0  0  0  0  0  0  0
  -13.5187   -0.3064    7.2598 C   0  0  0  0  0  0  0  0  0  0  0  0
  -13.9090    0.2797    8.4068 C   0  0  0  0  0  0  0  0  0  0  0  0
  -13.1390    1.3476    8.9461 C   0  0  0  0  0  0  0  0  0  0  0  0
  -13.2313    2.0251   10.0706 N   0  0  0  0  0  0  0  0  0  0  0  0
  -12.1625    2.8917   10.1303 N   0  0  0  0  0  0  0  0  0  0  0  0
  -11.4501    2.7303    9.0371 C   0  0  0  0  0  0  0  0  0  0  0  0
  -11.9962    1.7438    8.2542 N   0  0  0  0  0  0  0  0  0  0  0  0
   -7.7541    1.9417    7.2261 N   0  0  0  0  0  0  0  0  0  0  0  0
   -6.7424    1.1080    7.6230 N   0  0  0  0  0  0  0  0  0  0  0  0
   -7.2222   -0.1202    7.6853 C   0  0  0  0  0  0  0  0  0  0  0  0
   -6.3842   -1.3722    7.6563 C   0  0  0  0  0  0  0  0  0  0  0  0
   -7.0774   -2.6329    7.1130 C   0  0  0  0  0  0  0  0  0  0  0  0
   -7.5178   -2.4691    5.6748 C   0  0  0  0  0  0  0  0  0  0  0  0
   -6.2928   -2.2125    4.8209 C   0  0  0  0  0  0  0  0  0  0  0  0
   -5.3750   -1.0604    5.3055 C   0  0  0  0  0  0  0  0  0  0  0  0
   -4.0964   -1.0899    4.4720 C   0  0  0  0  0  0  0  0  0  0  0  0
   -4.4343   -0.4725    3.1858 N   0  0  0  0  0  0  0  0  0  0  0  0
   -5.5106    0.5221    3.4613 C   0  0  0  0  0  0  0  0  0  0  0  0
   -6.6693    0.3783    2.5043 C   0  0  0  0  0  0  0  0  0  0  0  0
   -6.7049   -0.5305    1.5149 N   0  0  0  0  0  0  0  0  0  0  0  0
   -7.9618   -0.3330    0.9414 O   0  0  0  0  0  0  0  0  0  0  0  0
   -8.5538    0.6780    1.6424 C   0  0  0  0  0  0  0  0  0  0  0  0
   -9.9291    1.0841    1.2413 C   0  0  0  0  0  0  0  0  0  0  0  0
  -10.9240   -0.0534    1.4608 C   0  0  0  0  0  0  0  0  0  0  0  0
   -9.9624    1.5701   -0.2061 C   0  0  0  0  0  0  0  0  0  0  0  0
   -7.8002    1.1534    2.6067 N   0  0  0  0  0  0  0  0  0  0  0  0
   -5.9137    0.3196    4.9147 C   0  0  0  0  0  0  0  0  0  0  0  0
   -5.0951   -1.1721    6.8207 C   0  0  0  0  0  0  0  0  0  0  0  0
  -11.4579    0.1013   11.1408 H   0  0  0  0  0  0  0  0  0  0  0  0
  -11.8854   -1.0800    9.7983 H   0  0  0  0  0  0  0  0  0  0  0  0
   -9.2593    0.4587   10.1534 H   0  0  0  0  0  0  0  0  0  0  0  0
  -10.3341   -1.1552    7.7288 H   0  0  0  0  0  0  0  0  0  0  0  0
   -9.0126   -1.7845    8.6723 H   0  0  0  0  0  0  0  0  0  0  0  0
  -12.1177   -0.3347    5.5953 H   0  0  0  0  0  0  0  0  0  0  0  0
  -14.0830   -1.1375    6.8397 H   0  0  0  0  0  0  0  0  0  0  0  0
  -14.7835   -0.0636    8.9490 H   0  0  0  0  0  0  0  0  0  0  0  0
  -10.5458    3.2668    8.7872 H   0  0  0  0  0  0  0  0  0  0  0  0
   -6.0734   -1.5455    8.6839 H   0  0  0  0  0  0  0  0  0  0  0  0
   -7.9171   -2.9684    7.7178 H   0  0  0  0  0  0  0  0  0  0  0  0
   -6.3686   -3.4715    7.1521 H   0  0  0  0  0  0  0  0  0  0  0  0
   -8.2493   -1.6653    5.5536 H   0  0  0  0  0  0  0  0  0  0  0  0
   -8.0099   -3.3882    5.3355 H   0  0  0  0  0  0  0  0  0  0  0  0
   -6.6235   -2.0730    3.7884 H   0  0  0  0  0  0  0  0  0  0  0  0
   -5.7036   -3.1413    4.8082 H   0  0  0  0  0  0  0  0  0  0  0  0
   -3.3142   -0.5103    4.9541 H   0  0  0  0  0  0  0  0  0  0  0  0
   -3.7044   -2.1009    4.3303 H   0  0  0  0  0  0  0  0  0  0  0  0
   -4.8313   -1.1788    2.5596 H   0  0  0  0  0  0  0  0  0  0  0  0
   -5.1081    1.5309    3.3192 H   0  0  0  0  0  0  0  0  0  0  0  0
  -10.2310    1.9215    1.8836 H   0  0  0  0  0  0  0  0  0  0  0  0
  -11.9450    0.2769    1.2415 H   0  0  0  0  0  0  0  0  0  0  0  0
  -10.7029   -0.9100    0.8145 H   0  0  0  0  0  0  0  0  0  0  0  0
  -10.8995   -0.4036    2.4991 H   0  0  0  0  0  0  0  0  0  0  0  0
   -9.2612    2.3984   -0.3576 H   0  0  0  0  0  0  0  0  0  0  0  0
   -9.6899    0.7727   -0.9068 H   0  0  0  0  0  0  0  0  0  0  0  0
  -10.9638    1.9245   -0.4731 H   0  0  0  0  0  0  0  0  0  0  0  0
   -5.4195    1.0997    5.5066 H   0  0  0  0  0  0  0  0  0  0  0  0
   -6.9938    0.4024    5.0488 H   0  0  0  0  0  0  0  0  0  0  0  0
   -4.4346   -2.0338    6.9928 H   0  0  0  0  0  0  0  0  0  0  0  0
   -4.5362   -0.2965    7.1764 H   0  0  0  0  0  0  0  0  0  0  0  0
  1  2  2  0
  2  3  1  0
  3  4  1  0
  4  5  1  0
  5  6  1  0
  6  7  1  0
  7  8  2  0
  8  9  1  0
  9 10  2  0
 10 11  1  0
 11 12  2  0
 12 13  1  0
 13 14  2  0
 14 15  1  0
  5 16  2  0
 16 17  1  0
 17 18  2  0
 18 19  1  0
 19 20  1  0
 20 21  1  0
 21 22  1  0
 22 23  1  0
 23 24  1  0
 24 25  1  0
 25 26  1  0
 26 27  1  0
 27 28  2  0
 28 29  1  0
 29 30  1  0
 30 31  1  0
 31 32  1  0
 31 33  1  0
 30 34  2  0
 26 35  1  0
 23 36  1  0
 18  4  1  0
 36 19  1  0
 15  7  1  0
 35 23  1  0
 15 11  1  0
 34 27  1  0
  1 37  1  0
  1 38  1  0
  2 39  1  0
  3 40  1  0
  3 41  1  0
  8 42  1  0
  9 43  1  0
 10 44  1  0
 14 45  1  0
 19 46  1  0
 20 47  1  0
 20 48  1  0
 21 49  1  0
 21 50  1  0
 22 51  1  0
 22 52  1  0
 24 53  1  0
 24 54  1  0
 25 55  1  0
 26 56  1  0
 31 57  1  0
 32 58  1  0
 32 59  1  0
 32 60  1  0
 33 61  1  0
 33 62  1  0
 33 63  1  0
 35 64  1  0
 35 65  1  0
 36 66  1  0
 36 67  1  0
M  END
>  <Energy>  (543) 
128.90970685701782

>  <compound_id>  (543) 
832

>  <target_id>  (543) 
1

>  <reference_id>  (543) 
181

>  <inspiration_ids>  (543) 
[69, 181]

>  <energy_score>  (543) 
-68.8755596573867

>  <distance_score>  (543) 
1.7224830740954866

>  <path>  (543) 
/opt/xchem-fragalysis-2/maxwin/BulkDock/SCRATCH/505733/C832-P181/C832-P181.minimised.mol

>  <scratch_subdir>  (543) 
/opt/xchem-fragalysis-2/maxwin/BulkDock/SCRATCH/505733/C832-P181

>  <fragmenstein_runtime>  (543) 
19.251896381378174

>  <fragmenstein_outcome>  (543) 
too moved

>  <fragmenstein_mode>  (543) 
expansion

>  <fragmenstein_error>  (543) 


$$$$
C833-P69
     RDKit          3D

 56 59  0  0  0  0  0  0  0  0999 V2000
  -12.2906    4.3259    5.5866 C   0  0  0  0  0  0  0  0  0  0  0  0
  -12.9697    4.6719    4.2618 C   0  0  0  0  0  0  0  0  0  0  0  0
  -14.4858    4.5393    4.3836 C   0  0  0  0  0  0  0  0  0  0  0  0
  -12.4605    3.8056    3.1636 C   0  0  0  0  0  0  0  0  0  0  0  0
  -12.1667    2.5285    3.1702 N   0  0  0  0  0  0  0  0  0  0  0  0
  -11.7105    2.3263    1.8912 C   0  0  0  0  0  0  0  0  0  0  0  0
  -11.0953    1.0167    1.4898 C   0  0  0  0  0  0  0  0  0  0  0  0
  -11.7027    0.4437    0.2002 C   0  0  0  0  0  0  0  0  0  0  0  0
  -10.5439    0.3245   -0.7797 C   0  0  0  0  0  0  0  0  0  0  0  0
   -9.4862    1.2489   -0.2205 C   0  0  0  0  0  0  0  0  0  0  0  0
   -9.6348    1.0524    1.2209 N   0  0  0  0  0  0  0  0  0  0  0  0
   -8.7989    1.9777    1.9744 C   0  0  0  0  0  0  0  0  0  0  0  0
   -8.7105    1.7830    3.4847 C   0  0  0  0  0  0  0  0  0  0  0  0
   -8.2162    0.3965    4.0284 C   0  0  0  0  0  0  0  0  0  0  0  0
   -7.3432   -0.6004    3.2742 C   0  0  0  0  0  0  0  0  0  0  0  0
   -7.7022   -1.5604    2.2879 C   0  0  0  0  0  0  0  0  0  0  0  0
   -6.6510   -2.3937    1.9698 C   0  0  0  0  0  0  0  0  0  0  0  0
   -5.2334   -2.0195    2.8590 S   0  0  0  0  0  0  0  0  0  0  0  0
   -6.0546   -0.8048    3.6834 C   0  0  0  0  0  0  0  0  0  0  0  0
   -5.5635   -0.0520    4.8355 C   0  0  0  0  0  0  0  0  0  0  0  0
   -6.7205    0.9017    5.2509 C   0  0  0  0  0  0  0  0  0  0  0  0
   -8.0923    0.2302    5.5539 N   0  0  0  0  0  0  0  0  0  0  0  0
   -8.8137    0.9415    6.6894 C   0  0  0  0  0  0  0  0  0  0  0  0
   -9.5748    1.8397    6.6638 O   0  0  0  0  0  0  0  0  0  0  0  0
   -8.4132    0.1797    7.9801 C   0  0  0  0  0  0  0  0  0  0  0  0
   -9.3309    0.7939    9.4095 S   0  0  0  0  0  0  0  0  0  0  0  0
   -8.7343   -1.5654    7.7761 Cl  0  0  0  0  0  0  0  0  0  0  0  0
  -11.7776    3.4068    1.0969 N   0  0  0  0  0  0  0  0  0  0  0  0
  -12.2764    4.3964    1.9470 O   0  0  0  0  0  0  0  0  0  0  0  0
  -12.6337    4.9934    6.3841 H   0  0  0  0  0  0  0  0  0  0  0  0
  -12.5063    3.2963    5.8945 H   0  0  0  0  0  0  0  0  0  0  0  0
  -11.2024    4.4279    5.5072 H   0  0  0  0  0  0  0  0  0  0  0  0
  -12.7338    5.7170    4.0251 H   0  0  0  0  0  0  0  0  0  0  0  0
  -14.9790    4.8176    3.4453 H   0  0  0  0  0  0  0  0  0  0  0  0
  -14.7824    3.5111    4.6211 H   0  0  0  0  0  0  0  0  0  0  0  0
  -14.8722    5.1940    5.1718 H   0  0  0  0  0  0  0  0  0  0  0  0
  -11.2655    0.3034    2.3059 H   0  0  0  0  0  0  0  0  0  0  0  0
  -12.1446   -0.5439    0.3753 H   0  0  0  0  0  0  0  0  0  0  0  0
  -12.4871    1.0838   -0.2198 H   0  0  0  0  0  0  0  0  0  0  0  0
  -10.1781   -0.7098   -0.7959 H   0  0  0  0  0  0  0  0  0  0  0  0
  -10.8371    0.5929   -1.7991 H   0  0  0  0  0  0  0  0  0  0  0  0
   -9.6827    2.2858   -0.5195 H   0  0  0  0  0  0  0  0  0  0  0  0
   -8.4896    0.9664   -0.5754 H   0  0  0  0  0  0  0  0  0  0  0  0
   -7.7713    1.8932    1.5939 H   0  0  0  0  0  0  0  0  0  0  0  0
   -9.0898    3.0168    1.7746 H   0  0  0  0  0  0  0  0  0  0  0  0
   -8.1216    2.6244    3.8613 H   0  0  0  0  0  0  0  0  0  0  0  0
   -9.6979    1.9657    3.9274 H   0  0  0  0  0  0  0  0  0  0  0  0
   -9.1804   -0.1404    3.9375 H   0  0  0  0  0  0  0  0  0  0  0  0
   -8.6861   -1.6488    1.8420 H   0  0  0  0  0  0  0  0  0  0  0  0
   -6.6415   -3.2025    1.2531 H   0  0  0  0  0  0  0  0  0  0  0  0
   -4.6779    0.5294    4.5680 H   0  0  0  0  0  0  0  0  0  0  0  0
   -5.3174   -0.7239    5.6654 H   0  0  0  0  0  0  0  0  0  0  0  0
   -6.6894    1.8570    4.7185 H   0  0  0  0  0  0  0  0  0  0  0  0
   -6.4006    1.2528    6.2456 H   0  0  0  0  0  0  0  0  0  0  0  0
   -7.3435    0.3091    8.1658 H   0  0  0  0  0  0  0  0  0  0  0  0
  -10.5435    0.6179    8.8649 H   0  0  0  0  0  0  0  0  0  0  0  0
  1  2  1  0
  2  3  1  0
  2  4  1  0
  4  5  2  0
  5  6  1  0
  6  7  1  0
  7  8  1  0
  8  9  1  0
  9 10  1  0
 10 11  1  0
 11 12  1  0
 12 13  1  0
 13 14  1  0
 14 15  1  0
 15 16  1  0
 16 17  2  0
 17 18  1  0
 18 19  1  0
 19 20  1  0
 20 21  1  0
 21 22  1  0
 22 23  1  0
 23 24  2  0
 23 25  1  0
 25 26  1  0
 25 27  1  0
  6 28  2  0
 28 29  1  0
 29  4  1  0
 11  7  1  0
 22 14  1  0
 19 15  2  0
  1 30  1  0
  1 31  1  0
  1 32  1  0
  2 33  1  0
  3 34  1  0
  3 35  1  0
  3 36  1  0
  7 37  1  0
  8 38  1  0
  8 39  1  0
  9 40  1  0
  9 41  1  0
 10 42  1  0
 10 43  1  0
 12 44  1  0
 12 45  1  0
 13 46  1  0
 13 47  1  0
 14 48  1  0
 16 49  1  0
 17 50  1  0
 20 51  1  0
 20 52  1  0
 21 53  1  0
 21 54  1  0
 25 55  1  0
 26 56  1  0
M  END
>  <Energy>  (544) 
200.34296393767934

>  <compound_id>  (544) 
833

>  <target_id>  (544) 
1

>  <reference_id>  (544) 
69

>  <inspiration_ids>  (544) 
[69, 182]

>  <energy_score>  (544) 
2.7409255618617863

>  <distance_score>  (544) 
1.6819807528096433

>  <path>  (544) 
/opt/xchem-fragalysis-2/maxwin/BulkDock/SCRATCH/505733/C833-P69/C833-P69.minimised.mol

>  <scratch_subdir>  (544) 
/opt/xchem-fragalysis-2/maxwin/BulkDock/SCRATCH/505733/C833-P69

>  <fragmenstein_runtime>  (544) 
5.523291826248169

>  <fragmenstein_outcome>  (544) 
too moved

>  <fragmenstein_mode>  (544) 
expansion

>  <fragmenstein_error>  (544) 


$$$$
C833-P182
     RDKit          3D

 56 59  0  0  0  0  0  0  0  0999 V2000
  -14.4528    5.1103    3.8842 C   0  0  0  0  0  0  0  0  0  0  0  0
  -12.9373    4.9328    3.9646 C   0  0  0  0  0  0  0  0  0  0  0  0
  -12.2233    6.2788    3.8377 C   0  0  0  0  0  0  0  0  0  0  0  0
  -12.4656    3.9643    2.9369 C   0  0  0  0  0  0  0  0  0  0  0  0
  -12.0881    2.7189    3.0885 N   0  0  0  0  0  0  0  0  0  0  0  0
  -11.7461    2.3584    1.8083 C   0  0  0  0  0  0  0  0  0  0  0  0
  -11.1281    1.0208    1.5253 C   0  0  0  0  0  0  0  0  0  0  0  0
  -11.7130    0.3343    0.2829 C   0  0  0  0  0  0  0  0  0  0  0  0
  -10.5814    0.2839   -0.7363 C   0  0  0  0  0  0  0  0  0  0  0  0
   -9.5217    1.2129   -0.1862 C   0  0  0  0  0  0  0  0  0  0  0  0
   -9.6714    1.0489    1.2594 N   0  0  0  0  0  0  0  0  0  0  0  0
   -8.8348    1.9873    1.9937 C   0  0  0  0  0  0  0  0  0  0  0  0
   -8.7023    1.8199    3.5122 C   0  0  0  0  0  0  0  0  0  0  0  0
   -8.4472    0.3696    4.0496 C   0  0  0  0  0  0  0  0  0  0  0  0
   -7.2848   -0.4641    3.5438 C   0  0  0  0  0  0  0  0  0  0  0  0
   -7.2293   -1.4198    2.4939 C   0  0  0  0  0  0  0  0  0  0  0  0
   -6.0135   -2.0694    2.4634 C   0  0  0  0  0  0  0  0  0  0  0  0
   -4.9484   -1.5179    3.6929 S   0  0  0  0  0  0  0  0  0  0  0  0
   -6.1340   -0.4797    4.2779 C   0  0  0  0  0  0  0  0  0  0  0  0
   -6.1066    0.2669    5.5386 C   0  0  0  0  0  0  0  0  0  0  0  0
   -7.5351    0.8673    5.7591 C   0  0  0  0  0  0  0  0  0  0  0  0
   -8.7789   -0.0267    5.5124 N   0  0  0  0  0  0  0  0  0  0  0  0
   -9.9363    0.3820    6.4108 C   0  0  0  0  0  0  0  0  0  0  0  0
  -10.8056    1.1579    6.2293 O   0  0  0  0  0  0  0  0  0  0  0  0
   -9.8898   -0.4703    7.7130 C   0  0  0  0  0  0  0  0  0  0  0  0
   -9.4165    0.5843    9.1107 S   0  0  0  0  0  0  0  0  0  0  0  0
   -8.8005   -1.8785    7.6050 Cl  0  0  0  0  0  0  0  0  0  0  0  0
  -11.9371    3.3166    0.8874 N   0  0  0  0  0  0  0  0  0  0  0  0
  -12.4253    4.3873    1.6382 O   0  0  0  0  0  0  0  0  0  0  0  0
  -14.8080    5.7784    4.6759 H   0  0  0  0  0  0  0  0  0  0  0  0
  -14.7574    5.5357    2.9207 H   0  0  0  0  0  0  0  0  0  0  0  0
  -14.9690    4.1505    3.9997 H   0  0  0  0  0  0  0  0  0  0  0  0
  -12.6948    4.5176    4.9519 H   0  0  0  0  0  0  0  0  0  0  0  0
  -12.4670    6.7776    2.8911 H   0  0  0  0  0  0  0  0  0  0  0  0
  -12.5155    6.9489    4.6530 H   0  0  0  0  0  0  0  0  0  0  0  0
  -11.1344    6.1544    3.8769 H   0  0  0  0  0  0  0  0  0  0  0  0
  -11.3114    0.3812    2.3977 H   0  0  0  0  0  0  0  0  0  0  0  0
  -12.5822    0.8580   -0.1303 H   0  0  0  0  0  0  0  0  0  0  0  0
  -12.0326   -0.6881    0.5190 H   0  0  0  0  0  0  0  0  0  0  0  0
  -10.1945   -0.7404   -0.8059 H   0  0  0  0  0  0  0  0  0  0  0  0
  -10.9150    0.5824   -1.7348 H   0  0  0  0  0  0  0  0  0  0  0  0
   -9.7111    2.2445   -0.5065 H   0  0  0  0  0  0  0  0  0  0  0  0
   -8.5253    0.9208   -0.5340 H   0  0  0  0  0  0  0  0  0  0  0  0
   -7.8146    1.8877    1.5963 H   0  0  0  0  0  0  0  0  0  0  0  0
   -9.1199    3.0259    1.7806 H   0  0  0  0  0  0  0  0  0  0  0  0
   -7.8833    2.4965    3.7818 H   0  0  0  0  0  0  0  0  0  0  0  0
   -9.6037    2.2118    3.9957 H   0  0  0  0  0  0  0  0  0  0  0  0
   -9.3028   -0.1574    3.5953 H   0  0  0  0  0  0  0  0  0  0  0  0
   -8.0417   -1.6371    1.8081 H   0  0  0  0  0  0  0  0  0  0  0  0
   -5.6937   -2.8386    1.7747 H   0  0  0  0  0  0  0  0  0  0  0  0
   -5.3652    1.0717    5.5247 H   0  0  0  0  0  0  0  0  0  0  0  0
   -5.8648   -0.4079    6.3690 H   0  0  0  0  0  0  0  0  0  0  0  0
   -7.5457    0.9558    6.8567 H   0  0  0  0  0  0  0  0  0  0  0  0
   -7.6435    1.9385    5.5585 H   0  0  0  0  0  0  0  0  0  0  0  0
  -10.8986   -0.8603    7.8795 H   0  0  0  0  0  0  0  0  0  0  0  0
   -8.1045    0.3305    9.0364 H   0  0  0  0  0  0  0  0  0  0  0  0
  1  2  1  0
  2  3  1  0
  2  4  1  0
  4  5  2  0
  5  6  1  0
  6  7  1  0
  7  8  1  0
  8  9  1  0
  9 10  1  0
 10 11  1  0
 11 12  1  0
 12 13  1  0
 13 14  1  0
 14 15  1  0
 15 16  1  0
 16 17  2  0
 17 18  1  0
 18 19  1  0
 19 20  1  0
 20 21  1  0
 21 22  1  0
 22 23  1  0
 23 24  2  0
 23 25  1  0
 25 26  1  0
 25 27  1  0
  6 28  2  0
 28 29  1  0
 29  4  1  0
 11  7  1  0
 22 14  1  0
 19 15  2  0
  1 30  1  0
  1 31  1  0
  1 32  1  0
  2 33  1  0
  3 34  1  0
  3 35  1  0
  3 36  1  0
  7 37  1  0
  8 38  1  0
  8 39  1  0
  9 40  1  0
  9 41  1  0
 10 42  1  0
 10 43  1  0
 12 44  1  0
 12 45  1  0
 13 46  1  0
 13 47  1  0
 14 48  1  0
 16 49  1  0
 17 50  1  0
 20 51  1  0
 20 52  1  0
 21 53  1  0
 21 54  1  0
 25 55  1  0
 26 56  1  0
M  END
>  <Energy>  (545) 
202.08359983106754

>  <compound_id>  (545) 
833

>  <target_id>  (545) 
1

>  <reference_id>  (545) 
182

>  <inspiration_ids>  (545) 
[69, 182]

>  <energy_score>  (545) 
4.481561455250983

>  <distance_score>  (545) 
1.7830836176674079

>  <path>  (545) 
/opt/xchem-fragalysis-2/maxwin/BulkDock/SCRATCH/505733/C833-P182/C833-P182.minimised.mol

>  <scratch_subdir>  (545) 
/opt/xchem-fragalysis-2/maxwin/BulkDock/SCRATCH/505733/C833-P182

>  <fragmenstein_runtime>  (545) 
5.207418918609619

>  <fragmenstein_outcome>  (545) 
too moved

>  <fragmenstein_mode>  (545) 
expansion

>  <fragmenstein_error>  (545) 


$$$$
C834-P70
     RDKit          3D

 56 61  0  0  0  0  0  0  0  0999 V2000
   -0.9955    3.5510   23.3939 C   0  0  0  0  0  0  0  0  0  0  0  0
   -1.5973    3.8495   24.7641 C   0  0  0  0  0  0  0  0  0  0  0  0
   -3.0934    4.0985   24.6534 C   0  0  0  0  0  0  0  0  0  0  0  0
   -1.2382    2.7670   25.7264 C   0  0  0  0  0  0  0  0  0  0  0  0
   -1.8202    1.6282   26.0481 N   0  0  0  0  0  0  0  0  0  0  0  0
   -0.9448    1.0994   26.9970 C   0  0  0  0  0  0  0  0  0  0  0  0
   -1.4385    0.1423   28.0482 C   0  0  0  0  0  0  0  0  0  0  0  0
   -1.8224    1.0780   29.2020 C   0  0  0  0  0  0  0  0  0  0  0  0
   -0.5780    1.1768   30.1080 C   0  0  0  0  0  0  0  0  0  0  0  0
    0.3429    0.0566   29.6858 C   0  0  0  0  0  0  0  0  0  0  0  0
   -0.5541   -0.8655   28.8421 C   0  0  0  0  0  0  0  0  0  0  0  0
    0.3138   -1.9065   28.1048 C   0  0  0  0  0  0  0  0  0  0  0  0
    1.1384   -2.8289   29.0570 C   0  0  0  0  0  0  0  0  0  0  0  0
    0.4368   -3.0804   30.3489 C   0  0  0  0  0  0  0  0  0  0  0  0
    0.9935   -3.6286   31.4619 N   0  0  0  0  0  0  0  0  0  0  0  0
    0.1033   -3.4629   32.4124 C   0  0  0  0  0  0  0  0  0  0  0  0
    0.2604   -3.9785   34.0524 S   0  0  0  0  0  0  0  0  0  0  0  0
    0.6778   -5.6357   33.7227 C   0  0  0  0  0  0  0  0  0  0  0  0
   -0.2305   -6.6100   33.9480 C   0  0  0  0  0  0  0  0  0  0  0  0
    0.1097   -7.9981   33.6771 C   0  0  0  0  0  0  0  0  0  0  0  0
    1.3283   -8.3433   33.2231 C   0  0  0  0  0  0  0  0  0  0  0  0
    2.3074   -7.3372   33.0096 C   0  0  0  0  0  0  0  0  0  0  0  0
    3.5603   -7.4004   32.6143 N   0  0  0  0  0  0  0  0  0  0  0  0
    4.0540   -6.1184   32.5844 N   0  0  0  0  0  0  0  0  0  0  0  0
    3.0898   -5.3068   32.9627 C   0  0  0  0  0  0  0  0  0  0  0  0
    1.9513   -6.0139   33.2559 N   0  0  0  0  0  0  0  0  0  0  0  0
   -1.0155   -2.8224   31.9716 N   0  0  0  0  0  0  0  0  0  0  0  0
   -0.7906   -2.5611   30.6523 C   0  0  0  0  0  0  0  0  0  0  0  0
   -1.5552   -1.7027   29.7441 C   0  0  0  0  0  0  0  0  0  0  0  0
    0.1539    1.8429   27.1734 N   0  0  0  0  0  0  0  0  0  0  0  0
   -0.0487    2.9477   26.3641 O   0  0  0  0  0  0  0  0  0  0  0  0
    0.0934    3.4470   23.4570 H   0  0  0  0  0  0  0  0  0  0  0  0
   -1.2105    4.3643   22.6927 H   0  0  0  0  0  0  0  0  0  0  0  0
   -1.3917    2.6236   22.9715 H   0  0  0  0  0  0  0  0  0  0  0  0
   -1.1448    4.7786   25.1366 H   0  0  0  0  0  0  0  0  0  0  0  0
   -3.6001    3.9424   25.6085 H   0  0  0  0  0  0  0  0  0  0  0  0
   -3.5542    3.4546   23.9068 H   0  0  0  0  0  0  0  0  0  0  0  0
   -3.2814    5.1279   24.3282 H   0  0  0  0  0  0  0  0  0  0  0  0
   -2.3195   -0.3657   27.6400 H   0  0  0  0  0  0  0  0  0  0  0  0
   -2.1496    2.0532   28.8248 H   0  0  0  0  0  0  0  0  0  0  0  0
   -2.6577    0.6871   29.7813 H   0  0  0  0  0  0  0  0  0  0  0  0
   -0.0688    2.1411   30.0041 H   0  0  0  0  0  0  0  0  0  0  0  0
   -0.8627    1.0621   31.1601 H   0  0  0  0  0  0  0  0  0  0  0  0
    0.7975   -0.4086   30.5647 H   0  0  0  0  0  0  0  0  0  0  0  0
    1.1763    0.4476   29.0907 H   0  0  0  0  0  0  0  0  0  0  0  0
   -0.3588   -2.5558   27.5423 H   0  0  0  0  0  0  0  0  0  0  0  0
    0.9928   -1.4259   27.3934 H   0  0  0  0  0  0  0  0  0  0  0  0
    2.0991   -2.3457   29.2718 H   0  0  0  0  0  0  0  0  0  0  0  0
    1.3577   -3.7766   28.5530 H   0  0  0  0  0  0  0  0  0  0  0  0
   -1.2262   -6.3963   34.3199 H   0  0  0  0  0  0  0  0  0  0  0  0
   -0.6504   -8.7556   33.8409 H   0  0  0  0  0  0  0  0  0  0  0  0
    1.5896   -9.3739   33.0084 H   0  0  0  0  0  0  0  0  0  0  0  0
    3.1579   -4.2307   33.0309 H   0  0  0  0  0  0  0  0  0  0  0  0
   -1.7943   -2.5368   32.5487 H   0  0  0  0  0  0  0  0  0  0  0  0
   -2.1735   -2.3357   29.0983 H   0  0  0  0  0  0  0  0  0  0  0  0
   -2.2193   -1.0991   30.3623 H   0  0  0  0  0  0  0  0  0  0  0  0
  1  2  1  0
  2  3  1  0
  2  4  1  0
  4  5  2  0
  5  6  1  0
  6  7  1  0
  7  8  1  0
  8  9  1  0
  9 10  1  0
 10 11  1  0
 11 12  1  0
 12 13  1  0
 13 14  1  0
 14 15  1  0
 15 16  2  0
 16 17  1  0
 17 18  1  0
 18 19  2  0
 19 20  1  0
 20 21  2  0
 21 22  1  0
 22 23  2  0
 23 24  1  0
 24 25  2  0
 25 26  1  0
 16 27  1  0
 27 28  1  0
 28 29  1  0
  6 30  2  0
 30 31  1  0
 31  4  1  0
 11  7  1  0
 28 14  2  0
 29 11  1  0
 26 18  1  0
 26 22  1  0
  1 32  1  0
  1 33  1  0
  1 34  1  0
  2 35  1  0
  3 36  1  0
  3 37  1  0
  3 38  1  0
  7 39  1  0
  8 40  1  0
  8 41  1  0
  9 42  1  0
  9 43  1  0
 10 44  1  0
 10 45  1  0
 12 46  1  0
 12 47  1  0
 13 48  1  0
 13 49  1  0
 19 50  1  0
 20 51  1  0
 21 52  1  0
 25 53  1  0
 27 54  1  0
 29 55  1  0
 29 56  1  0
M  END
>  <Energy>  (546) 
80.811275274406526

>  <compound_id>  (546) 
834

>  <target_id>  (546) 
1

>  <reference_id>  (546) 
70

>  <inspiration_ids>  (546) 
[70, 13]

>  <energy_score>  (546) 
-53.29033041709772

>  <distance_score>  (546) 
1.8045844447832675

>  <path>  (546) 
/opt/xchem-fragalysis-2/maxwin/BulkDock/SCRATCH/505733/C834-P70/C834-P70.minimised.mol

>  <scratch_subdir>  (546) 
/opt/xchem-fragalysis-2/maxwin/BulkDock/SCRATCH/505733/C834-P70

>  <fragmenstein_runtime>  (546) 
5.682316064834595

>  <fragmenstein_outcome>  (546) 
too moved

>  <fragmenstein_mode>  (546) 
expansion

>  <fragmenstein_error>  (546) 


$$$$
C834-P13
     RDKit          3D

 56 61  0  0  0  0  0  0  0  0999 V2000
   -1.2802    3.4359   23.3702 C   0  0  0  0  0  0  0  0  0  0  0  0
   -1.7304    3.7120   24.8000 C   0  0  0  0  0  0  0  0  0  0  0  0
   -3.2266    3.9542   24.8446 C   0  0  0  0  0  0  0  0  0  0  0  0
   -1.3099    2.6132   25.7176 C   0  0  0  0  0  0  0  0  0  0  0  0
   -1.8748    1.4664   26.0330 N   0  0  0  0  0  0  0  0  0  0  0  0
   -0.9541    0.8928   26.9128 C   0  0  0  0  0  0  0  0  0  0  0  0
   -1.4527   -0.0531   27.9721 C   0  0  0  0  0  0  0  0  0  0  0  0
   -1.8373    0.9445   29.0705 C   0  0  0  0  0  0  0  0  0  0  0  0
   -0.6103    1.0555   30.0069 C   0  0  0  0  0  0  0  0  0  0  0  0
    0.2946   -0.0864   29.6436 C   0  0  0  0  0  0  0  0  0  0  0  0
   -0.6239   -1.0358   28.8568 C   0  0  0  0  0  0  0  0  0  0  0  0
    0.2424   -2.1730   28.2816 C   0  0  0  0  0  0  0  0  0  0  0  0
    0.9709   -3.0340   29.3762 C   0  0  0  0  0  0  0  0  0  0  0  0
    0.2106   -3.0957   30.6624 C   0  0  0  0  0  0  0  0  0  0  0  0
    0.7221   -3.4226   31.8862 N   0  0  0  0  0  0  0  0  0  0  0  0
   -0.1915   -3.0474   32.7547 C   0  0  0  0  0  0  0  0  0  0  0  0
   -0.0722   -3.0655   34.4757 S   0  0  0  0  0  0  0  0  0  0  0  0
    0.5606   -4.6708   34.6621 C   0  0  0  0  0  0  0  0  0  0  0  0
   -0.2325   -5.6524   35.1437 C   0  0  0  0  0  0  0  0  0  0  0  0
    0.3067   -6.9893   35.3411 C   0  0  0  0  0  0  0  0  0  0  0  0
    1.5948   -7.2705   35.0719 C   0  0  0  0  0  0  0  0  0  0  0  0
    2.4484   -6.2451   34.5849 C   0  0  0  0  0  0  0  0  0  0  0  0
    3.7270   -6.2366   34.2785 N   0  0  0  0  0  0  0  0  0  0  0  0
    4.0509   -4.9639   33.8704 N   0  0  0  0  0  0  0  0  0  0  0  0
    2.9602   -4.2318   33.9326 C   0  0  0  0  0  0  0  0  0  0  0  0
    1.9044   -4.9796   34.3878 N   0  0  0  0  0  0  0  0  0  0  0  0
   -1.3022   -2.5396   32.1515 N   0  0  0  0  0  0  0  0  0  0  0  0
   -1.0174   -2.5185   30.8202 C   0  0  0  0  0  0  0  0  0  0  0  0
   -1.7040   -1.7731   29.7646 C   0  0  0  0  0  0  0  0  0  0  0  0
    0.1455    1.6447   27.0781 N   0  0  0  0  0  0  0  0  0  0  0  0
   -0.0961    2.7795   26.3124 O   0  0  0  0  0  0  0  0  0  0  0  0
   -0.1909    3.3461   23.3180 H   0  0  0  0  0  0  0  0  0  0  0  0
   -1.5746    4.2557   22.7060 H   0  0  0  0  0  0  0  0  0  0  0  0
   -1.7187    2.5139   22.9774 H   0  0  0  0  0  0  0  0  0  0  0  0
   -1.2402    4.6346   25.1384 H   0  0  0  0  0  0  0  0  0  0  0  0
   -3.7864    3.1898   24.3136 H   0  0  0  0  0  0  0  0  0  0  0  0
   -3.4768    4.9180   24.3898 H   0  0  0  0  0  0  0  0  0  0  0  0
   -3.5744    3.9436   25.8776 H   0  0  0  0  0  0  0  0  0  0  0  0
   -2.3366   -0.5607   27.5686 H   0  0  0  0  0  0  0  0  0  0  0  0
   -2.1308    1.9161   28.6521 H   0  0  0  0  0  0  0  0  0  0  0  0
   -2.7025    0.6086   29.6354 H   0  0  0  0  0  0  0  0  0  0  0  0
   -0.0904    2.0133   29.8957 H   0  0  0  0  0  0  0  0  0  0  0  0
   -0.9140    0.9560   31.0550 H   0  0  0  0  0  0  0  0  0  0  0  0
    0.7524   -0.5042   30.5439 H   0  0  0  0  0  0  0  0  0  0  0  0
    1.1275    0.2605   29.0211 H   0  0  0  0  0  0  0  0  0  0  0  0
   -0.4136   -2.8500   27.7310 H   0  0  0  0  0  0  0  0  0  0  0  0
    0.9921   -1.7763   27.5928 H   0  0  0  0  0  0  0  0  0  0  0  0
    1.9526   -2.5872   29.5756 H   0  0  0  0  0  0  0  0  0  0  0  0
    1.1484   -4.0436   28.9917 H   0  0  0  0  0  0  0  0  0  0  0  0
   -1.2709   -5.4787   35.4081 H   0  0  0  0  0  0  0  0  0  0  0  0
   -0.3570   -7.7569   35.7260 H   0  0  0  0  0  0  0  0  0  0  0  0
    2.0102   -8.2605   35.2243 H   0  0  0  0  0  0  0  0  0  0  0  0
    2.8807   -3.1895   33.6608 H   0  0  0  0  0  0  0  0  0  0  0  0
   -2.0900   -2.1287   32.6325 H   0  0  0  0  0  0  0  0  0  0  0  0
   -2.2783   -2.4681   29.1458 H   0  0  0  0  0  0  0  0  0  0  0  0
   -2.4222   -1.1241   30.2614 H   0  0  0  0  0  0  0  0  0  0  0  0
  1  2  1  0
  2  3  1  0
  2  4  1  0
  4  5  2  0
  5  6  1  0
  6  7  1  0
  7  8  1  0
  8  9  1  0
  9 10  1  0
 10 11  1  0
 11 12  1  0
 12 13  1  0
 13 14  1  0
 14 15  1  0
 15 16  2  0
 16 17  1  0
 17 18  1  0
 18 19  2  0
 19 20  1  0
 20 21  2  0
 21 22  1  0
 22 23  2  0
 23 24  1  0
 24 25  2  0
 25 26  1  0
 16 27  1  0
 27 28  1  0
 28 29  1  0
  6 30  2  0
 30 31  1  0
 31  4  1  0
 11  7  1  0
 28 14  2  0
 29 11  1  0
 26 18  1  0
 26 22  1  0
  1 32  1  0
  1 33  1  0
  1 34  1  0
  2 35  1  0
  3 36  1  0
  3 37  1  0
  3 38  1  0
  7 39  1  0
  8 40  1  0
  8 41  1  0
  9 42  1  0
  9 43  1  0
 10 44  1  0
 10 45  1  0
 12 46  1  0
 12 47  1  0
 13 48  1  0
 13 49  1  0
 19 50  1  0
 20 51  1  0
 21 52  1  0
 25 53  1  0
 27 54  1  0
 29 55  1  0
 29 56  1  0
M  END
>  <Energy>  (547) 
90.854971836211419

>  <compound_id>  (547) 
834

>  <target_id>  (547) 
1

>  <reference_id>  (547) 
13

>  <inspiration_ids>  (547) 
[70, 13]

>  <energy_score>  (547) 
-43.24663385529203

>  <distance_score>  (547) 
1.7446140136730428

>  <path>  (547) 
/opt/xchem-fragalysis-2/maxwin/BulkDock/SCRATCH/505733/C834-P13/C834-P13.minimised.mol

>  <scratch_subdir>  (547) 
/opt/xchem-fragalysis-2/maxwin/BulkDock/SCRATCH/505733/C834-P13

>  <fragmenstein_runtime>  (547) 
4.130902051925659

>  <fragmenstein_outcome>  (547) 
too moved

>  <fragmenstein_mode>  (547) 
expansion

>  <fragmenstein_error>  (547) 


$$$$
C835-P70
     RDKit          3D

 48 50  0  0  0  0  0  0  0  0999 V2000
   -0.8501    4.0136   23.6681 C   0  0  0  0  0  0  0  0  0  0  0  0
   -2.2110    3.6172   24.2252 C   0  0  0  0  0  0  0  0  0  0  0  0
   -3.2138    4.7474   24.1246 C   0  0  0  0  0  0  0  0  0  0  0  0
   -2.0626    3.0654   25.6024 C   0  0  0  0  0  0  0  0  0  0  0  0
   -1.5833    1.8884   25.9373 N   0  0  0  0  0  0  0  0  0  0  0  0
   -1.4151    2.0224   27.2965 C   0  0  0  0  0  0  0  0  0  0  0  0
   -0.5163    1.1050   28.0609 C   0  0  0  0  0  0  0  0  0  0  0  0
    0.5832    1.8658   28.7077 N   0  0  0  0  0  0  0  0  0  0  0  0
    1.0745    0.9844   29.7615 C   0  0  0  0  0  0  0  0  0  0  0  0
   -0.1845    0.3949   30.3594 C   0  0  0  0  0  0  0  0  0  0  0  0
   -1.1442    0.2840   29.1801 C   0  0  0  0  0  0  0  0  0  0  0  0
   -1.3525   -1.3930   28.6176 S   0  0  0  0  0  0  0  0  0  0  0  0
   -1.5295   -2.2864   29.7478 O   0  0  0  0  0  0  0  0  0  0  0  0
   -2.3291   -1.3332   27.5580 O   0  0  0  0  0  0  0  0  0  0  0  0
    0.1132   -1.7127   27.9112 N   0  0  0  0  0  0  0  0  0  0  0  0
    1.0443   -2.7053   28.4129 C   0  0  0  0  0  0  0  0  0  0  0  0
    0.5424   -4.1171   28.1029 C   0  0  0  0  0  0  0  0  0  0  0  0
    0.7110   -4.8247   29.3863 C   0  0  0  0  0  0  0  0  0  0  0  0
    1.9174   -5.1639   29.6776 N   0  0  0  0  0  0  0  0  0  0  0  0
    2.1627   -5.5186   30.9707 C   0  0  0  0  0  0  0  0  0  0  0  0
    3.2935   -5.4734   31.4249 O   0  0  0  0  0  0  0  0  0  0  0  0
    1.0227   -5.8590   31.8511 C   0  0  0  0  0  0  0  0  0  0  0  0
   -0.1939   -5.4943   31.4533 C   0  0  0  0  0  0  0  0  0  0  0  0
   -0.3644   -4.9314   30.2290 N   0  0  0  0  0  0  0  0  0  0  0  0
   -1.8735    3.1720   27.8057 N   0  0  0  0  0  0  0  0  0  0  0  0
   -2.3022    3.8749   26.6747 O   0  0  0  0  0  0  0  0  0  0  0  0
   -0.9361    4.3672   22.6353 H   0  0  0  0  0  0  0  0  0  0  0  0
   -0.3961    4.8157   24.2614 H   0  0  0  0  0  0  0  0  0  0  0  0
   -0.1563    3.1663   23.6746 H   0  0  0  0  0  0  0  0  0  0  0  0
   -2.5774    2.8225   23.5741 H   0  0  0  0  0  0  0  0  0  0  0  0
   -4.1854    4.4130   24.4893 H   0  0  0  0  0  0  0  0  0  0  0  0
   -3.3403    5.0683   23.0850 H   0  0  0  0  0  0  0  0  0  0  0  0
   -2.9030    5.6202   24.7072 H   0  0  0  0  0  0  0  0  0  0  0  0
   -0.0205    0.5001   27.2990 H   0  0  0  0  0  0  0  0  0  0  0  0
    0.1864    2.7214   29.1082 H   0  0  0  0  0  0  0  0  0  0  0  0
    1.7178    0.2077   29.3342 H   0  0  0  0  0  0  0  0  0  0  0  0
    1.6617    1.5345   30.5029 H   0  0  0  0  0  0  0  0  0  0  0  0
    0.0165   -0.5478   30.8756 H   0  0  0  0  0  0  0  0  0  0  0  0
   -0.5955    1.0914   31.0996 H   0  0  0  0  0  0  0  0  0  0  0  0
   -2.1389    0.6343   29.4732 H   0  0  0  0  0  0  0  0  0  0  0  0
    0.1223   -1.6373   26.8977 H   0  0  0  0  0  0  0  0  0  0  0  0
    1.2259   -2.5075   29.4764 H   0  0  0  0  0  0  0  0  0  0  0  0
    2.0046   -2.5466   27.9073 H   0  0  0  0  0  0  0  0  0  0  0  0
    1.1537   -4.5751   27.3286 H   0  0  0  0  0  0  0  0  0  0  0  0
   -0.5050   -4.1565   27.8045 H   0  0  0  0  0  0  0  0  0  0  0  0
    1.2390   -6.2692   32.8266 H   0  0  0  0  0  0  0  0  0  0  0  0
   -1.0686   -5.5896   32.0849 H   0  0  0  0  0  0  0  0  0  0  0  0
   -1.0974   -4.2225   30.1299 H   0  0  0  0  0  0  0  0  0  0  0  0
  1  2  1  0
  2  3  1  0
  2  4  1  0
  4  5  2  0
  5  6  1  0
  6  7  1  0
  7  8  1  0
  8  9  1  0
  9 10  1  0
 10 11  1  0
 11 12  1  0
 12 13  2  0
 12 14  2  0
 12 15  1  0
 15 16  1  0
 16 17  1  0
 17 18  1  0
 18 19  2  0
 19 20  1  0
 20 21  2  0
 20 22  1  0
 22 23  2  0
 23 24  1  0
  6 25  2  0
 25 26  1  0
 26  4  1  0
 11  7  1  0
 24 18  1  0
  1 27  1  0
  1 28  1  0
  1 29  1  0
  2 30  1  0
  3 31  1  0
  3 32  1  0
  3 33  1  0
  7 34  1  0
  8 35  1  0
  9 36  1  0
  9 37  1  0
 10 38  1  0
 10 39  1  0
 11 40  1  0
 15 41  1  0
 16 42  1  0
 16 43  1  0
 17 44  1  0
 17 45  1  0
 22 46  1  0
 23 47  1  0
 24 48  1  0
M  END
>  <Energy>  (548) 
-72.66224188195784

>  <compound_id>  (548) 
835

>  <target_id>  (548) 
1

>  <reference_id>  (548) 
70

>  <inspiration_ids>  (548) 
[70, 40]

>  <energy_score>  (548) 
-68.94685889790446

>  <distance_score>  (548) 
1.773592675492116

>  <path>  (548) 
/opt/xchem-fragalysis-2/maxwin/BulkDock/SCRATCH/505733/C835-P70/C835-P70.minimised.mol

>  <scratch_subdir>  (548) 
/opt/xchem-fragalysis-2/maxwin/BulkDock/SCRATCH/505733/C835-P70

>  <fragmenstein_runtime>  (548) 
5.4236555099487305

>  <fragmenstein_outcome>  (548) 
too moved

>  <fragmenstein_mode>  (548) 
expansion

>  <fragmenstein_error>  (548) 


$$$$
C835-P40
     RDKit          3D

 48 50  0  0  0  0  0  0  0  0999 V2000
   -1.3445    3.3128   23.3124 C   0  0  0  0  0  0  0  0  0  0  0  0
   -2.3790    3.6499   24.3838 C   0  0  0  0  0  0  0  0  0  0  0  0
   -2.4883    5.1573   24.4682 C   0  0  0  0  0  0  0  0  0  0  0  0
   -2.0475    2.9919   25.6867 C   0  0  0  0  0  0  0  0  0  0  0  0
   -1.2540    1.9682   25.9075 N   0  0  0  0  0  0  0  0  0  0  0  0
   -1.3120    1.8118   27.2723 C   0  0  0  0  0  0  0  0  0  0  0  0
   -0.3728    0.8774   27.9785 C   0  0  0  0  0  0  0  0  0  0  0  0
    0.7706    1.6588   28.5003 N   0  0  0  0  0  0  0  0  0  0  0  0
    1.3747    0.8611   29.5495 C   0  0  0  0  0  0  0  0  0  0  0  0
    0.1760    0.2990   30.2824 C   0  0  0  0  0  0  0  0  0  0  0  0
   -0.8806    0.1266   29.2014 C   0  0  0  0  0  0  0  0  0  0  0  0
   -1.2339   -1.5703   28.7964 S   0  0  0  0  0  0  0  0  0  0  0  0
   -1.4368   -2.3275   30.0126 O   0  0  0  0  0  0  0  0  0  0  0  0
   -2.2737   -1.4709   27.7994 O   0  0  0  0  0  0  0  0  0  0  0  0
    0.0854   -2.1998   27.9998 N   0  0  0  0  0  0  0  0  0  0  0  0
    1.3908   -2.5537   28.5607 C   0  0  0  0  0  0  0  0  0  0  0  0
    1.8003   -4.0235   28.2499 C   0  0  0  0  0  0  0  0  0  0  0  0
    1.2275   -4.9755   29.2475 C   0  0  0  0  0  0  0  0  0  0  0  0
    1.1046   -4.5273   30.4451 N   0  0  0  0  0  0  0  0  0  0  0  0
    0.4689   -5.2835   31.3806 C   0  0  0  0  0  0  0  0  0  0  0  0
    0.3062   -4.8898   32.5227 O   0  0  0  0  0  0  0  0  0  0  0  0
   -0.0382   -6.6276   30.9965 C   0  0  0  0  0  0  0  0  0  0  0  0
    0.2152   -7.0551   29.7610 C   0  0  0  0  0  0  0  0  0  0  0  0
    0.8902   -6.2535   28.8924 N   0  0  0  0  0  0  0  0  0  0  0  0
   -2.0965    2.7040   27.8836 N   0  0  0  0  0  0  0  0  0  0  0  0
   -2.6077    3.4755   26.8330 O   0  0  0  0  0  0  0  0  0  0  0  0
   -0.3228    3.5105   23.6554 H   0  0  0  0  0  0  0  0  0  0  0  0
   -1.4165    2.2661   23.0290 H   0  0  0  0  0  0  0  0  0  0  0  0
   -1.5096    3.8950   22.4003 H   0  0  0  0  0  0  0  0  0  0  0  0
   -3.3518    3.2807   24.0516 H   0  0  0  0  0  0  0  0  0  0  0  0
   -2.5326    5.6200   23.4759 H   0  0  0  0  0  0  0  0  0  0  0  0
   -1.6497    5.6024   25.0145 H   0  0  0  0  0  0  0  0  0  0  0  0
   -3.4099    5.4315   24.9661 H   0  0  0  0  0  0  0  0  0  0  0  0
    0.0319    0.2000   27.2218 H   0  0  0  0  0  0  0  0  0  0  0  0
    1.4191    1.8997   27.7531 H   0  0  0  0  0  0  0  0  0  0  0  0
    2.0004    0.0742   29.1238 H   0  0  0  0  0  0  0  0  0  0  0  0
    2.0006    1.4713   30.2072 H   0  0  0  0  0  0  0  0  0  0  0  0
    0.4200   -0.6125   30.8336 H   0  0  0  0  0  0  0  0  0  0  0  0
   -0.1765    1.0366   31.0148 H   0  0  0  0  0  0  0  0  0  0  0  0
   -1.8359    0.5177   29.5687 H   0  0  0  0  0  0  0  0  0  0  0  0
    0.0565   -1.9101   27.0226 H   0  0  0  0  0  0  0  0  0  0  0  0
    1.4312   -2.3248   29.6275 H   0  0  0  0  0  0  0  0  0  0  0  0
    2.1269   -1.9047   28.0723 H   0  0  0  0  0  0  0  0  0  0  0  0
    2.8912   -4.1052   28.3305 H   0  0  0  0  0  0  0  0  0  0  0  0
    1.5229   -4.3387   27.2519 H   0  0  0  0  0  0  0  0  0  0  0  0
   -0.5665   -7.1954   31.7493 H   0  0  0  0  0  0  0  0  0  0  0  0
   -0.1009   -8.0263   29.4010 H   0  0  0  0  0  0  0  0  0  0  0  0
    1.0034   -6.5338   27.9299 H   0  0  0  0  0  0  0  0  0  0  0  0
  1  2  1  0
  2  3  1  0
  2  4  1  0
  4  5  2  0
  5  6  1  0
  6  7  1  0
  7  8  1  0
  8  9  1  0
  9 10  1  0
 10 11  1  0
 11 12  1  0
 12 13  2  0
 12 14  2  0
 12 15  1  0
 15 16  1  0
 16 17  1  0
 17 18  1  0
 18 19  2  0
 19 20  1  0
 20 21  2  0
 20 22  1  0
 22 23  2  0
 23 24  1  0
  6 25  2  0
 25 26  1  0
 26  4  1  0
 11  7  1  0
 24 18  1  0
  1 27  1  0
  1 28  1  0
  1 29  1  0
  2 30  1  0
  3 31  1  0
  3 32  1  0
  3 33  1  0
  7 34  1  0
  8 35  1  0
  9 36  1  0
  9 37  1  0
 10 38  1  0
 10 39  1  0
 11 40  1  0
 15 41  1  0
 16 42  1  0
 16 43  1  0
 17 44  1  0
 17 45  1  0
 22 46  1  0
 23 47  1  0
 24 48  1  0
M  END
>  <Energy>  (549) 
-65.1783847495971

>  <compound_id>  (549) 
835

>  <target_id>  (549) 
1

>  <reference_id>  (549) 
40

>  <inspiration_ids>  (549) 
[70, 40]

>  <energy_score>  (549) 
-61.463001765543424

>  <distance_score>  (549) 
1.9148566357928785

>  <path>  (549) 
/opt/xchem-fragalysis-2/maxwin/BulkDock/SCRATCH/505733/C835-P40/C835-P40.minimised.mol

>  <scratch_subdir>  (549) 
/opt/xchem-fragalysis-2/maxwin/BulkDock/SCRATCH/505733/C835-P40

>  <fragmenstein_runtime>  (549) 
5.956108570098877

>  <fragmenstein_outcome>  (549) 
too moved

>  <fragmenstein_mode>  (549) 
expansion

>  <fragmenstein_error>  (549) 


$$$$
C835-P70
     RDKit          2D

  0  0  0  0  0  0  0  0  0  0999 V2000
M  END
>  <compound_id>  (550) 
835

>  <target_id>  (550) 
1

>  <reference_id>  (550) 
70

>  <inspiration_ids>  (550) 
[70, 44]

>  <energy_score>  (550) 
nan

>  <distance_score>  (550) 
nan

>  <path>  (550) 
/opt/xchem-fragalysis-2/maxwin/BulkDock/SCRATCH/505733/C835-P70/C835-P70.minimised.mol

>  <scratch_subdir>  (550) 
/opt/xchem-fragalysis-2/maxwin/BulkDock/SCRATCH/505733/C835-P70

>  <fragmenstein_runtime>  (550) 
0.15567946434020996

>  <fragmenstein_outcome>  (550) 
too distant

>  <fragmenstein_mode>  (550) 
expansion

>  <fragmenstein_error>  (550) 
DistanceError: hit0+hit1

$$$$
C835-P70
     RDKit          3D

 48 50  0  0  0  0  0  0  0  0999 V2000
   -0.9045    3.6173   23.7168 C   0  0  0  0  0  0  0  0  0  0  0  0
   -1.9987    4.0070   24.7139 C   0  0  0  0  0  0  0  0  0  0  0  0
   -3.2952    4.2881   23.9701 C   0  0  0  0  0  0  0  0  0  0  0  0
   -2.1638    2.9571   25.7585 C   0  0  0  0  0  0  0  0  0  0  0  0
   -1.7348    1.7133   25.7675 N   0  0  0  0  0  0  0  0  0  0  0  0
   -1.8660    1.3708   27.0968 C   0  0  0  0  0  0  0  0  0  0  0  0
   -0.9538    0.3628   27.7197 C   0  0  0  0  0  0  0  0  0  0  0  0
   -1.5745   -0.7756   28.4195 N   0  0  0  0  0  0  0  0  0  0  0  0
   -0.4476   -1.3950   29.1407 C   0  0  0  0  0  0  0  0  0  0  0  0
    0.5884   -0.2944   29.3767 C   0  0  0  0  0  0  0  0  0  0  0  0
   -0.0892    0.9336   28.8238 C   0  0  0  0  0  0  0  0  0  0  0  0
    0.9221    2.2139   28.1495 S   0  0  0  0  0  0  0  0  0  0  0  0
    1.3668    1.8393   26.8255 O   0  0  0  0  0  0  0  0  0  0  0  0
    0.2018    3.4357   28.4139 O   0  0  0  0  0  0  0  0  0  0  0  0
    2.2856    2.2520   29.1731 N   0  0  0  0  0  0  0  0  0  0  0  0
    3.6151    1.9198   28.5645 C   0  0  0  0  0  0  0  0  0  0  0  0
    4.5237    3.1423   28.3270 C   0  0  0  0  0  0  0  0  0  0  0  0
    3.9399    4.1211   27.3307 C   0  0  0  0  0  0  0  0  0  0  0  0
    2.7509    4.5662   27.5804 N   0  0  0  0  0  0  0  0  0  0  0  0
    2.0966    5.3019   26.6203 C   0  0  0  0  0  0  0  0  0  0  0  0
    0.8822    5.4486   26.5826 O   0  0  0  0  0  0  0  0  0  0  0  0
    2.9216    5.9385   25.5655 C   0  0  0  0  0  0  0  0  0  0  0  0
    4.1719    5.4942   25.4180 C   0  0  0  0  0  0  0  0  0  0  0  0
    4.6741    4.5284   26.2442 N   0  0  0  0  0  0  0  0  0  0  0  0
   -2.5268    2.2701   27.8254 N   0  0  0  0  0  0  0  0  0  0  0  0
   -2.7088    3.3397   26.9469 O   0  0  0  0  0  0  0  0  0  0  0  0
   -0.7410    4.4206   22.9903 H   0  0  0  0  0  0  0  0  0  0  0  0
    0.0465    3.4324   24.2293 H   0  0  0  0  0  0  0  0  0  0  0  0
   -1.1644    2.7111   23.1603 H   0  0  0  0  0  0  0  0  0  0  0  0
   -1.6863    4.9299   25.2192 H   0  0  0  0  0  0  0  0  0  0  0  0
   -3.4928    3.5386   23.1993 H   0  0  0  0  0  0  0  0  0  0  0  0
   -4.1458    4.3058   24.6511 H   0  0  0  0  0  0  0  0  0  0  0  0
   -3.2416    5.2575   23.4626 H   0  0  0  0  0  0  0  0  0  0  0  0
   -0.3235   -0.0488   26.9268 H   0  0  0  0  0  0  0  0  0  0  0  0
   -1.9631   -1.4348   27.7416 H   0  0  0  0  0  0  0  0  0  0  0  0
   -0.8003   -1.8224   30.0844 H   0  0  0  0  0  0  0  0  0  0  0  0
   -0.0100   -2.2045   28.5452 H   0  0  0  0  0  0  0  0  0  0  0  0
    1.5136   -0.5269   28.8368 H   0  0  0  0  0  0  0  0  0  0  0  0
    0.8332   -0.1797   30.4374 H   0  0  0  0  0  0  0  0  0  0  0  0
   -0.6832    1.3909   29.6244 H   0  0  0  0  0  0  0  0  0  0  0  0
    2.2711    3.1883   29.5978 H   0  0  0  0  0  0  0  0  0  0  0  0
    3.5109    1.3293   27.6501 H   0  0  0  0  0  0  0  0  0  0  0  0
    4.1172    1.2603   29.2832 H   0  0  0  0  0  0  0  0  0  0  0  0
    4.6786    3.6801   29.2699 H   0  0  0  0  0  0  0  0  0  0  0  0
    5.5026    2.8025   27.9718 H   0  0  0  0  0  0  0  0  0  0  0  0
    2.4543    6.6808   24.9363 H   0  0  0  0  0  0  0  0  0  0  0  0
    4.8411    5.8646   24.6495 H   0  0  0  0  0  0  0  0  0  0  0  0
    5.6383    4.2408   26.1225 H   0  0  0  0  0  0  0  0  0  0  0  0
  1  2  1  0
  2  3  1  0
  2  4  1  0
  4  5  2  0
  5  6  1  0
  6  7  1  0
  7  8  1  0
  8  9  1  0
  9 10  1  0
 10 11  1  0
 11 12  1  0
 12 13  2  0
 12 14  2  0
 12 15  1  0
 15 16  1  0
 16 17  1  0
 17 18  1  0
 18 19  2  0
 19 20  1  0
 20 21  2  0
 20 22  1  0
 22 23  2  0
 23 24  1  0
  6 25  2  0
 25 26  1  0
 26  4  1  0
 11  7  1  0
 24 18  1  0
  1 27  1  0
  1 28  1  0
  1 29  1  0
  2 30  1  0
  3 31  1  0
  3 32  1  0
  3 33  1  0
  7 34  1  0
  8 35  1  0
  9 36  1  0
  9 37  1  0
 10 38  1  0
 10 39  1  0
 11 40  1  0
 15 41  1  0
 16 42  1  0
 16 43  1  0
 17 44  1  0
 17 45  1  0
 22 46  1  0
 23 47  1  0
 24 48  1  0
M  END
>  <Energy>  (551) 
-59.503862754214964

>  <compound_id>  (551) 
835

>  <target_id>  (551) 
1

>  <reference_id>  (551) 
70

>  <inspiration_ids>  (551) 
[70, 53]

>  <energy_score>  (551) 
-55.788479770161715

>  <distance_score>  (551) 
1.311165671173453

>  <path>  (551) 
/opt/xchem-fragalysis-2/maxwin/BulkDock/SCRATCH/505733/C835-P70/C835-P70.minimised.mol

>  <scratch_subdir>  (551) 
/opt/xchem-fragalysis-2/maxwin/BulkDock/SCRATCH/505733/C835-P70

>  <fragmenstein_runtime>  (551) 
2.538395404815674

>  <fragmenstein_outcome>  (551) 
too moved

>  <fragmenstein_mode>  (551) 
expansion

>  <fragmenstein_error>  (551) 


$$$$
C835-P53
     RDKit          3D

 48 50  0  0  0  0  0  0  0  0999 V2000
   -0.9836    3.4766   23.5480 C   0  0  0  0  0  0  0  0  0  0  0  0
   -2.0151    3.9457   24.5732 C   0  0  0  0  0  0  0  0  0  0  0  0
   -3.3345    4.2607   23.8817 C   0  0  0  0  0  0  0  0  0  0  0  0
   -2.1718    2.9631   25.6826 C   0  0  0  0  0  0  0  0  0  0  0  0
   -1.7827    1.7093   25.7709 N   0  0  0  0  0  0  0  0  0  0  0  0
   -1.9095    1.4697   27.1234 C   0  0  0  0  0  0  0  0  0  0  0  0
   -1.1066    0.4067   27.7955 C   0  0  0  0  0  0  0  0  0  0  0  0
   -1.8395   -0.4572   28.7411 N   0  0  0  0  0  0  0  0  0  0  0  0
   -0.7608   -1.1080   29.4874 C   0  0  0  0  0  0  0  0  0  0  0  0
    0.2075    0.0211   29.7959 C   0  0  0  0  0  0  0  0  0  0  0  0
   -0.0121    1.0184   28.6707 C   0  0  0  0  0  0  0  0  0  0  0  0
    1.3808    1.2761   27.6046 S   0  0  0  0  0  0  0  0  0  0  0  0
    1.8780   -0.0169   27.1815 O   0  0  0  0  0  0  0  0  0  0  0  0
    1.0544    2.3093   26.6472 O   0  0  0  0  0  0  0  0  0  0  0  0
    2.5878    1.9172   28.6214 N   0  0  0  0  0  0  0  0  0  0  0  0
    3.9633    1.8881   27.9908 C   0  0  0  0  0  0  0  0  0  0  0  0
    4.6963    3.2355   28.1044 C   0  0  0  0  0  0  0  0  0  0  0  0
    3.8569    4.2946   27.4259 C   0  0  0  0  0  0  0  0  0  0  0  0
    2.6871    4.5004   27.9481 N   0  0  0  0  0  0  0  0  0  0  0  0
    1.7672    5.2477   27.2496 C   0  0  0  0  0  0  0  0  0  0  0  0
    0.5812    5.2658   27.5481 O   0  0  0  0  0  0  0  0  0  0  0  0
    2.2462    6.0365   26.0847 C   0  0  0  0  0  0  0  0  0  0  0  0
    3.4980    5.8304   25.6655 C   0  0  0  0  0  0  0  0  0  0  0  0
    4.3114    4.9398   26.3057 N   0  0  0  0  0  0  0  0  0  0  0  0
   -2.4820    2.4619   27.8110 N   0  0  0  0  0  0  0  0  0  0  0  0
   -2.6482    3.4592   26.8596 O   0  0  0  0  0  0  0  0  0  0  0  0
   -0.8173    4.2484   22.7885 H   0  0  0  0  0  0  0  0  0  0  0  0
   -0.0200    3.2654   24.0243 H   0  0  0  0  0  0  0  0  0  0  0  0
   -1.3101    2.5690   23.0318 H   0  0  0  0  0  0  0  0  0  0  0  0
   -1.6387    4.8755   25.0208 H   0  0  0  0  0  0  0  0  0  0  0  0
   -3.5199    3.6017   23.0294 H   0  0  0  0  0  0  0  0  0  0  0  0
   -4.1817    4.1744   24.5633 H   0  0  0  0  0  0  0  0  0  0  0  0
   -3.3161    5.2807   23.4818 H   0  0  0  0  0  0  0  0  0  0  0  0
   -0.6961   -0.2461   27.0146 H   0  0  0  0  0  0  0  0  0  0  0  0
   -2.3702   -1.1503   28.2057 H   0  0  0  0  0  0  0  0  0  0  0  0
   -1.1366   -1.5845   30.3975 H   0  0  0  0  0  0  0  0  0  0  0  0
   -0.2781   -1.8770   28.8718 H   0  0  0  0  0  0  0  0  0  0  0  0
    1.2361   -0.3413   29.8818 H   0  0  0  0  0  0  0  0  0  0  0  0
   -0.0632    0.4876   30.7511 H   0  0  0  0  0  0  0  0  0  0  0  0
   -0.2705    1.9989   29.0880 H   0  0  0  0  0  0  0  0  0  0  0  0
    2.3110    2.9028   28.7845 H   0  0  0  0  0  0  0  0  0  0  0  0
    3.8962    1.6216   26.9293 H   0  0  0  0  0  0  0  0  0  0  0  0
    4.5400    1.1038   28.4925 H   0  0  0  0  0  0  0  0  0  0  0  0
    4.8252    3.5136   29.1563 H   0  0  0  0  0  0  0  0  0  0  0  0
    5.6831    3.1741   27.6355 H   0  0  0  0  0  0  0  0  0  0  0  0
    1.5446    6.7063   25.6103 H   0  0  0  0  0  0  0  0  0  0  0  0
    3.9203    6.3360   24.8040 H   0  0  0  0  0  0  0  0  0  0  0  0
    5.2414    4.7779   25.9389 H   0  0  0  0  0  0  0  0  0  0  0  0
  1  2  1  0
  2  3  1  0
  2  4  1  0
  4  5  2  0
  5  6  1  0
  6  7  1  0
  7  8  1  0
  8  9  1  0
  9 10  1  0
 10 11  1  0
 11 12  1  0
 12 13  2  0
 12 14  2  0
 12 15  1  0
 15 16  1  0
 16 17  1  0
 17 18  1  0
 18 19  2  0
 19 20  1  0
 20 21  2  0
 20 22  1  0
 22 23  2  0
 23 24  1  0
  6 25  2  0
 25 26  1  0
 26  4  1  0
 11  7  1  0
 24 18  1  0
  1 27  1  0
  1 28  1  0
  1 29  1  0
  2 30  1  0
  3 31  1  0
  3 32  1  0
  3 33  1  0
  7 34  1  0
  8 35  1  0
  9 36  1  0
  9 37  1  0
 10 38  1  0
 10 39  1  0
 11 40  1  0
 15 41  1  0
 16 42  1  0
 16 43  1  0
 17 44  1  0
 17 45  1  0
 22 46  1  0
 23 47  1  0
 24 48  1  0
M  END
>  <Energy>  (552) 
-74.106389577212909

>  <compound_id>  (552) 
835

>  <target_id>  (552) 
1

>  <reference_id>  (552) 
53

>  <inspiration_ids>  (552) 
[70, 53]

>  <energy_score>  (552) 
-70.39100659315896

>  <distance_score>  (552) 
1.33740539595794

>  <path>  (552) 
/opt/xchem-fragalysis-2/maxwin/BulkDock/SCRATCH/505733/C835-P53/C835-P53.minimised.mol

>  <scratch_subdir>  (552) 
/opt/xchem-fragalysis-2/maxwin/BulkDock/SCRATCH/505733/C835-P53

>  <fragmenstein_runtime>  (552) 
2.7995519638061523

>  <fragmenstein_outcome>  (552) 
too moved

>  <fragmenstein_mode>  (552) 
expansion

>  <fragmenstein_error>  (552) 


$$$$
C835-P70
     RDKit          2D

  0  0  0  0  0  0  0  0  0  0999 V2000
M  END
>  <compound_id>  (553) 
835

>  <target_id>  (553) 
1

>  <reference_id>  (553) 
70

>  <inspiration_ids>  (553) 
[70, 57]

>  <energy_score>  (553) 
nan

>  <distance_score>  (553) 
nan

>  <path>  (553) 
/opt/xchem-fragalysis-2/maxwin/BulkDock/SCRATCH/505733/C835-P70/C835-P70.minimised.mol

>  <scratch_subdir>  (553) 
/opt/xchem-fragalysis-2/maxwin/BulkDock/SCRATCH/505733/C835-P70

>  <fragmenstein_runtime>  (553) 
0.48539018630981445

>  <fragmenstein_outcome>  (553) 
too distant

>  <fragmenstein_mode>  (553) 
expansion

>  <fragmenstein_error>  (553) 
DistanceError: hit1

$$$$
C836-P70
     RDKit          3D

 51 53  0  0  0  0  0  0  0  0999 V2000
   -4.7756    1.5244   37.1152 C   0  0  0  0  0  0  0  0  0  0  0  0
   -4.3764    0.2748   36.3919 C   0  0  0  0  0  0  0  0  0  0  0  0
   -3.3777   -0.5335   36.8898 C   0  0  0  0  0  0  0  0  0  0  0  0
   -3.1137   -1.6627   36.1726 C   0  0  0  0  0  0  0  0  0  0  0  0
   -2.1642   -2.5434   36.5709 O   0  0  0  0  0  0  0  0  0  0  0  0
   -3.7084   -1.9946   35.0395 N   0  0  0  0  0  0  0  0  0  0  0  0
   -4.5977   -1.1112   34.5850 C   0  0  0  0  0  0  0  0  0  0  0  0
   -4.7920   -1.1524   33.1130 C   0  0  0  0  0  0  0  0  0  0  0  0
   -3.5658   -0.4247   32.5072 C   0  0  0  0  0  0  0  0  0  0  0  0
   -2.4376   -1.2695   32.0305 N   0  0  0  0  0  0  0  0  0  0  0  0
   -1.0966   -0.3892   31.3785 S   0  0  0  0  0  0  0  0  0  0  0  0
    0.0136   -1.3009   31.5334 O   0  0  0  0  0  0  0  0  0  0  0  0
   -1.0905    0.8968   32.0357 O   0  0  0  0  0  0  0  0  0  0  0  0
   -1.5229   -0.1778   29.6136 C   0  0  0  0  0  0  0  0  0  0  0  0
   -1.3394   -1.4905   28.8826 C   0  0  0  0  0  0  0  0  0  0  0  0
    0.1147   -1.4563   28.4545 C   0  0  0  0  0  0  0  0  0  0  0  0
    0.3225   -0.0773   28.0324 N   0  0  0  0  0  0  0  0  0  0  0  0
   -0.5547    0.7694   28.8876 C   0  0  0  0  0  0  0  0  0  0  0  0
   -1.1995    1.8154   27.9740 C   0  0  0  0  0  0  0  0  0  0  0  0
   -1.2579    3.0998   28.3391 N   0  0  0  0  0  0  0  0  0  0  0  0
   -1.6650    3.7702   27.1973 O   0  0  0  0  0  0  0  0  0  0  0  0
   -1.7786    2.8365   26.2138 C   0  0  0  0  0  0  0  0  0  0  0  0
   -2.0215    3.3446   24.8255 C   0  0  0  0  0  0  0  0  0  0  0  0
   -0.7117    3.6146   24.0988 C   0  0  0  0  0  0  0  0  0  0  0  0
   -2.9499    4.5399   24.7401 C   0  0  0  0  0  0  0  0  0  0  0  0
   -1.5356    1.6045   26.6373 N   0  0  0  0  0  0  0  0  0  0  0  0
   -4.9908    0.0063   35.2225 N   0  0  0  0  0  0  0  0  0  0  0  0
   -5.6162    2.0134   36.6123 H   0  0  0  0  0  0  0  0  0  0  0  0
   -3.9378    2.2280   37.1436 H   0  0  0  0  0  0  0  0  0  0  0  0
   -5.0830    1.2890   38.1388 H   0  0  0  0  0  0  0  0  0  0  0  0
   -2.8516   -0.3131   37.8084 H   0  0  0  0  0  0  0  0  0  0  0  0
   -2.2429   -3.2201   35.8664 H   0  0  0  0  0  0  0  0  0  0  0  0
   -4.8730   -2.1820   32.7488 H   0  0  0  0  0  0  0  0  0  0  0  0
   -5.7165   -0.6202   32.8650 H   0  0  0  0  0  0  0  0  0  0  0  0
   -3.8873    0.0679   31.6033 H   0  0  0  0  0  0  0  0  0  0  0  0
   -3.1837    0.3335   33.2000 H   0  0  0  0  0  0  0  0  0  0  0  0
   -2.0746   -1.9042   32.7530 H   0  0  0  0  0  0  0  0  0  0  0  0
   -2.5460    0.1915   29.5992 H   0  0  0  0  0  0  0  0  0  0  0  0
   -1.9850   -1.5098   27.9955 H   0  0  0  0  0  0  0  0  0  0  0  0
   -1.5703   -2.3759   29.4822 H   0  0  0  0  0  0  0  0  0  0  0  0
    0.3198   -2.1624   27.6472 H   0  0  0  0  0  0  0  0  0  0  0  0
    0.7998   -1.7026   29.2695 H   0  0  0  0  0  0  0  0  0  0  0  0
    0.0013    0.0130   27.0647 H   0  0  0  0  0  0  0  0  0  0  0  0
    0.0890    1.2971   29.6017 H   0  0  0  0  0  0  0  0  0  0  0  0
   -2.5311    2.5666   24.2767 H   0  0  0  0  0  0  0  0  0  0  0  0
   -0.1802    4.4631   24.5449 H   0  0  0  0  0  0  0  0  0  0  0  0
   -0.0442    2.7512   24.1519 H   0  0  0  0  0  0  0  0  0  0  0  0
   -0.8870    3.8440   23.0425 H   0  0  0  0  0  0  0  0  0  0  0  0
   -2.5311    5.4111   25.2525 H   0  0  0  0  0  0  0  0  0  0  0  0
   -3.9113    4.2904   25.1904 H   0  0  0  0  0  0  0  0  0  0  0  0
   -3.1356    4.8216   23.6978 H   0  0  0  0  0  0  0  0  0  0  0  0
  1  2  1  0
  2  3  2  0
  3  4  1  0
  4  5  1  0
  4  6  2  0
  6  7  1  0
  7  8  1  0
  8  9  1  0
  9 10  1  0
 10 11  1  0
 11 12  2  0
 11 13  2  0
 11 14  1  0
 14 15  1  0
 15 16  1  0
 16 17  1  0
 17 18  1  0
 18 19  1  0
 19 20  2  0
 20 21  1  0
 21 22  1  0
 22 23  1  0
 23 24  1  0
 23 25  1  0
 22 26  2  0
  7 27  2  0
 27  2  1  0
 18 14  1  0
 26 19  1  0
  1 28  1  0
  1 29  1  0
  1 30  1  0
  3 31  1  0
  5 32  1  0
  8 33  1  0
  8 34  1  0
  9 35  1  0
  9 36  1  0
 10 37  1  0
 14 38  1  0
 15 39  1  0
 15 40  1  0
 16 41  1  0
 16 42  1  0
 17 43  1  0
 18 44  1  0
 23 45  1  0
 24 46  1  0
 24 47  1  0
 24 48  1  0
 25 49  1  0
 25 50  1  0
 25 51  1  0
M  END
>  <Energy>  (554) 
-97.546119103550765

>  <compound_id>  (554) 
836

>  <target_id>  (554) 
1

>  <reference_id>  (554) 
70

>  <inspiration_ids>  (554) 
[70, 59]

>  <energy_score>  (554) 
-73.46345164971547

>  <distance_score>  (554) 
1.886635714380116

>  <path>  (554) 
/opt/xchem-fragalysis-2/maxwin/BulkDock/SCRATCH/505733/C836-P70/C836-P70.minimised.mol

>  <scratch_subdir>  (554) 
/opt/xchem-fragalysis-2/maxwin/BulkDock/SCRATCH/505733/C836-P70

>  <fragmenstein_runtime>  (554) 
4.5823893547058105

>  <fragmenstein_outcome>  (554) 
too moved

>  <fragmenstein_mode>  (554) 
expansion

>  <fragmenstein_error>  (554) 


$$$$
C836-P59
     RDKit          3D

 51 53  0  0  0  0  0  0  0  0999 V2000
   -3.6210    2.9860   35.1186 C   0  0  0  0  0  0  0  0  0  0  0  0
   -3.6376    1.4886   35.1519 C   0  0  0  0  0  0  0  0  0  0  0  0
   -3.0068    0.8070   36.1659 C   0  0  0  0  0  0  0  0  0  0  0  0
   -3.1264   -0.5536   36.1376 C   0  0  0  0  0  0  0  0  0  0  0  0
   -2.5387   -1.3143   37.0934 O   0  0  0  0  0  0  0  0  0  0  0  0
   -3.7697   -1.2450   35.2096 N   0  0  0  0  0  0  0  0  0  0  0  0
   -4.2901   -0.5045   34.2258 C   0  0  0  0  0  0  0  0  0  0  0  0
   -4.7347   -1.2468   33.0218 C   0  0  0  0  0  0  0  0  0  0  0  0
   -3.5082   -1.6685   32.1649 C   0  0  0  0  0  0  0  0  0  0  0  0
   -2.8210   -0.5232   31.4439 N   0  0  0  0  0  0  0  0  0  0  0  0
   -1.8388   -0.9754   30.0982 S   0  0  0  0  0  0  0  0  0  0  0  0
   -1.2179   -2.2190   30.5132 O   0  0  0  0  0  0  0  0  0  0  0  0
   -2.6326   -0.9200   28.9028 O   0  0  0  0  0  0  0  0  0  0  0  0
   -0.6054    0.3261   29.9930 C   0  0  0  0  0  0  0  0  0  0  0  0
    0.7807   -0.2656   30.2544 C   0  0  0  0  0  0  0  0  0  0  0  0
    1.1592   -0.8826   28.9065 C   0  0  0  0  0  0  0  0  0  0  0  0
    0.5036   -0.0702   27.8797 N   0  0  0  0  0  0  0  0  0  0  0  0
   -0.3388    0.9068   28.6037 C   0  0  0  0  0  0  0  0  0  0  0  0
   -1.3382    1.6368   27.7471 C   0  0  0  0  0  0  0  0  0  0  0  0
   -1.8535    2.7989   28.1726 N   0  0  0  0  0  0  0  0  0  0  0  0
   -2.2805    3.4369   27.0148 O   0  0  0  0  0  0  0  0  0  0  0  0
   -1.9536    2.6169   25.9795 C   0  0  0  0  0  0  0  0  0  0  0  0
   -2.1153    3.1398   24.5889 C   0  0  0  0  0  0  0  0  0  0  0  0
   -0.8322    3.7882   24.0873 C   0  0  0  0  0  0  0  0  0  0  0  0
   -3.2998    4.0740   24.4166 C   0  0  0  0  0  0  0  0  0  0  0  0
   -1.4097    1.4837   26.3739 N   0  0  0  0  0  0  0  0  0  0  0  0
   -4.2494    0.8426   34.1402 N   0  0  0  0  0  0  0  0  0  0  0  0
   -2.6298    3.3455   34.8267 H   0  0  0  0  0  0  0  0  0  0  0  0
   -3.8769    3.3954   36.1010 H   0  0  0  0  0  0  0  0  0  0  0  0
   -4.3550    3.3626   34.4003 H   0  0  0  0  0  0  0  0  0  0  0  0
   -2.4759    1.3067   36.9649 H   0  0  0  0  0  0  0  0  0  0  0  0
   -2.7349   -2.2084   36.7595 H   0  0  0  0  0  0  0  0  0  0  0  0
   -5.2589   -2.1456   33.3415 H   0  0  0  0  0  0  0  0  0  0  0  0
   -5.4453   -0.6301   32.4776 H   0  0  0  0  0  0  0  0  0  0  0  0
   -2.7583   -2.1600   32.7968 H   0  0  0  0  0  0  0  0  0  0  0  0
   -3.8462   -2.4021   31.4292 H   0  0  0  0  0  0  0  0  0  0  0  0
   -2.3030    0.0443   32.1172 H   0  0  0  0  0  0  0  0  0  0  0  0
   -0.8353    1.0845   30.7403 H   0  0  0  0  0  0  0  0  0  0  0  0
    0.8229   -0.9886   31.0738 H   0  0  0  0  0  0  0  0  0  0  0  0
    1.4869    0.5389   30.5005 H   0  0  0  0  0  0  0  0  0  0  0  0
    0.8127   -1.9190   28.8349 H   0  0  0  0  0  0  0  0  0  0  0  0
    2.2444   -0.8861   28.7656 H   0  0  0  0  0  0  0  0  0  0  0  0
   -0.0969   -0.6441   27.2729 H   0  0  0  0  0  0  0  0  0  0  0  0
    0.3788    1.7248   28.8016 H   0  0  0  0  0  0  0  0  0  0  0  0
   -2.2905    2.2854   23.9402 H   0  0  0  0  0  0  0  0  0  0  0  0
   -0.5941    4.6914   24.6610 H   0  0  0  0  0  0  0  0  0  0  0  0
    0.0225    3.1108   24.1807 H   0  0  0  0  0  0  0  0  0  0  0  0
   -0.9230    4.0718   23.0332 H   0  0  0  0  0  0  0  0  0  0  0  0
   -3.1175    5.0371   24.8999 H   0  0  0  0  0  0  0  0  0  0  0  0
   -4.2037    3.6327   24.8448 H   0  0  0  0  0  0  0  0  0  0  0  0
   -3.4890    4.2707   23.3556 H   0  0  0  0  0  0  0  0  0  0  0  0
  1  2  1  0
  2  3  2  0
  3  4  1  0
  4  5  1  0
  4  6  2  0
  6  7  1  0
  7  8  1  0
  8  9  1  0
  9 10  1  0
 10 11  1  0
 11 12  2  0
 11 13  2  0
 11 14  1  0
 14 15  1  0
 15 16  1  0
 16 17  1  0
 17 18  1  0
 18 19  1  0
 19 20  2  0
 20 21  1  0
 21 22  1  0
 22 23  1  0
 23 24  1  0
 23 25  1  0
 22 26  2  0
  7 27  2  0
 27  2  1  0
 18 14  1  0
 26 19  1  0
  1 28  1  0
  1 29  1  0
  1 30  1  0
  3 31  1  0
  5 32  1  0
  8 33  1  0
  8 34  1  0
  9 35  1  0
  9 36  1  0
 10 37  1  0
 14 38  1  0
 15 39  1  0
 15 40  1  0
 16 41  1  0
 16 42  1  0
 17 43  1  0
 18 44  1  0
 23 45  1  0
 24 46  1  0
 24 47  1  0
 24 48  1  0
 25 49  1  0
 25 50  1  0
 25 51  1  0
M  END
>  <Energy>  (555) 
-80.648349902266887

>  <compound_id>  (555) 
836

>  <target_id>  (555) 
1

>  <reference_id>  (555) 
59

>  <inspiration_ids>  (555) 
[70, 59]

>  <energy_score>  (555) 
-56.565682448432824

>  <distance_score>  (555) 
1.7138834800474034

>  <path>  (555) 
/opt/xchem-fragalysis-2/maxwin/BulkDock/SCRATCH/505733/C836-P59/C836-P59.minimised.mol

>  <scratch_subdir>  (555) 
/opt/xchem-fragalysis-2/maxwin/BulkDock/SCRATCH/505733/C836-P59

>  <fragmenstein_runtime>  (555) 
5.281339645385742

>  <fragmenstein_outcome>  (555) 
too moved

>  <fragmenstein_mode>  (555) 
expansion

>  <fragmenstein_error>  (555) 


$$$$
C837-P70
     RDKit          3D

 54 56  0  0  0  0  0  0  0  0999 V2000
   -7.0197   -0.4403   36.8634 C   0  0  0  0  0  0  0  0  0  0  0  0
   -6.1089   -0.6410   35.6919 C   0  0  0  0  0  0  0  0  0  0  0  0
   -6.3730   -1.6102   34.7567 C   0  0  0  0  0  0  0  0  0  0  0  0
   -5.4830   -1.6871   33.7231 C   0  0  0  0  0  0  0  0  0  0  0  0
   -5.6407   -2.6374   32.7690 O   0  0  0  0  0  0  0  0  0  0  0  0
   -4.4197   -0.9025   33.5456 N   0  0  0  0  0  0  0  0  0  0  0  0
   -4.2299    0.0040   34.5214 C   0  0  0  0  0  0  0  0  0  0  0  0
   -3.0389    0.9216   34.4402 C   0  0  0  0  0  0  0  0  0  0  0  0
   -1.8261    0.3542   33.7000 C   0  0  0  0  0  0  0  0  0  0  0  0
   -2.0743    0.2582   32.2213 N   0  0  0  0  0  0  0  0  0  0  0  0
   -0.6590    0.3487   31.2754 S   0  0  0  0  0  0  0  0  0  0  0  0
    0.0465   -0.8806   31.5635 O   0  0  0  0  0  0  0  0  0  0  0  0
   -0.0638    1.6309   31.5734 O   0  0  0  0  0  0  0  0  0  0  0  0
   -1.3232    0.3326   29.5795 C   0  0  0  0  0  0  0  0  0  0  0  0
   -1.3212   -1.0802   29.0273 C   0  0  0  0  0  0  0  0  0  0  0  0
    0.0845   -1.2335   28.4773 C   0  0  0  0  0  0  0  0  0  0  0  0
    0.3163    0.0555   27.8362 N   0  0  0  0  0  0  0  0  0  0  0  0
    1.7424    0.3396   27.6981 C   0  0  0  0  0  0  0  0  0  0  0  0
   -0.3911    1.0928   28.6289 C   0  0  0  0  0  0  0  0  0  0  0  0
   -1.1246    2.0435   27.6945 C   0  0  0  0  0  0  0  0  0  0  0  0
   -1.4211    3.2843   28.1000 N   0  0  0  0  0  0  0  0  0  0  0  0
   -1.8715    3.9205   26.9508 O   0  0  0  0  0  0  0  0  0  0  0  0
   -1.8065    3.0031   25.9463 C   0  0  0  0  0  0  0  0  0  0  0  0
   -2.0589    3.4823   24.5533 C   0  0  0  0  0  0  0  0  0  0  0  0
   -0.7517    3.8361   23.8585 C   0  0  0  0  0  0  0  0  0  0  0  0
   -3.0655    4.6132   24.4594 C   0  0  0  0  0  0  0  0  0  0  0  0
   -1.4083    1.8141   26.3559 N   0  0  0  0  0  0  0  0  0  0  0  0
   -5.0408    0.1677   35.5878 N   0  0  0  0  0  0  0  0  0  0  0  0
   -8.0215   -0.1638   36.5199 H   0  0  0  0  0  0  0  0  0  0  0  0
   -6.6492    0.3585   37.5138 H   0  0  0  0  0  0  0  0  0  0  0  0
   -7.0837   -1.3588   37.4552 H   0  0  0  0  0  0  0  0  0  0  0  0
   -7.2359   -2.2551   34.8125 H   0  0  0  0  0  0  0  0  0  0  0  0
   -4.8667   -2.4524   32.2131 H   0  0  0  0  0  0  0  0  0  0  0  0
   -3.3641    1.8652   33.9930 H   0  0  0  0  0  0  0  0  0  0  0  0
   -2.7251    1.1520   35.4664 H   0  0  0  0  0  0  0  0  0  0  0  0
   -1.5650   -0.6403   34.0793 H   0  0  0  0  0  0  0  0  0  0  0  0
   -0.9822    1.0265   33.8883 H   0  0  0  0  0  0  0  0  0  0  0  0
   -2.5914   -0.6065   32.0358 H   0  0  0  0  0  0  0  0  0  0  0  0
   -2.3281    0.7547   29.6247 H   0  0  0  0  0  0  0  0  0  0  0  0
   -2.0464   -1.1589   28.2068 H   0  0  0  0  0  0  0  0  0  0  0  0
   -1.5682   -1.8506   29.7636 H   0  0  0  0  0  0  0  0  0  0  0  0
    0.1457   -2.0593   27.7639 H   0  0  0  0  0  0  0  0  0  0  0  0
    0.8052   -1.4332   29.2772 H   0  0  0  0  0  0  0  0  0  0  0  0
    2.2454    0.4149   28.6693 H   0  0  0  0  0  0  0  0  0  0  0  0
    1.8959    1.2800   27.1579 H   0  0  0  0  0  0  0  0  0  0  0  0
    2.2388   -0.4494   27.1229 H   0  0  0  0  0  0  0  0  0  0  0  0
    0.3347    1.6978   29.1852 H   0  0  0  0  0  0  0  0  0  0  0  0
   -2.4917    2.6671   23.9854 H   0  0  0  0  0  0  0  0  0  0  0  0
   -0.0497    2.9974   23.8851 H   0  0  0  0  0  0  0  0  0  0  0  0
   -0.9221    4.0996   22.8095 H   0  0  0  0  0  0  0  0  0  0  0  0
   -0.2626    4.6881   24.3446 H   0  0  0  0  0  0  0  0  0  0  0  0
   -2.7022    5.5191   24.9544 H   0  0  0  0  0  0  0  0  0  0  0  0
   -4.0058    4.3123   24.9246 H   0  0  0  0  0  0  0  0  0  0  0  0
   -3.2760    4.8658   23.4145 H   0  0  0  0  0  0  0  0  0  0  0  0
  1  2  1  0
  2  3  2  0
  3  4  1  0
  4  5  1  0
  4  6  2  0
  6  7  1  0
  7  8  1  0
  8  9  1  0
  9 10  1  0
 10 11  1  0
 11 12  2  0
 11 13  2  0
 11 14  1  0
 14 15  1  0
 15 16  1  0
 16 17  1  0
 17 18  1  0
 17 19  1  0
 19 20  1  0
 20 21  2  0
 21 22  1  0
 22 23  1  0
 23 24  1  0
 24 25  1  0
 24 26  1  0
 23 27  2  0
  7 28  2  0
 28  2  1  0
 19 14  1  0
 27 20  1  0
  1 29  1  0
  1 30  1  0
  1 31  1  0
  3 32  1  0
  5 33  1  0
  8 34  1  0
  8 35  1  0
  9 36  1  0
  9 37  1  0
 10 38  1  0
 14 39  1  0
 15 40  1  0
 15 41  1  0
 16 42  1  0
 16 43  1  0
 18 44  1  0
 18 45  1  0
 18 46  1  0
 19 47  1  0
 24 48  1  0
 25 49  1  0
 25 50  1  0
 25 51  1  0
 26 52  1  0
 26 53  1  0
 26 54  1  0
M  END
>  <Energy>  (556) 
-97.539987924879355

>  <compound_id>  (556) 
837

>  <target_id>  (556) 
1

>  <reference_id>  (556) 
70

>  <inspiration_ids>  (556) 
[70, 121]

>  <energy_score>  (556) 
-89.56241508965905

>  <distance_score>  (556) 
1.1796255016257347

>  <path>  (556) 
/opt/xchem-fragalysis-2/maxwin/BulkDock/SCRATCH/505733/C837-P70/C837-P70.minimised.mol

>  <scratch_subdir>  (556) 
/opt/xchem-fragalysis-2/maxwin/BulkDock/SCRATCH/505733/C837-P70

>  <fragmenstein_runtime>  (556) 
7.577396392822266

>  <fragmenstein_outcome>  (556) 
too moved

>  <fragmenstein_mode>  (556) 
expansion

>  <fragmenstein_error>  (556) 


$$$$
C837-P121
     RDKit          3D

 54 56  0  0  0  0  0  0  0  0999 V2000
   -6.8010   -0.6638   37.0951 C   0  0  0  0  0  0  0  0  0  0  0  0
   -5.9734   -0.7174   35.8484 C   0  0  0  0  0  0  0  0  0  0  0  0
   -6.1503   -1.7217   34.9300 C   0  0  0  0  0  0  0  0  0  0  0  0
   -5.3554   -1.6523   33.8203 C   0  0  0  0  0  0  0  0  0  0  0  0
   -5.4648   -2.6023   32.8565 O   0  0  0  0  0  0  0  0  0  0  0  0
   -4.4462   -0.7080   33.5672 N   0  0  0  0  0  0  0  0  0  0  0  0
   -4.3279    0.2219   34.5341 C   0  0  0  0  0  0  0  0  0  0  0  0
   -3.3002    1.3116   34.3754 C   0  0  0  0  0  0  0  0  0  0  0  0
   -1.9700    0.8531   33.7735 C   0  0  0  0  0  0  0  0  0  0  0  0
   -2.0976    0.5897   32.2994 N   0  0  0  0  0  0  0  0  0  0  0  0
   -0.5934    0.6054   31.4644 S   0  0  0  0  0  0  0  0  0  0  0  0
    0.0415   -0.6321   31.8610 O   0  0  0  0  0  0  0  0  0  0  0  0
   -0.0010    1.8900   31.7626 O   0  0  0  0  0  0  0  0  0  0  0  0
   -1.1478    0.5335   29.7427 C   0  0  0  0  0  0  0  0  0  0  0  0
   -0.8211   -0.8088   29.0992 C   0  0  0  0  0  0  0  0  0  0  0  0
    0.5753   -0.6351   28.5096 C   0  0  0  0  0  0  0  0  0  0  0  0
    0.8438    0.7793   28.6290 N   0  0  0  0  0  0  0  0  0  0  0  0
    1.8810    1.3574   27.8141 C   0  0  0  0  0  0  0  0  0  0  0  0
   -0.3851    1.5330   28.8616 C   0  0  0  0  0  0  0  0  0  0  0  0
   -1.1706    1.9510   27.6242 C   0  0  0  0  0  0  0  0  0  0  0  0
   -2.5055    1.9688   27.6526 N   0  0  0  0  0  0  0  0  0  0  0  0
   -2.8778    2.6162   26.4930 O   0  0  0  0  0  0  0  0  0  0  0  0
   -1.7310    2.9236   25.8312 C   0  0  0  0  0  0  0  0  0  0  0  0
   -1.9074    3.5681   24.4923 C   0  0  0  0  0  0  0  0  0  0  0  0
   -0.5754    3.9220   23.8523 C   0  0  0  0  0  0  0  0  0  0  0  0
   -2.8344    4.7758   24.5516 C   0  0  0  0  0  0  0  0  0  0  0  0
   -0.6530    2.5028   26.4655 N   0  0  0  0  0  0  0  0  0  0  0  0
   -5.0670    0.2566   35.6629 N   0  0  0  0  0  0  0  0  0  0  0  0
   -6.5415    0.2118   37.6988 H   0  0  0  0  0  0  0  0  0  0  0  0
   -6.6302   -1.5582   37.7021 H   0  0  0  0  0  0  0  0  0  0  0  0
   -7.8638   -0.5995   36.8417 H   0  0  0  0  0  0  0  0  0  0  0  0
   -6.8898   -2.4953   35.0529 H   0  0  0  0  0  0  0  0  0  0  0  0
   -4.8519   -2.2445   32.1933 H   0  0  0  0  0  0  0  0  0  0  0  0
   -3.7409    2.1248   33.7915 H   0  0  0  0  0  0  0  0  0  0  0  0
   -3.0897    1.7227   35.3712 H   0  0  0  0  0  0  0  0  0  0  0  0
   -1.6062   -0.0540   34.2689 H   0  0  0  0  0  0  0  0  0  0  0  0
   -1.2437    1.6561   33.9365 H   0  0  0  0  0  0  0  0  0  0  0  0
   -2.5428   -0.3275   32.1789 H   0  0  0  0  0  0  0  0  0  0  0  0
   -2.2250    0.7027   29.7718 H   0  0  0  0  0  0  0  0  0  0  0  0
   -1.5308   -0.9970   28.2834 H   0  0  0  0  0  0  0  0  0  0  0  0
   -0.8849   -1.6618   29.7806 H   0  0  0  0  0  0  0  0  0  0  0  0
    0.6013   -0.9842   27.4794 H   0  0  0  0  0  0  0  0  0  0  0  0
    1.3108   -1.2107   29.0812 H   0  0  0  0  0  0  0  0  0  0  0  0
    2.7933    0.7540   27.8692 H   0  0  0  0  0  0  0  0  0  0  0  0
    2.1442    2.3552   28.1821 H   0  0  0  0  0  0  0  0  0  0  0  0
    1.6037    1.4535   26.7654 H   0  0  0  0  0  0  0  0  0  0  0  0
   -0.1374    2.4557   29.3949 H   0  0  0  0  0  0  0  0  0  0  0  0
   -2.3857    2.8509   23.8229 H   0  0  0  0  0  0  0  0  0  0  0  0
    0.0680    3.0432   23.7632 H   0  0  0  0  0  0  0  0  0  0  0  0
   -0.7191    4.3333   22.8475 H   0  0  0  0  0  0  0  0  0  0  0  0
   -0.0340    4.6674   24.4462 H   0  0  0  0  0  0  0  0  0  0  0  0
   -2.4453    5.5407   25.2323 H   0  0  0  0  0  0  0  0  0  0  0  0
   -3.8308    4.4881   24.9010 H   0  0  0  0  0  0  0  0  0  0  0  0
   -2.9515    5.2301   23.5619 H   0  0  0  0  0  0  0  0  0  0  0  0
  1  2  1  0
  2  3  2  0
  3  4  1  0
  4  5  1  0
  4  6  2  0
  6  7  1  0
  7  8  1  0
  8  9  1  0
  9 10  1  0
 10 11  1  0
 11 12  2  0
 11 13  2  0
 11 14  1  0
 14 15  1  0
 15 16  1  0
 16 17  1  0
 17 18  1  0
 17 19  1  0
 19 20  1  0
 20 21  2  0
 21 22  1  0
 22 23  1  0
 23 24  1  0
 24 25  1  0
 24 26  1  0
 23 27  2  0
  7 28  2  0
 28  2  1  0
 19 14  1  0
 27 20  1  0
  1 29  1  0
  1 30  1  0
  1 31  1  0
  3 32  1  0
  5 33  1  0
  8 34  1  0
  8 35  1  0
  9 36  1  0
  9 37  1  0
 10 38  1  0
 14 39  1  0
 15 40  1  0
 15 41  1  0
 16 42  1  0
 16 43  1  0
 18 44  1  0
 18 45  1  0
 18 46  1  0
 19 47  1  0
 24 48  1  0
 25 49  1  0
 25 50  1  0
 25 51  1  0
 26 52  1  0
 26 53  1  0
 26 54  1  0
M  END
>  <Energy>  (557) 
-91.323522545505242

>  <compound_id>  (557) 
837

>  <target_id>  (557) 
1

>  <reference_id>  (557) 
121

>  <inspiration_ids>  (557) 
[70, 121]

>  <energy_score>  (557) 
-83.34594971028699

>  <distance_score>  (557) 
1.2660124513458597

>  <path>  (557) 
/opt/xchem-fragalysis-2/maxwin/BulkDock/SCRATCH/505733/C837-P121/C837-P121.minimised.mol

>  <scratch_subdir>  (557) 
/opt/xchem-fragalysis-2/maxwin/BulkDock/SCRATCH/505733/C837-P121

>  <fragmenstein_runtime>  (557) 
5.9576544761657715

>  <fragmenstein_outcome>  (557) 
too moved

>  <fragmenstein_mode>  (557) 
expansion

>  <fragmenstein_error>  (557) 


$$$$
C836-P70
     RDKit          3D

 51 53  0  0  0  0  0  0  0  0999 V2000
    2.9323   -5.0687   32.0640 C   0  0  0  0  0  0  0  0  0  0  0  0
    1.4740   -5.3347   31.9989 C   0  0  0  0  0  0  0  0  0  0  0  0
    0.9445   -6.2613   31.1480 C   0  0  0  0  0  0  0  0  0  0  0  0
   -0.3983   -6.4912   31.2402 C   0  0  0  0  0  0  0  0  0  0  0  0
   -0.9702   -7.5327   30.5539 O   0  0  0  0  0  0  0  0  0  0  0  0
   -1.2195   -5.7196   31.9532 N   0  0  0  0  0  0  0  0  0  0  0  0
   -0.6110   -4.7654   32.6774 C   0  0  0  0  0  0  0  0  0  0  0  0
   -1.3780   -3.6103   33.2146 C   0  0  0  0  0  0  0  0  0  0  0  0
   -0.8702   -2.2380   32.7281 C   0  0  0  0  0  0  0  0  0  0  0  0
   -1.3273   -1.9434   31.3217 N   0  0  0  0  0  0  0  0  0  0  0  0
   -1.3412   -0.2902   30.9276 S   0  0  0  0  0  0  0  0  0  0  0  0
   -0.1750    0.3021   31.5397 O   0  0  0  0  0  0  0  0  0  0  0  0
   -2.6735    0.1110   31.3225 O   0  0  0  0  0  0  0  0  0  0  0  0
   -1.2030   -0.2623   29.1179 C   0  0  0  0  0  0  0  0  0  0  0  0
   -0.2130   -1.3123   28.6360 C   0  0  0  0  0  0  0  0  0  0  0  0
    1.0909   -0.5648   28.5078 C   0  0  0  0  0  0  0  0  0  0  0  0
    0.6753    0.7134   27.9468 N   0  0  0  0  0  0  0  0  0  0  0  0
   -0.5978    1.0619   28.6413 C   0  0  0  0  0  0  0  0  0  0  0  0
   -1.4216    1.9123   27.6961 C   0  0  0  0  0  0  0  0  0  0  0  0
   -1.8990    3.0922   28.1003 N   0  0  0  0  0  0  0  0  0  0  0  0
   -2.2576    3.7398   26.9315 O   0  0  0  0  0  0  0  0  0  0  0  0
   -1.9510    2.8972   25.9074 C   0  0  0  0  0  0  0  0  0  0  0  0
   -2.0775    3.4400   24.5169 C   0  0  0  0  0  0  0  0  0  0  0  0
   -0.7123    3.8117   23.9562 C   0  0  0  0  0  0  0  0  0  0  0  0
   -3.0622    4.5906   24.3901 C   0  0  0  0  0  0  0  0  0  0  0  0
   -1.4796    1.7308   26.3190 N   0  0  0  0  0  0  0  0  0  0  0  0
    0.7053   -4.6377   32.8241 N   0  0  0  0  0  0  0  0  0  0  0  0
    3.1448   -4.1683   32.6501 H   0  0  0  0  0  0  0  0  0  0  0  0
    3.4518   -5.9089   32.5341 H   0  0  0  0  0  0  0  0  0  0  0  0
    3.3417   -4.9152   31.0602 H   0  0  0  0  0  0  0  0  0  0  0  0
    1.5884   -6.8124   30.5062 H   0  0  0  0  0  0  0  0  0  0  0  0
   -0.2239   -7.9923   30.1196 H   0  0  0  0  0  0  0  0  0  0  0  0
   -2.4057   -3.6389   32.8668 H   0  0  0  0  0  0  0  0  0  0  0  0
   -1.3251   -3.6314   34.3083 H   0  0  0  0  0  0  0  0  0  0  0  0
    0.2192   -2.1470   32.7792 H   0  0  0  0  0  0  0  0  0  0  0  0
   -1.3103   -1.4824   33.3910 H   0  0  0  0  0  0  0  0  0  0  0  0
   -2.2693   -2.3030   31.1548 H   0  0  0  0  0  0  0  0  0  0  0  0
   -2.2001   -0.4614   28.7183 H   0  0  0  0  0  0  0  0  0  0  0  0
   -0.5296   -1.6661   27.6503 H   0  0  0  0  0  0  0  0  0  0  0  0
   -0.1051   -2.1981   29.2640 H   0  0  0  0  0  0  0  0  0  0  0  0
    1.7982   -1.0798   27.8508 H   0  0  0  0  0  0  0  0  0  0  0  0
    1.5733   -0.4183   29.4801 H   0  0  0  0  0  0  0  0  0  0  0  0
    0.4599    0.5888   26.9556 H   0  0  0  0  0  0  0  0  0  0  0  0
   -0.3165    1.6997   29.4870 H   0  0  0  0  0  0  0  0  0  0  0  0
   -2.4653    2.6619   23.8690 H   0  0  0  0  0  0  0  0  0  0  0  0
   -0.7886    4.1216   22.9085 H   0  0  0  0  0  0  0  0  0  0  0  0
   -0.2637    4.6375   24.5202 H   0  0  0  0  0  0  0  0  0  0  0  0
   -0.0190    2.9668   24.0071 H   0  0  0  0  0  0  0  0  0  0  0  0
   -3.1834    4.8878   23.3427 H   0  0  0  0  0  0  0  0  0  0  0  0
   -2.7277    5.4705   24.9483 H   0  0  0  0  0  0  0  0  0  0  0  0
   -4.0424    4.2901   24.7660 H   0  0  0  0  0  0  0  0  0  0  0  0
  1  2  1  0
  2  3  2  0
  3  4  1  0
  4  5  1  0
  4  6  2  0
  6  7  1  0
  7  8  1  0
  8  9  1  0
  9 10  1  0
 10 11  1  0
 11 12  2  0
 11 13  2  0
 11 14  1  0
 14 15  1  0
 15 16  1  0
 16 17  1  0
 17 18  1  0
 18 19  1  0
 19 20  2  0
 20 21  1  0
 21 22  1  0
 22 23  1  0
 23 24  1  0
 23 25  1  0
 22 26  2  0
  7 27  2  0
 27  2  1  0
 18 14  1  0
 26 19  1  0
  1 28  1  0
  1 29  1  0
  1 30  1  0
  3 31  1  0
  5 32  1  0
  8 33  1  0
  8 34  1  0
  9 35  1  0
  9 36  1  0
 10 37  1  0
 14 38  1  0
 15 39  1  0
 15 40  1  0
 16 41  1  0
 16 42  1  0
 17 43  1  0
 18 44  1  0
 23 45  1  0
 24 46  1  0
 24 47  1  0
 24 48  1  0
 25 49  1  0
 25 50  1  0
 25 51  1  0
M  END
>  <Energy>  (558) 
-85.008854628523324

>  <compound_id>  (558) 
836

>  <target_id>  (558) 
1

>  <reference_id>  (558) 
70

>  <inspiration_ids>  (558) 
[70, 128]

>  <energy_score>  (558) 
-62.608295215101094

>  <distance_score>  (558) 
1.9591754331200053

>  <path>  (558) 
/opt/xchem-fragalysis-2/maxwin/BulkDock/SCRATCH/505733/C836-P70/C836-P70.minimised.mol

>  <scratch_subdir>  (558) 
/opt/xchem-fragalysis-2/maxwin/BulkDock/SCRATCH/505733/C836-P70

>  <fragmenstein_runtime>  (558) 
6.752230644226074

>  <fragmenstein_outcome>  (558) 
too moved

>  <fragmenstein_mode>  (558) 
expansion

>  <fragmenstein_error>  (558) 


$$$$
C836-P128
     RDKit          3D

 51 53  0  0  0  0  0  0  0  0999 V2000
    1.9253   -5.3592   29.9497 C   0  0  0  0  0  0  0  0  0  0  0  0
    0.8525   -5.8508   30.8462 C   0  0  0  0  0  0  0  0  0  0  0  0
    0.1648   -7.0207   30.6651 C   0  0  0  0  0  0  0  0  0  0  0  0
   -0.8430   -7.2438   31.5633 C   0  0  0  0  0  0  0  0  0  0  0  0
   -1.5995   -8.3666   31.4416 O   0  0  0  0  0  0  0  0  0  0  0  0
   -1.2152   -6.4085   32.5368 N   0  0  0  0  0  0  0  0  0  0  0  0
   -0.5037   -5.2738   32.6002 C   0  0  0  0  0  0  0  0  0  0  0  0
   -0.9614   -4.1438   33.4608 C   0  0  0  0  0  0  0  0  0  0  0  0
   -0.4722   -2.7186   33.0516 C   0  0  0  0  0  0  0  0  0  0  0  0
   -1.2710   -2.1316   31.8891 N   0  0  0  0  0  0  0  0  0  0  0  0
   -0.8792   -0.5067   31.4780 S   0  0  0  0  0  0  0  0  0  0  0  0
    0.5262   -0.3236   31.7542 O   0  0  0  0  0  0  0  0  0  0  0  0
   -1.8818    0.2602   32.1889 O   0  0  0  0  0  0  0  0  0  0  0  0
   -1.2137   -0.3802   29.6813 C   0  0  0  0  0  0  0  0  0  0  0  0
   -0.7044   -1.6083   28.9576 C   0  0  0  0  0  0  0  0  0  0  0  0
    0.7324   -1.2555   28.6549 C   0  0  0  0  0  0  0  0  0  0  0  0
    0.6498    0.1281   28.2023 N   0  0  0  0  0  0  0  0  0  0  0  0
   -0.4254    0.7708   29.0304 C   0  0  0  0  0  0  0  0  0  0  0  0
   -1.1927    1.7010   28.0909 C   0  0  0  0  0  0  0  0  0  0  0  0
   -1.4244    2.9826   28.4042 N   0  0  0  0  0  0  0  0  0  0  0  0
   -1.8310    3.5623   27.2027 O   0  0  0  0  0  0  0  0  0  0  0  0
   -1.7711    2.5825   26.2583 C   0  0  0  0  0  0  0  0  0  0  0  0
   -1.9814    2.9700   24.8270 C   0  0  0  0  0  0  0  0  0  0  0  0
   -0.7406    3.6129   24.2211 C   0  0  0  0  0  0  0  0  0  0  0  0
   -3.2025    3.8366   24.5856 C   0  0  0  0  0  0  0  0  0  0  0  0
   -1.4113    1.4116   26.7522 N   0  0  0  0  0  0  0  0  0  0  0  0
    0.5466   -5.0085   31.8307 N   0  0  0  0  0  0  0  0  0  0  0  0
    2.2679   -6.1327   29.2566 H   0  0  0  0  0  0  0  0  0  0  0  0
    1.5539   -4.5197   29.3525 H   0  0  0  0  0  0  0  0  0  0  0  0
    2.7872   -5.0160   30.5300 H   0  0  0  0  0  0  0  0  0  0  0  0
    0.3912   -7.7408   29.8950 H   0  0  0  0  0  0  0  0  0  0  0  0
   -2.1680   -8.3287   32.2365 H   0  0  0  0  0  0  0  0  0  0  0  0
   -2.0272   -4.0915   33.3414 H   0  0  0  0  0  0  0  0  0  0  0  0
   -0.6959   -4.3521   34.5013 H   0  0  0  0  0  0  0  0  0  0  0  0
   -0.6387   -2.0564   33.9103 H   0  0  0  0  0  0  0  0  0  0  0  0
    0.5944   -2.7142   32.8081 H   0  0  0  0  0  0  0  0  0  0  0  0
   -2.2685   -2.1409   32.1177 H   0  0  0  0  0  0  0  0  0  0  0  0
   -2.2924   -0.2710   29.5898 H   0  0  0  0  0  0  0  0  0  0  0  0
   -1.2662   -1.7327   28.0241 H   0  0  0  0  0  0  0  0  0  0  0  0
   -0.7847   -2.5482   29.5068 H   0  0  0  0  0  0  0  0  0  0  0  0
    1.1637   -1.9042   27.8897 H   0  0  0  0  0  0  0  0  0  0  0  0
    1.3715   -1.3316   29.5399 H   0  0  0  0  0  0  0  0  0  0  0  0
    0.2981    0.1136   27.2357 H   0  0  0  0  0  0  0  0  0  0  0  0
    0.0655    1.3931   29.7881 H   0  0  0  0  0  0  0  0  0  0  0  0
   -2.1436    2.0434   24.2814 H   0  0  0  0  0  0  0  0  0  0  0  0
   -0.5373    4.5887   24.6771 H   0  0  0  0  0  0  0  0  0  0  0  0
    0.1487    2.9943   24.3765 H   0  0  0  0  0  0  0  0  0  0  0  0
   -0.8639    3.7628   23.1431 H   0  0  0  0  0  0  0  0  0  0  0  0
   -3.4376    3.8868   23.5166 H   0  0  0  0  0  0  0  0  0  0  0  0
   -3.0277    4.8600   24.9221 H   0  0  0  0  0  0  0  0  0  0  0  0
   -4.0742    3.4299   25.1055 H   0  0  0  0  0  0  0  0  0  0  0  0
  1  2  1  0
  2  3  2  0
  3  4  1  0
  4  5  1  0
  4  6  2  0
  6  7  1  0
  7  8  1  0
  8  9  1  0
  9 10  1  0
 10 11  1  0
 11 12  2  0
 11 13  2  0
 11 14  1  0
 14 15  1  0
 15 16  1  0
 16 17  1  0
 17 18  1  0
 18 19  1  0
 19 20  2  0
 20 21  1  0
 21 22  1  0
 22 23  1  0
 23 24  1  0
 23 25  1  0
 22 26  2  0
  7 27  2  0
 27  2  1  0
 18 14  1  0
 26 19  1  0
  1 28  1  0
  1 29  1  0
  1 30  1  0
  3 31  1  0
  5 32  1  0
  8 33  1  0
  8 34  1  0
  9 35  1  0
  9 36  1  0
 10 37  1  0
 14 38  1  0
 15 39  1  0
 15 40  1  0
 16 41  1  0
 16 42  1  0
 17 43  1  0
 18 44  1  0
 23 45  1  0
 24 46  1  0
 24 47  1  0
 24 48  1  0
 25 49  1  0
 25 50  1  0
 25 51  1  0
M  END
>  <Energy>  (559) 
-95.088938990981816

>  <compound_id>  (559) 
836

>  <target_id>  (559) 
1

>  <reference_id>  (559) 
128

>  <inspiration_ids>  (559) 
[70, 128]

>  <energy_score>  (559) 
-72.68837957756034

>  <distance_score>  (559) 
2.1848143913504328

>  <path>  (559) 
/opt/xchem-fragalysis-2/maxwin/BulkDock/SCRATCH/505733/C836-P128/C836-P128.minimised.mol

>  <scratch_subdir>  (559) 
/opt/xchem-fragalysis-2/maxwin/BulkDock/SCRATCH/505733/C836-P128

>  <fragmenstein_runtime>  (559) 
6.671309471130371

>  <fragmenstein_outcome>  (559) 
too moved

>  <fragmenstein_mode>  (559) 
expansion

>  <fragmenstein_error>  (559) 


$$$$
C836-P70
     RDKit          3D

 51 53  0  0  0  0  0  0  0  0999 V2000
    2.5095   -5.2107   30.9838 C   0  0  0  0  0  0  0  0  0  0  0  0
    1.1059   -5.4410   31.4006 C   0  0  0  0  0  0  0  0  0  0  0  0
    0.4160   -6.5766   31.0818 C   0  0  0  0  0  0  0  0  0  0  0  0
   -0.8224   -6.6925   31.6150 C   0  0  0  0  0  0  0  0  0  0  0  0
   -1.5689   -7.8074   31.3858 O   0  0  0  0  0  0  0  0  0  0  0  0
   -1.4178   -5.7499   32.3384 N   0  0  0  0  0  0  0  0  0  0  0  0
   -0.6960   -4.6383   32.5470 C   0  0  0  0  0  0  0  0  0  0  0  0
   -1.3269   -3.4520   33.1990 C   0  0  0  0  0  0  0  0  0  0  0  0
   -0.7968   -2.0579   32.7551 C   0  0  0  0  0  0  0  0  0  0  0  0
   -1.2657   -1.6616   31.3844 N   0  0  0  0  0  0  0  0  0  0  0  0
   -1.3341   -0.0254   30.9549 S   0  0  0  0  0  0  0  0  0  0  0  0
   -1.1080    0.7385   32.1638 O   0  0  0  0  0  0  0  0  0  0  0  0
   -2.5885    0.0743   30.2541 O   0  0  0  0  0  0  0  0  0  0  0  0
   -0.0017    0.3091   29.8056 C   0  0  0  0  0  0  0  0  0  0  0  0
    0.9425   -0.8779   29.6938 C   0  0  0  0  0  0  0  0  0  0  0  0
    0.2960   -1.7502   28.6179 C   0  0  0  0  0  0  0  0  0  0  0  0
   -0.5952   -0.8800   27.8415 N   0  0  0  0  0  0  0  0  0  0  0  0
   -0.3506    0.4809   28.3339 C   0  0  0  0  0  0  0  0  0  0  0  0
   -1.2384    1.5466   27.7510 C   0  0  0  0  0  0  0  0  0  0  0  0
   -1.2797    2.7806   28.2707 N   0  0  0  0  0  0  0  0  0  0  0  0
   -1.7395    3.5809   27.2190 O   0  0  0  0  0  0  0  0  0  0  0  0
   -1.8828    2.7622   26.1376 C   0  0  0  0  0  0  0  0  0  0  0  0
   -2.0751    3.3828   24.7867 C   0  0  0  0  0  0  0  0  0  0  0  0
   -0.7350    3.6764   24.1245 C   0  0  0  0  0  0  0  0  0  0  0  0
   -2.9737    4.5970   24.7678 C   0  0  0  0  0  0  0  0  0  0  0  0
   -1.6409    1.4989   26.4200 N   0  0  0  0  0  0  0  0  0  0  0  0
    0.5605   -4.4793   32.1462 N   0  0  0  0  0  0  0  0  0  0  0  0
    2.6217   -5.3582   29.9072 H   0  0  0  0  0  0  0  0  0  0  0  0
    2.8238   -4.1847   31.2050 H   0  0  0  0  0  0  0  0  0  0  0  0
    3.1808   -5.8858   31.5194 H   0  0  0  0  0  0  0  0  0  0  0  0
    0.8198   -7.3743   30.5091 H   0  0  0  0  0  0  0  0  0  0  0  0
   -2.3404   -7.5961   31.9385 H   0  0  0  0  0  0  0  0  0  0  0  0
   -2.3883   -3.4264   32.9497 H   0  0  0  0  0  0  0  0  0  0  0  0
   -1.1981   -3.5464   34.2825 H   0  0  0  0  0  0  0  0  0  0  0  0
   -1.2033   -1.3396   33.4762 H   0  0  0  0  0  0  0  0  0  0  0  0
    0.2948   -1.9991   32.7988 H   0  0  0  0  0  0  0  0  0  0  0  0
   -2.1206   -2.1215   31.0662 H   0  0  0  0  0  0  0  0  0  0  0  0
    0.5265    1.1846   30.1996 H   0  0  0  0  0  0  0  0  0  0  0  0
    1.1304   -1.4175   30.6241 H   0  0  0  0  0  0  0  0  0  0  0  0
    1.9203   -0.5316   29.3318 H   0  0  0  0  0  0  0  0  0  0  0  0
   -0.2780   -2.5721   29.0577 H   0  0  0  0  0  0  0  0  0  0  0  0
    1.0589   -2.1951   27.9708 H   0  0  0  0  0  0  0  0  0  0  0  0
   -1.5740   -1.1377   27.9800 H   0  0  0  0  0  0  0  0  0  0  0  0
    0.6073    0.7607   27.8572 H   0  0  0  0  0  0  0  0  0  0  0  0
   -2.5715    2.6570   24.1528 H   0  0  0  0  0  0  0  0  0  0  0  0
   -0.8718    4.0137   23.0915 H   0  0  0  0  0  0  0  0  0  0  0  0
   -0.0987    2.7878   24.1070 H   0  0  0  0  0  0  0  0  0  0  0  0
   -0.1892    4.4579   24.6656 H   0  0  0  0  0  0  0  0  0  0  0  0
   -3.1251    4.9626   23.7464 H   0  0  0  0  0  0  0  0  0  0  0  0
   -2.5479    5.4149   25.3557 H   0  0  0  0  0  0  0  0  0  0  0  0
   -3.9503    4.3322   25.1720 H   0  0  0  0  0  0  0  0  0  0  0  0
  1  2  1  0
  2  3  2  0
  3  4  1  0
  4  5  1  0
  4  6  2  0
  6  7  1  0
  7  8  1  0
  8  9  1  0
  9 10  1  0
 10 11  1  0
 11 12  2  0
 11 13  2  0
 11 14  1  0
 14 15  1  0
 15 16  1  0
 16 17  1  0
 17 18  1  0
 18 19  1  0
 19 20  2  0
 20 21  1  0
 21 22  1  0
 22 23  1  0
 23 24  1  0
 23 25  1  0
 22 26  2  0
  7 27  2  0
 27  2  1  0
 18 14  1  0
 26 19  1  0
  1 28  1  0
  1 29  1  0
  1 30  1  0
  3 31  1  0
  5 32  1  0
  8 33  1  0
  8 34  1  0
  9 35  1  0
  9 36  1  0
 10 37  1  0
 14 38  1  0
 15 39  1  0
 15 40  1  0
 16 41  1  0
 16 42  1  0
 17 43  1  0
 18 44  1  0
 23 45  1  0
 24 46  1  0
 24 47  1  0
 24 48  1  0
 25 49  1  0
 25 50  1  0
 25 51  1  0
M  END
>  <Energy>  (560) 
-79.05166453492572

>  <compound_id>  (560) 
836

>  <target_id>  (560) 
1

>  <reference_id>  (560) 
70

>  <inspiration_ids>  (560) 
[70, 129]

>  <energy_score>  (560) 
-56.651105121504656

>  <distance_score>  (560) 
2.062363080411807

>  <path>  (560) 
/opt/xchem-fragalysis-2/maxwin/BulkDock/SCRATCH/505733/C836-P70/C836-P70.minimised.mol

>  <scratch_subdir>  (560) 
/opt/xchem-fragalysis-2/maxwin/BulkDock/SCRATCH/505733/C836-P70

>  <fragmenstein_runtime>  (560) 
6.929579257965088

>  <fragmenstein_outcome>  (560) 
too moved

>  <fragmenstein_mode>  (560) 
expansion

>  <fragmenstein_error>  (560) 


$$$$
C836-P129
     RDKit          3D

 51 53  0  0  0  0  0  0  0  0999 V2000
    1.9183   -5.4619   29.8175 C   0  0  0  0  0  0  0  0  0  0  0  0
    0.8268   -5.8515   30.7433 C   0  0  0  0  0  0  0  0  0  0  0  0
    0.1445   -7.0357   30.6697 C   0  0  0  0  0  0  0  0  0  0  0  0
   -0.8542   -7.1813   31.5919 C   0  0  0  0  0  0  0  0  0  0  0  0
   -1.6068   -8.3146   31.5663 O   0  0  0  0  0  0  0  0  0  0  0  0
   -1.2271   -6.2616   32.4909 N   0  0  0  0  0  0  0  0  0  0  0  0
   -0.5414   -5.1100   32.4376 C   0  0  0  0  0  0  0  0  0  0  0  0
   -1.0360   -3.8839   33.1483 C   0  0  0  0  0  0  0  0  0  0  0  0
   -0.5618   -2.5086   32.5538 C   0  0  0  0  0  0  0  0  0  0  0  0
   -0.9060   -2.3519   31.1166 N   0  0  0  0  0  0  0  0  0  0  0  0
   -1.5081   -0.9811   30.3612 S   0  0  0  0  0  0  0  0  0  0  0  0
   -2.4606   -0.3995   31.2837 O   0  0  0  0  0  0  0  0  0  0  0  0
   -1.8922   -1.4587   29.0560 O   0  0  0  0  0  0  0  0  0  0  0  0
   -0.1785    0.1902   30.1214 C   0  0  0  0  0  0  0  0  0  0  0  0
    1.1890   -0.4774   30.1812 C   0  0  0  0  0  0  0  0  0  0  0  0
    1.3554   -1.0663   28.7884 C   0  0  0  0  0  0  0  0  0  0  0  0
    0.6748   -0.1482   27.8815 N   0  0  0  0  0  0  0  0  0  0  0  0
   -0.0653    0.8207   28.7301 C   0  0  0  0  0  0  0  0  0  0  0  0
   -1.1316    1.5719   27.9715 C   0  0  0  0  0  0  0  0  0  0  0  0
   -1.5162    2.7923   28.3772 N   0  0  0  0  0  0  0  0  0  0  0  0
   -1.9938    3.4084   27.2156 O   0  0  0  0  0  0  0  0  0  0  0  0
   -1.8244    2.5113   26.2047 C   0  0  0  0  0  0  0  0  0  0  0  0
   -2.0096    2.9696   24.7918 C   0  0  0  0  0  0  0  0  0  0  0  0
   -0.7601    3.6509   24.2478 C   0  0  0  0  0  0  0  0  0  0  0  0
   -3.2336    3.8317   24.5617 C   0  0  0  0  0  0  0  0  0  0  0  0
   -1.3519    1.3554   26.6218 N   0  0  0  0  0  0  0  0  0  0  0  0
    0.5006   -4.9075   31.6302 N   0  0  0  0  0  0  0  0  0  0  0  0
    2.2560   -6.2984   29.1996 H   0  0  0  0  0  0  0  0  0  0  0  0
    1.5684   -4.6720   29.1446 H   0  0  0  0  0  0  0  0  0  0  0  0
    2.7782   -5.0805   30.3764 H   0  0  0  0  0  0  0  0  0  0  0  0
    0.3670   -7.8170   29.9594 H   0  0  0  0  0  0  0  0  0  0  0  0
   -2.1920   -8.1917   32.3377 H   0  0  0  0  0  0  0  0  0  0  0  0
   -2.1095   -3.8403   33.0485 H   0  0  0  0  0  0  0  0  0  0  0  0
   -0.7705   -3.9420   34.2082 H   0  0  0  0  0  0  0  0  0  0  0  0
   -1.0210   -1.7009   33.1330 H   0  0  0  0  0  0  0  0  0  0  0  0
    0.5237   -2.4236   32.6670 H   0  0  0  0  0  0  0  0  0  0  0  0
   -0.5553   -3.0746   30.4817 H   0  0  0  0  0  0  0  0  0  0  0  0
   -0.2687    0.9393   30.9142 H   0  0  0  0  0  0  0  0  0  0  0  0
    1.3197   -1.2258   30.9612 H   0  0  0  0  0  0  0  0  0  0  0  0
    1.9629    0.2843   30.3498 H   0  0  0  0  0  0  0  0  0  0  0  0
    0.8988   -2.0603   28.7279 H   0  0  0  0  0  0  0  0  0  0  0  0
    2.4115   -1.1693   28.5218 H   0  0  0  0  0  0  0  0  0  0  0  0
   -0.0216   -0.6576   27.3150 H   0  0  0  0  0  0  0  0  0  0  0  0
    0.6849    1.6199   28.8736 H   0  0  0  0  0  0  0  0  0  0  0  0
   -2.1377    2.0703   24.1944 H   0  0  0  0  0  0  0  0  0  0  0  0
   -0.8688    3.8752   23.1812 H   0  0  0  0  0  0  0  0  0  0  0  0
    0.1259    3.0194   24.3698 H   0  0  0  0  0  0  0  0  0  0  0  0
   -0.5614    4.5921   24.7734 H   0  0  0  0  0  0  0  0  0  0  0  0
   -3.4568    3.9106   23.4919 H   0  0  0  0  0  0  0  0  0  0  0  0
   -3.0661    4.8457   24.9261 H   0  0  0  0  0  0  0  0  0  0  0  0
   -4.1092    3.4078   25.0610 H   0  0  0  0  0  0  0  0  0  0  0  0
  1  2  1  0
  2  3  2  0
  3  4  1  0
  4  5  1  0
  4  6  2  0
  6  7  1  0
  7  8  1  0
  8  9  1  0
  9 10  1  0
 10 11  1  0
 11 12  2  0
 11 13  2  0
 11 14  1  0
 14 15  1  0
 15 16  1  0
 16 17  1  0
 17 18  1  0
 18 19  1  0
 19 20  2  0
 20 21  1  0
 21 22  1  0
 22 23  1  0
 23 24  1  0
 23 25  1  0
 22 26  2  0
  7 27  2  0
 27  2  1  0
 18 14  1  0
 26 19  1  0
  1 28  1  0
  1 29  1  0
  1 30  1  0
  3 31  1  0
  5 32  1  0
  8 33  1  0
  8 34  1  0
  9 35  1  0
  9 36  1  0
 10 37  1  0
 14 38  1  0
 15 39  1  0
 15 40  1  0
 16 41  1  0
 16 42  1  0
 17 43  1  0
 18 44  1  0
 23 45  1  0
 24 46  1  0
 24 47  1  0
 24 48  1  0
 25 49  1  0
 25 50  1  0
 25 51  1  0
M  END
>  <Energy>  (561) 
-79.109610238920425

>  <compound_id>  (561) 
836

>  <target_id>  (561) 
1

>  <reference_id>  (561) 
129

>  <inspiration_ids>  (561) 
[70, 129]

>  <energy_score>  (561) 
-56.70905082549936

>  <distance_score>  (561) 
2.0125283111906573

>  <path>  (561) 
/opt/xchem-fragalysis-2/maxwin/BulkDock/SCRATCH/505733/C836-P129/C836-P129.minimised.mol

>  <scratch_subdir>  (561) 
/opt/xchem-fragalysis-2/maxwin/BulkDock/SCRATCH/505733/C836-P129

>  <fragmenstein_runtime>  (561) 
6.859413385391235

>  <fragmenstein_outcome>  (561) 
too moved

>  <fragmenstein_mode>  (561) 
expansion

>  <fragmenstein_error>  (561) 


$$$$
C835-P70
     RDKit          3D

 48 50  0  0  0  0  0  0  0  0999 V2000
   -0.7988    3.4347   23.5151 C   0  0  0  0  0  0  0  0  0  0  0  0
   -1.6521    3.9599   24.6669 C   0  0  0  0  0  0  0  0  0  0  0  0
   -3.0240    4.3656   24.1352 C   0  0  0  0  0  0  0  0  0  0  0  0
   -1.6972    2.9761   25.7935 C   0  0  0  0  0  0  0  0  0  0  0  0
   -0.7340    2.2131   26.2768 N   0  0  0  0  0  0  0  0  0  0  0  0
   -1.3087    1.7123   27.4286 C   0  0  0  0  0  0  0  0  0  0  0  0
   -0.5282    1.1058   28.5554 C   0  0  0  0  0  0  0  0  0  0  0  0
    0.7934    1.7820   28.6819 N   0  0  0  0  0  0  0  0  0  0  0  0
    1.7911    0.7617   29.0027 C   0  0  0  0  0  0  0  0  0  0  0  0
    1.0053   -0.4652   29.3960 C   0  0  0  0  0  0  0  0  0  0  0  0
   -0.1916   -0.3619   28.4795 C   0  0  0  0  0  0  0  0  0  0  0  0
   -1.5505   -1.3489   28.9754 S   0  0  0  0  0  0  0  0  0  0  0  0
   -1.9802   -0.9636   30.3014 O   0  0  0  0  0  0  0  0  0  0  0  0
   -2.4460   -1.3760   27.8434 O   0  0  0  0  0  0  0  0  0  0  0  0
   -0.9050   -2.9003   29.0617 N   0  0  0  0  0  0  0  0  0  0  0  0
   -0.6505   -3.4883   30.3979 C   0  0  0  0  0  0  0  0  0  0  0  0
    0.2603   -4.7074   30.2402 C   0  0  0  0  0  0  0  0  0  0  0  0
   -0.0925   -5.7876   31.2399 C   0  0  0  0  0  0  0  0  0  0  0  0
    0.0520   -5.5135   32.4954 N   0  0  0  0  0  0  0  0  0  0  0  0
   -0.1833   -6.5306   33.3902 C   0  0  0  0  0  0  0  0  0  0  0  0
    0.2879   -6.5626   34.5146 O   0  0  0  0  0  0  0  0  0  0  0  0
   -1.0229   -7.6743   32.9770 C   0  0  0  0  0  0  0  0  0  0  0  0
   -1.0887   -7.8986   31.6677 C   0  0  0  0  0  0  0  0  0  0  0  0
   -0.5888   -6.9940   30.7745 N   0  0  0  0  0  0  0  0  0  0  0  0
   -2.5907    2.0433   27.5800 N   0  0  0  0  0  0  0  0  0  0  0  0
   -2.8469    2.8993   26.5187 O   0  0  0  0  0  0  0  0  0  0  0  0
    0.2142    3.1948   23.8553 H   0  0  0  0  0  0  0  0  0  0  0  0
   -1.2291    2.5346   23.0694 H   0  0  0  0  0  0  0  0  0  0  0  0
   -0.7082    4.1879   22.7248 H   0  0  0  0  0  0  0  0  0  0  0  0
   -1.1686    4.8637   25.0600 H   0  0  0  0  0  0  0  0  0  0  0  0
   -3.6805    4.7048   24.9372 H   0  0  0  0  0  0  0  0  0  0  0  0
   -2.9280    5.1886   23.4182 H   0  0  0  0  0  0  0  0  0  0  0  0
   -3.5173    3.5431   23.6172 H   0  0  0  0  0  0  0  0  0  0  0  0
   -1.0584    1.3170   29.4902 H   0  0  0  0  0  0  0  0  0  0  0  0
    1.0245    2.2261   27.7873 H   0  0  0  0  0  0  0  0  0  0  0  0
    2.4004    0.5527   28.1153 H   0  0  0  0  0  0  0  0  0  0  0  0
    2.4591    1.0958   29.8018 H   0  0  0  0  0  0  0  0  0  0  0  0
    0.7169   -0.4161   30.4532 H   0  0  0  0  0  0  0  0  0  0  0  0
    1.5747   -1.3868   29.2416 H   0  0  0  0  0  0  0  0  0  0  0  0
    0.0820   -0.6597   27.4609 H   0  0  0  0  0  0  0  0  0  0  0  0
   -1.4367   -3.4862   28.3991 H   0  0  0  0  0  0  0  0  0  0  0  0
   -1.6106   -3.7595   30.8483 H   0  0  0  0  0  0  0  0  0  0  0  0
   -0.1573   -2.7584   31.0480 H   0  0  0  0  0  0  0  0  0  0  0  0
    0.1853   -5.1308   29.2312 H   0  0  0  0  0  0  0  0  0  0  0  0
    1.3070   -4.4180   30.3899 H   0  0  0  0  0  0  0  0  0  0  0  0
   -1.3922   -8.3355   33.7456 H   0  0  0  0  0  0  0  0  0  0  0  0
   -1.5260   -8.8026   31.2772 H   0  0  0  0  0  0  0  0  0  0  0  0
   -0.2389   -7.3514   29.8862 H   0  0  0  0  0  0  0  0  0  0  0  0
  1  2  1  0
  2  3  1  0
  2  4  1  0
  4  5  2  0
  5  6  1  0
  6  7  1  0
  7  8  1  0
  8  9  1  0
  9 10  1  0
 10 11  1  0
 11 12  1  0
 12 13  2  0
 12 14  2  0
 12 15  1  0
 15 16  1  0
 16 17  1  0
 17 18  1  0
 18 19  2  0
 19 20  1  0
 20 21  2  0
 20 22  1  0
 22 23  2  0
 23 24  1  0
  6 25  2  0
 25 26  1  0
 26  4  1  0
 11  7  1  0
 24 18  1  0
  1 27  1  0
  1 28  1  0
  1 29  1  0
  2 30  1  0
  3 31  1  0
  3 32  1  0
  3 33  1  0
  7 34  1  0
  8 35  1  0
  9 36  1  0
  9 37  1  0
 10 38  1  0
 10 39  1  0
 11 40  1  0
 15 41  1  0
 16 42  1  0
 16 43  1  0
 17 44  1  0
 17 45  1  0
 22 46  1  0
 23 47  1  0
 24 48  1  0
M  END
>  <Energy>  (562) 
-74.806239816536021

>  <compound_id>  (562) 
835

>  <target_id>  (562) 
1

>  <reference_id>  (562) 
70

>  <inspiration_ids>  (562) 
[70, 130]

>  <energy_score>  (562) 
-71.09085683248256

>  <distance_score>  (562) 
1.5036661675486758

>  <path>  (562) 
/opt/xchem-fragalysis-2/maxwin/BulkDock/SCRATCH/505733/C835-P70/C835-P70.minimised.mol

>  <scratch_subdir>  (562) 
/opt/xchem-fragalysis-2/maxwin/BulkDock/SCRATCH/505733/C835-P70

>  <fragmenstein_runtime>  (562) 
4.779703140258789

>  <fragmenstein_outcome>  (562) 
too moved

>  <fragmenstein_mode>  (562) 
expansion

>  <fragmenstein_error>  (562) 


$$$$
C835-P130
     RDKit          3D

 48 50  0  0  0  0  0  0  0  0999 V2000
   -0.9053    3.4442   23.5116 C   0  0  0  0  0  0  0  0  0  0  0  0
   -1.7968    3.9728   24.6301 C   0  0  0  0  0  0  0  0  0  0  0  0
   -3.1651    4.3188   24.0487 C   0  0  0  0  0  0  0  0  0  0  0  0
   -1.8424    3.0073   25.7712 C   0  0  0  0  0  0  0  0  0  0  0  0
   -0.8488    2.4106   26.4041 N   0  0  0  0  0  0  0  0  0  0  0  0
   -1.5061    1.7534   27.4270 C   0  0  0  0  0  0  0  0  0  0  0  0
   -0.8134    1.1819   28.6297 C   0  0  0  0  0  0  0  0  0  0  0  0
    0.4316    1.9542   28.9138 N   0  0  0  0  0  0  0  0  0  0  0  0
    1.5396    1.0094   29.0001 C   0  0  0  0  0  0  0  0  0  0  0  0
    0.8860   -0.2854   29.4058 C   0  0  0  0  0  0  0  0  0  0  0  0
   -0.3643   -0.2599   28.5556 C   0  0  0  0  0  0  0  0  0  0  0  0
   -1.6147   -1.3530   29.1240 S   0  0  0  0  0  0  0  0  0  0  0  0
   -2.0267   -0.9996   30.4647 O   0  0  0  0  0  0  0  0  0  0  0  0
   -2.5470   -1.5008   28.0400 O   0  0  0  0  0  0  0  0  0  0  0  0
   -0.8387   -2.8423   29.1950 N   0  0  0  0  0  0  0  0  0  0  0  0
   -0.5876   -3.4380   30.5216 C   0  0  0  0  0  0  0  0  0  0  0  0
    0.4022   -4.5813   30.3446 C   0  0  0  0  0  0  0  0  0  0  0  0
    0.1015   -5.7331   31.2692 C   0  0  0  0  0  0  0  0  0  0  0  0
    0.6418   -5.7224   32.4467 N   0  0  0  0  0  0  0  0  0  0  0  0
    0.4357   -6.8603   33.1867 C   0  0  0  0  0  0  0  0  0  0  0  0
    1.3055   -7.3797   33.8676 O   0  0  0  0  0  0  0  0  0  0  0  0
   -0.8645   -7.5455   33.0447 C   0  0  0  0  0  0  0  0  0  0  0  0
   -1.3314   -7.5445   31.7959 C   0  0  0  0  0  0  0  0  0  0  0  0
   -0.7444   -6.7475   30.8491 N   0  0  0  0  0  0  0  0  0  0  0  0
   -2.8320    1.8794   27.3833 N   0  0  0  0  0  0  0  0  0  0  0  0
   -3.0591    2.7205   26.3072 O   0  0  0  0  0  0  0  0  0  0  0  0
    0.1063    3.2450   23.8800 H   0  0  0  0  0  0  0  0  0  0  0  0
   -1.3072    2.5194   23.0880 H   0  0  0  0  0  0  0  0  0  0  0  0
   -0.8209    4.1756   22.7006 H   0  0  0  0  0  0  0  0  0  0  0  0
   -1.3522    4.8994   25.0150 H   0  0  0  0  0  0  0  0  0  0  0  0
   -3.0790    5.1379   23.3261 H   0  0  0  0  0  0  0  0  0  0  0  0
   -3.6105    3.4708   23.5254 H   0  0  0  0  0  0  0  0  0  0  0  0
   -3.8615    4.6349   24.8245 H   0  0  0  0  0  0  0  0  0  0  0  0
   -1.4641    1.3345   29.4962 H   0  0  0  0  0  0  0  0  0  0  0  0
    0.5911    2.6213   28.1518 H   0  0  0  0  0  0  0  0  0  0  0  0
    2.0233    0.9070   28.0212 H   0  0  0  0  0  0  0  0  0  0  0  0
    2.2912    1.3390   29.7227 H   0  0  0  0  0  0  0  0  0  0  0  0
    0.6549   -0.2874   30.4781 H   0  0  0  0  0  0  0  0  0  0  0  0
    1.5192   -1.1521   29.1926 H   0  0  0  0  0  0  0  0  0  0  0  0
   -0.1218   -0.5468   27.5275 H   0  0  0  0  0  0  0  0  0  0  0  0
   -1.3175   -3.4402   28.5042 H   0  0  0  0  0  0  0  0  0  0  0  0
   -1.5351   -3.7824   30.9467 H   0  0  0  0  0  0  0  0  0  0  0  0
   -0.1536   -2.6950   31.1989 H   0  0  0  0  0  0  0  0  0  0  0  0
    0.3931   -4.9650   29.3200 H   0  0  0  0  0  0  0  0  0  0  0  0
    1.4220   -4.2246   30.5336 H   0  0  0  0  0  0  0  0  0  0  0  0
   -1.2551   -8.1199   33.8687 H   0  0  0  0  0  0  0  0  0  0  0  0
   -2.2091   -8.1109   31.5171 H   0  0  0  0  0  0  0  0  0  0  0  0
   -1.1191   -6.7449   29.9079 H   0  0  0  0  0  0  0  0  0  0  0  0
  1  2  1  0
  2  3  1  0
  2  4  1  0
  4  5  2  0
  5  6  1  0
  6  7  1  0
  7  8  1  0
  8  9  1  0
  9 10  1  0
 10 11  1  0
 11 12  1  0
 12 13  2  0
 12 14  2  0
 12 15  1  0
 15 16  1  0
 16 17  1  0
 17 18  1  0
 18 19  2  0
 19 20  1  0
 20 21  2  0
 20 22  1  0
 22 23  2  0
 23 24  1  0
  6 25  2  0
 25 26  1  0
 26  4  1  0
 11  7  1  0
 24 18  1  0
  1 27  1  0
  1 28  1  0
  1 29  1  0
  2 30  1  0
  3 31  1  0
  3 32  1  0
  3 33  1  0
  7 34  1  0
  8 35  1  0
  9 36  1  0
  9 37  1  0
 10 38  1  0
 10 39  1  0
 11 40  1  0
 15 41  1  0
 16 42  1  0
 16 43  1  0
 17 44  1  0
 17 45  1  0
 22 46  1  0
 23 47  1  0
 24 48  1  0
M  END
>  <Energy>  (563) 
-74.311423406850793

>  <compound_id>  (563) 
835

>  <target_id>  (563) 
1

>  <reference_id>  (563) 
130

>  <inspiration_ids>  (563) 
[70, 130]

>  <energy_score>  (563) 
-70.59604042279568

>  <distance_score>  (563) 
1.4470229893785724

>  <path>  (563) 
/opt/xchem-fragalysis-2/maxwin/BulkDock/SCRATCH/505733/C835-P130/C835-P130.minimised.mol

>  <scratch_subdir>  (563) 
/opt/xchem-fragalysis-2/maxwin/BulkDock/SCRATCH/505733/C835-P130

>  <fragmenstein_runtime>  (563) 
4.854374647140503

>  <fragmenstein_outcome>  (563) 
too moved

>  <fragmenstein_mode>  (563) 
expansion

>  <fragmenstein_error>  (563) 


$$$$
C835-P70
     RDKit          3D

 48 50  0  0  0  0  0  0  0  0999 V2000
   -0.9328    3.5609   23.7031 C   0  0  0  0  0  0  0  0  0  0  0  0
   -1.8806    3.9368   24.8446 C   0  0  0  0  0  0  0  0  0  0  0  0
   -3.2887    4.1415   24.3008 C   0  0  0  0  0  0  0  0  0  0  0  0
   -1.8044    2.9534   25.9707 C   0  0  0  0  0  0  0  0  0  0  0  0
   -0.9504    1.9724   26.1633 N   0  0  0  0  0  0  0  0  0  0  0  0
   -1.1300    1.6661   27.5000 C   0  0  0  0  0  0  0  0  0  0  0  0
   -0.0619    1.0156   28.3258 C   0  0  0  0  0  0  0  0  0  0  0  0
    0.7714    0.0320   27.6106 N   0  0  0  0  0  0  0  0  0  0  0  0
    1.5305   -0.6920   28.6375 C   0  0  0  0  0  0  0  0  0  0  0  0
    1.0317   -0.1883   29.9873 C   0  0  0  0  0  0  0  0  0  0  0  0
   -0.3426    0.3727   29.6681 C   0  0  0  0  0  0  0  0  0  0  0  0
   -1.6231   -0.8653   29.6460 S   0  0  0  0  0  0  0  0  0  0  0  0
   -2.5122   -0.5517   30.7472 O   0  0  0  0  0  0  0  0  0  0  0  0
   -2.0867   -1.0407   28.2898 O   0  0  0  0  0  0  0  0  0  0  0  0
   -0.8726   -2.3308   30.0174 N   0  0  0  0  0  0  0  0  0  0  0  0
   -1.1243   -2.9586   31.3361 C   0  0  0  0  0  0  0  0  0  0  0  0
    0.0519   -3.8454   31.7481 C   0  0  0  0  0  0  0  0  0  0  0  0
   -0.3780   -5.2675   32.0532 C   0  0  0  0  0  0  0  0  0  0  0  0
   -0.4295   -6.0953   31.0586 N   0  0  0  0  0  0  0  0  0  0  0  0
   -0.8628   -7.3830   31.2867 C   0  0  0  0  0  0  0  0  0  0  0  0
   -1.1839   -8.1492   30.3840 O   0  0  0  0  0  0  0  0  0  0  0  0
   -1.0895   -7.8437   32.6771 C   0  0  0  0  0  0  0  0  0  0  0  0
   -1.0279   -6.9238   33.6343 C   0  0  0  0  0  0  0  0  0  0  0  0
   -0.7079   -5.6330   33.3309 N   0  0  0  0  0  0  0  0  0  0  0  0
   -2.1273    2.3420   28.0746 N   0  0  0  0  0  0  0  0  0  0  0  0
   -2.5709    3.2046   27.0706 O   0  0  0  0  0  0  0  0  0  0  0  0
   -0.9429    4.3319   22.9248 H   0  0  0  0  0  0  0  0  0  0  0  0
   -1.2120    2.6124   23.2362 H   0  0  0  0  0  0  0  0  0  0  0  0
    0.0985    3.4656   24.0608 H   0  0  0  0  0  0  0  0  0  0  0  0
   -1.5407    4.8966   25.2568 H   0  0  0  0  0  0  0  0  0  0  0  0
   -3.4819    3.5062   23.4334 H   0  0  0  0  0  0  0  0  0  0  0  0
   -4.0579    3.9437   25.0498 H   0  0  0  0  0  0  0  0  0  0  0  0
   -3.4097    5.1739   23.9533 H   0  0  0  0  0  0  0  0  0  0  0  0
    0.6203    1.8586   28.5298 H   0  0  0  0  0  0  0  0  0  0  0  0
    0.1552   -0.6258   27.1218 H   0  0  0  0  0  0  0  0  0  0  0  0
    1.3675   -1.7693   28.5282 H   0  0  0  0  0  0  0  0  0  0  0  0
    2.6037   -0.5086   28.5239 H   0  0  0  0  0  0  0  0  0  0  0  0
    1.6853    0.6260   30.3285 H   0  0  0  0  0  0  0  0  0  0  0  0
    1.0548   -0.9542   30.7656 H   0  0  0  0  0  0  0  0  0  0  0  0
   -0.6288    1.1066   30.4273 H   0  0  0  0  0  0  0  0  0  0  0  0
   -0.9569   -2.9724   29.2178 H   0  0  0  0  0  0  0  0  0  0  0  0
   -2.0619   -3.5162   31.2794 H   0  0  0  0  0  0  0  0  0  0  0  0
   -1.2324   -2.1815   32.1003 H   0  0  0  0  0  0  0  0  0  0  0  0
    0.8236   -3.8786   30.9692 H   0  0  0  0  0  0  0  0  0  0  0  0
    0.5249   -3.4342   32.6481 H   0  0  0  0  0  0  0  0  0  0  0  0
   -1.3756   -8.8703   32.8360 H   0  0  0  0  0  0  0  0  0  0  0  0
   -1.2440   -7.1286   34.6788 H   0  0  0  0  0  0  0  0  0  0  0  0
   -0.8327   -4.9442   34.0685 H   0  0  0  0  0  0  0  0  0  0  0  0
  1  2  1  0
  2  3  1  0
  2  4  1  0
  4  5  2  0
  5  6  1  0
  6  7  1  0
  7  8  1  0
  8  9  1  0
  9 10  1  0
 10 11  1  0
 11 12  1  0
 12 13  2  0
 12 14  2  0
 12 15  1  0
 15 16  1  0
 16 17  1  0
 17 18  1  0
 18 19  2  0
 19 20  1  0
 20 21  2  0
 20 22  1  0
 22 23  2  0
 23 24  1  0
  6 25  2  0
 25 26  1  0
 26  4  1  0
 11  7  1  0
 24 18  1  0
  1 27  1  0
  1 28  1  0
  1 29  1  0
  2 30  1  0
  3 31  1  0
  3 32  1  0
  3 33  1  0
  7 34  1  0
  8 35  1  0
  9 36  1  0
  9 37  1  0
 10 38  1  0
 10 39  1  0
 11 40  1  0
 15 41  1  0
 16 42  1  0
 16 43  1  0
 17 44  1  0
 17 45  1  0
 22 46  1  0
 23 47  1  0
 24 48  1  0
M  END
>  <Energy>  (564) 
-57.113141332220131

>  <compound_id>  (564) 
835

>  <target_id>  (564) 
1

>  <reference_id>  (564) 
70

>  <inspiration_ids>  (564) 
[70, 131]

>  <energy_score>  (564) 
-53.39775834816649

>  <distance_score>  (564) 
1.3621741545454795

>  <path>  (564) 
/opt/xchem-fragalysis-2/maxwin/BulkDock/SCRATCH/505733/C835-P70/C835-P70.minimised.mol

>  <scratch_subdir>  (564) 
/opt/xchem-fragalysis-2/maxwin/BulkDock/SCRATCH/505733/C835-P70

>  <fragmenstein_runtime>  (564) 
4.977422714233398

>  <fragmenstein_outcome>  (564) 
too moved

>  <fragmenstein_mode>  (564) 
expansion

>  <fragmenstein_error>  (564) 


$$$$
C835-P131
     RDKit          3D

 48 50  0  0  0  0  0  0  0  0999 V2000
   -1.1504    3.1874   23.5409 C   0  0  0  0  0  0  0  0  0  0  0  0
   -1.8706    3.9441   24.6387 C   0  0  0  0  0  0  0  0  0  0  0  0
   -3.3185    4.2267   24.2562 C   0  0  0  0  0  0  0  0  0  0  0  0
   -1.7708    3.2821   25.9742 C   0  0  0  0  0  0  0  0  0  0  0  0
   -1.3971    2.0709   26.3618 N   0  0  0  0  0  0  0  0  0  0  0  0
   -1.4455    2.1864   27.7384 C   0  0  0  0  0  0  0  0  0  0  0  0
   -1.0223    1.1897   28.7920 C   0  0  0  0  0  0  0  0  0  0  0  0
    0.1853    1.7245   29.4905 N   0  0  0  0  0  0  0  0  0  0  0  0
    1.3308    1.0127   28.9557 C   0  0  0  0  0  0  0  0  0  0  0  0
    0.8024   -0.3946   28.9364 C   0  0  0  0  0  0  0  0  0  0  0  0
   -0.6090   -0.2145   28.4021 C   0  0  0  0  0  0  0  0  0  0  0  0
   -1.7506   -1.3878   29.0883 S   0  0  0  0  0  0  0  0  0  0  0  0
   -2.1130   -1.0346   30.4445 O   0  0  0  0  0  0  0  0  0  0  0  0
   -2.7471   -1.5954   28.0733 O   0  0  0  0  0  0  0  0  0  0  0  0
   -0.9144   -2.8455   29.1567 N   0  0  0  0  0  0  0  0  0  0  0  0
   -0.6891   -3.4440   30.4968 C   0  0  0  0  0  0  0  0  0  0  0  0
    0.2902   -4.6007   30.3475 C   0  0  0  0  0  0  0  0  0  0  0  0
    0.0251   -5.7385   31.3066 C   0  0  0  0  0  0  0  0  0  0  0  0
    0.5430   -5.6730   32.4936 N   0  0  0  0  0  0  0  0  0  0  0  0
    0.4087   -6.8233   33.2356 C   0  0  0  0  0  0  0  0  0  0  0  0
    1.3187   -7.3082   33.8900 O   0  0  0  0  0  0  0  0  0  0  0  0
   -0.8566   -7.5740   33.1119 C   0  0  0  0  0  0  0  0  0  0  0  0
   -1.3081   -7.6240   31.8582 C   0  0  0  0  0  0  0  0  0  0  0  0
   -0.7546   -6.8116   30.9040 N   0  0  0  0  0  0  0  0  0  0  0  0
   -1.7748    3.4157   28.1630 N   0  0  0  0  0  0  0  0  0  0  0  0
   -2.0260    4.1224   27.0132 O   0  0  0  0  0  0  0  0  0  0  0  0
   -1.0984    3.7912   22.6289 H   0  0  0  0  0  0  0  0  0  0  0  0
   -1.6620    2.2588   23.2912 H   0  0  0  0  0  0  0  0  0  0  0  0
   -0.1233    2.9651   23.8425 H   0  0  0  0  0  0  0  0  0  0  0  0
   -1.3615    4.9148   24.7224 H   0  0  0  0  0  0  0  0  0  0  0  0
   -3.6816    5.0989   24.8026 H   0  0  0  0  0  0  0  0  0  0  0  0
   -3.4222    4.4511   23.1895 H   0  0  0  0  0  0  0  0  0  0  0  0
   -3.9802    3.3972   24.5099 H   0  0  0  0  0  0  0  0  0  0  0  0
   -1.8371    1.1746   29.5193 H   0  0  0  0  0  0  0  0  0  0  0  0
    0.2507    2.7355   29.3429 H   0  0  0  0  0  0  0  0  0  0  0  0
    1.5843    1.3639   27.9487 H   0  0  0  0  0  0  0  0  0  0  0  0
    2.2099    1.1162   29.5972 H   0  0  0  0  0  0  0  0  0  0  0  0
    0.8133   -0.8137   29.9499 H   0  0  0  0  0  0  0  0  0  0  0  0
    1.4006   -1.0518   28.2972 H   0  0  0  0  0  0  0  0  0  0  0  0
   -0.6134   -0.3490   27.3184 H   0  0  0  0  0  0  0  0  0  0  0  0
   -1.3784   -3.4562   28.4654 H   0  0  0  0  0  0  0  0  0  0  0  0
   -1.6432   -3.7768   30.9126 H   0  0  0  0  0  0  0  0  0  0  0  0
   -0.2570   -2.7018   31.1762 H   0  0  0  0  0  0  0  0  0  0  0  0
    0.2625   -5.0095   29.3342 H   0  0  0  0  0  0  0  0  0  0  0  0
    1.3142   -4.2393   30.5031 H   0  0  0  0  0  0  0  0  0  0  0  0
   -1.2153   -8.1598   33.9433 H   0  0  0  0  0  0  0  0  0  0  0  0
   -2.1454   -8.2490   31.5790 H   0  0  0  0  0  0  0  0  0  0  0  0
   -1.0557   -6.9021   29.9417 H   0  0  0  0  0  0  0  0  0  0  0  0
  1  2  1  0
  2  3  1  0
  2  4  1  0
  4  5  2  0
  5  6  1  0
  6  7  1  0
  7  8  1  0
  8  9  1  0
  9 10  1  0
 10 11  1  0
 11 12  1  0
 12 13  2  0
 12 14  2  0
 12 15  1  0
 15 16  1  0
 16 17  1  0
 17 18  1  0
 18 19  2  0
 19 20  1  0
 20 21  2  0
 20 22  1  0
 22 23  2  0
 23 24  1  0
  6 25  2  0
 25 26  1  0
 26  4  1  0
 11  7  1  0
 24 18  1  0
  1 27  1  0
  1 28  1  0
  1 29  1  0
  2 30  1  0
  3 31  1  0
  3 32  1  0
  3 33  1  0
  7 34  1  0
  8 35  1  0
  9 36  1  0
  9 37  1  0
 10 38  1  0
 10 39  1  0
 11 40  1  0
 15 41  1  0
 16 42  1  0
 16 43  1  0
 17 44  1  0
 17 45  1  0
 22 46  1  0
 23 47  1  0
 24 48  1  0
M  END
>  <Energy>  (565) 
-66.156956283562948

>  <compound_id>  (565) 
835

>  <target_id>  (565) 
1

>  <reference_id>  (565) 
131

>  <inspiration_ids>  (565) 
[70, 131]

>  <energy_score>  (565) 
-62.441573299510196

>  <distance_score>  (565) 
1.4063538144455847

>  <path>  (565) 
/opt/xchem-fragalysis-2/maxwin/BulkDock/SCRATCH/505733/C835-P131/C835-P131.minimised.mol

>  <scratch_subdir>  (565) 
/opt/xchem-fragalysis-2/maxwin/BulkDock/SCRATCH/505733/C835-P131

>  <fragmenstein_runtime>  (565) 
5.354560136795044

>  <fragmenstein_outcome>  (565) 
too moved

>  <fragmenstein_mode>  (565) 
expansion

>  <fragmenstein_error>  (565) 


$$$$
C838-P70
     RDKit          3D

 63 65  0  0  0  0  0  0  0  0999 V2000
   -1.2040   -7.9847   31.9296 C   0  0  0  0  0  0  0  0  0  0  0  0
   -0.8935   -7.1729   33.1710 C   0  0  0  0  0  0  0  0  0  0  0  0
    0.1175   -6.1991   32.9231 O   0  0  0  0  0  0  0  0  0  0  0  0
   -0.1979   -5.1631   32.1121 C   0  0  0  0  0  0  0  0  0  0  0  0
   -1.2834   -4.9095   31.6160 O   0  0  0  0  0  0  0  0  0  0  0  0
    1.0305   -4.3978   31.8336 C   0  0  0  0  0  0  0  0  0  0  0  0
    1.8926   -4.1546   32.8318 C   0  0  0  0  0  0  0  0  0  0  0  0
    3.2030   -3.5019   32.7172 C   0  0  0  0  0  0  0  0  0  0  0  0
    4.2280   -4.1112   33.4664 C   0  0  0  0  0  0  0  0  0  0  0  0
    5.5249   -3.5891   33.4692 C   0  0  0  0  0  0  0  0  0  0  0  0
    6.6192   -4.2377   34.2511 C   0  0  0  0  0  0  0  0  0  0  0  0
    6.7379   -5.6570   34.0194 N   0  0  0  0  0  0  0  0  0  0  0  0
    7.2494   -3.5076   34.9605 O   0  0  0  0  0  0  0  0  0  0  0  0
    5.8030   -2.4218   32.7633 C   0  0  0  0  0  0  0  0  0  0  0  0
    4.7927   -1.7981   32.0320 C   0  0  0  0  0  0  0  0  0  0  0  0
    3.4852   -2.3230   31.9970 C   0  0  0  0  0  0  0  0  0  0  0  0
    2.4473   -1.5513   31.2094 C   0  0  0  0  0  0  0  0  0  0  0  0
    2.6274   -1.6961   29.6836 C   0  0  0  0  0  0  0  0  0  0  0  0
    1.4465   -1.3474   28.8949 N   0  0  0  0  0  0  0  0  0  0  0  0
    0.8674   -0.0744   29.2126 C   0  0  0  0  0  0  0  0  0  0  0  0
   -0.4417   -0.2576   29.9895 C   0  0  0  0  0  0  0  0  0  0  0  0
   -1.5028    0.3410   29.0835 C   0  0  0  0  0  0  0  0  0  0  0  0
   -0.6997    1.3435   28.2798 C   0  0  0  0  0  0  0  0  0  0  0  0
   -1.3532    1.9309   27.0796 C   0  0  0  0  0  0  0  0  0  0  0  0
   -2.6355    1.7291   26.7519 N   0  0  0  0  0  0  0  0  0  0  0  0
   -2.8502    2.6297   25.7125 O   0  0  0  0  0  0  0  0  0  0  0  0
   -1.6643    3.2644   25.4910 C   0  0  0  0  0  0  0  0  0  0  0  0
   -1.5939    4.2713   24.3928 C   0  0  0  0  0  0  0  0  0  0  0  0
   -0.6501    3.7728   23.2989 C   0  0  0  0  0  0  0  0  0  0  0  0
   -2.9562    4.6122   23.7930 C   0  0  0  0  0  0  0  0  0  0  0  0
   -0.7025    2.8482   26.2842 N   0  0  0  0  0  0  0  0  0  0  0  0
    0.4888    0.5335   27.9498 N   0  0  0  0  0  0  0  0  0  0  0  0
   -1.7952   -8.8704   32.1785 H   0  0  0  0  0  0  0  0  0  0  0  0
   -1.7637   -7.3982   31.1991 H   0  0  0  0  0  0  0  0  0  0  0  0
   -0.2829   -8.2830   31.4270 H   0  0  0  0  0  0  0  0  0  0  0  0
   -1.7784   -6.6941   33.5843 H   0  0  0  0  0  0  0  0  0  0  0  0
   -0.5029   -7.8364   33.9487 H   0  0  0  0  0  0  0  0  0  0  0  0
    1.1613   -4.0767   30.8095 H   0  0  0  0  0  0  0  0  0  0  0  0
    1.6567   -4.5160   33.8334 H   0  0  0  0  0  0  0  0  0  0  0  0
    3.9998   -4.9856   34.0752 H   0  0  0  0  0  0  0  0  0  0  0  0
    6.0979   -5.9286   33.2503 H   0  0  0  0  0  0  0  0  0  0  0  0
    5.9466   -5.9703   33.4285 H   0  0  0  0  0  0  0  0  0  0  0  0
    6.8024   -1.9911   32.7892 H   0  0  0  0  0  0  0  0  0  0  0  0
    5.0293   -0.8794   31.4962 H   0  0  0  0  0  0  0  0  0  0  0  0
    1.4391   -1.8427   31.5147 H   0  0  0  0  0  0  0  0  0  0  0  0
    2.5238   -0.4935   31.4949 H   0  0  0  0  0  0  0  0  0  0  0  0
    3.4786   -1.0858   29.3564 H   0  0  0  0  0  0  0  0  0  0  0  0
    2.8830   -2.7345   29.4406 H   0  0  0  0  0  0  0  0  0  0  0  0
    1.6592   -1.3586   27.8959 H   0  0  0  0  0  0  0  0  0  0  0  0
    1.5487    0.6030   29.7416 H   0  0  0  0  0  0  0  0  0  0  0  0
   -0.3910    0.2975   30.9342 H   0  0  0  0  0  0  0  0  0  0  0  0
   -0.6823   -1.2989   30.2324 H   0  0  0  0  0  0  0  0  0  0  0  0
   -2.3131    0.7925   29.6567 H   0  0  0  0  0  0  0  0  0  0  0  0
   -1.9364   -0.4396   28.4442 H   0  0  0  0  0  0  0  0  0  0  0  0
   -0.3939    2.1793   28.9254 H   0  0  0  0  0  0  0  0  0  0  0  0
   -1.1734    5.1920   24.8163 H   0  0  0  0  0  0  0  0  0  0  0  0
    0.3579    3.6051   23.6948 H   0  0  0  0  0  0  0  0  0  0  0  0
   -0.5707    4.5024   22.4861 H   0  0  0  0  0  0  0  0  0  0  0  0
   -0.9991    2.8251   22.8753 H   0  0  0  0  0  0  0  0  0  0  0  0
   -2.8623    5.4153   23.0540 H   0  0  0  0  0  0  0  0  0  0  0  0
   -3.4043    3.7503   23.2886 H   0  0  0  0  0  0  0  0  0  0  0  0
   -3.6526    4.9504   24.5648 H   0  0  0  0  0  0  0  0  0  0  0  0
    1.2273    1.1404   27.6008 H   0  0  0  0  0  0  0  0  0  0  0  0
  1  2  1  0
  2  3  1  0
  3  4  1  0
  4  5  2  0
  4  6  1  0
  6  7  2  3
  7  8  1  0
  8  9  2  0
  9 10  1  0
 10 11  1  0
 11 12  1  0
 11 13  2  0
 10 14  2  0
 14 15  1  0
 15 16  2  0
 16 17  1  0
 17 18  1  0
 18 19  1  0
 19 20  1  0
 20 21  1  0
 21 22  1  0
 22 23  1  0
 23 24  1  0
 24 25  2  0
 25 26  1  0
 26 27  1  0
 27 28  1  0
 28 29  1  0
 28 30  1  0
 27 31  2  0
 23 32  1  0
 16  8  1  0
 32 20  1  0
 31 24  1  0
  1 33  1  0
  1 34  1  0
  1 35  1  0
  2 36  1  0
  2 37  1  0
  6 38  1  0
  7 39  1  0
  9 40  1  0
 12 41  1  0
 12 42  1  0
 14 43  1  0
 15 44  1  0
 17 45  1  0
 17 46  1  0
 18 47  1  0
 18 48  1  0
 19 49  1  0
 20 50  1  0
 21 51  1  0
 21 52  1  0
 22 53  1  0
 22 54  1  0
 23 55  1  0
 28 56  1  0
 29 57  1  0
 29 58  1  0
 29 59  1  0
 30 60  1  0
 30 61  1  0
 30 62  1  0
 32 63  1  0
M  END
>  <Energy>  (566) 
181.18992775404612

>  <compound_id>  (566) 
838

>  <target_id>  (566) 
1

>  <reference_id>  (566) 
70

>  <inspiration_ids>  (566) 
[70, 132]

>  <energy_score>  (566) 
115.77761947418412

>  <distance_score>  (566) 
1.6054922955691646

>  <path>  (566) 
/opt/xchem-fragalysis-2/maxwin/BulkDock/SCRATCH/505733/C838-P70/C838-P70.minimised.mol

>  <scratch_subdir>  (566) 
/opt/xchem-fragalysis-2/maxwin/BulkDock/SCRATCH/505733/C838-P70

>  <fragmenstein_runtime>  (566) 
19.74507761001587

>  <fragmenstein_outcome>  (566) 
too moved

>  <fragmenstein_mode>  (566) 
expansion

>  <fragmenstein_error>  (566) 


$$$$
C838-P132
     RDKit          3D

 63 65  0  0  0  0  0  0  0  0999 V2000
   -1.2871   -7.9522   31.9517 C   0  0  0  0  0  0  0  0  0  0  0  0
   -0.8110   -7.1178   33.1223 C   0  0  0  0  0  0  0  0  0  0  0  0
    0.3207   -6.3261   32.7434 O   0  0  0  0  0  0  0  0  0  0  0  0
    0.0330   -5.1965   32.0468 C   0  0  0  0  0  0  0  0  0  0  0  0
   -1.0637   -4.8328   31.6560 O   0  0  0  0  0  0  0  0  0  0  0  0
    1.2789   -4.4649   31.7580 C   0  0  0  0  0  0  0  0  0  0  0  0
    2.1835   -4.2993   32.7337 C   0  0  0  0  0  0  0  0  0  0  0  0
    3.4662   -3.5846   32.6460 C   0  0  0  0  0  0  0  0  0  0  0  0
    4.5359   -4.2150   33.3075 C   0  0  0  0  0  0  0  0  0  0  0  0
    5.8007   -3.6231   33.3732 C   0  0  0  0  0  0  0  0  0  0  0  0
    6.8906   -4.3589   34.0790 C   0  0  0  0  0  0  0  0  0  0  0  0
    8.1168   -4.4476   33.3258 N   0  0  0  0  0  0  0  0  0  0  0  0
    6.6079   -4.7825   35.1624 O   0  0  0  0  0  0  0  0  0  0  0  0
    6.0068   -2.3603   32.8235 C   0  0  0  0  0  0  0  0  0  0  0  0
    4.9568   -1.7228   32.1638 C   0  0  0  0  0  0  0  0  0  0  0  0
    3.6819   -2.3201   32.0581 C   0  0  0  0  0  0  0  0  0  0  0  0
    2.6134   -1.5269   31.3326 C   0  0  0  0  0  0  0  0  0  0  0  0
    2.8344   -1.5259   29.8050 C   0  0  0  0  0  0  0  0  0  0  0  0
    1.6798   -1.0968   29.0222 N   0  0  0  0  0  0  0  0  0  0  0  0
    1.1531    0.1900   29.3883 C   0  0  0  0  0  0  0  0  0  0  0  0
   -0.1418    0.0259   30.1873 C   0  0  0  0  0  0  0  0  0  0  0  0
   -1.2230    0.5036   29.2395 C   0  0  0  0  0  0  0  0  0  0  0  0
   -0.4807    1.5407   28.4214 C   0  0  0  0  0  0  0  0  0  0  0  0
   -1.1592    2.0486   27.1955 C   0  0  0  0  0  0  0  0  0  0  0  0
   -2.4278    1.7646   26.8777 N   0  0  0  0  0  0  0  0  0  0  0  0
   -2.6847    2.5820   25.7833 O   0  0  0  0  0  0  0  0  0  0  0  0
   -1.5416    3.2839   25.5422 C   0  0  0  0  0  0  0  0  0  0  0  0
   -1.5342    4.2542   24.4084 C   0  0  0  0  0  0  0  0  0  0  0  0
   -0.5430    3.7985   23.3397 C   0  0  0  0  0  0  0  0  0  0  0  0
   -2.9077    4.4675   23.7774 C   0  0  0  0  0  0  0  0  0  0  0  0
   -0.5635    2.9774   26.3678 N   0  0  0  0  0  0  0  0  0  0  0  0
    0.7798    0.8220   28.1347 N   0  0  0  0  0  0  0  0  0  0  0  0
   -2.1052   -8.6051   32.2555 H   0  0  0  0  0  0  0  0  0  0  0  0
   -1.6311   -7.3236   31.1277 H   0  0  0  0  0  0  0  0  0  0  0  0
   -0.4763   -8.5606   31.5479 H   0  0  0  0  0  0  0  0  0  0  0  0
   -1.6060   -6.4818   33.5212 H   0  0  0  0  0  0  0  0  0  0  0  0
   -0.4865   -7.7716   33.9374 H   0  0  0  0  0  0  0  0  0  0  0  0
    1.3565   -4.0372   30.7676 H   0  0  0  0  0  0  0  0  0  0  0  0
    1.9901   -4.7366   33.7149 H   0  0  0  0  0  0  0  0  0  0  0  0
    4.3914   -5.1806   33.7929 H   0  0  0  0  0  0  0  0  0  0  0  0
    7.9584   -4.0645   32.3758 H   0  0  0  0  0  0  0  0  0  0  0  0
    8.0339   -3.8626   32.4753 H   0  0  0  0  0  0  0  0  0  0  0  0
    6.9579   -1.8451   32.9336 H   0  0  0  0  0  0  0  0  0  0  0  0
    5.1275   -0.7296   31.7478 H   0  0  0  0  0  0  0  0  0  0  0  0
    1.6171   -1.8957   31.5860 H   0  0  0  0  0  0  0  0  0  0  0  0
    2.6319   -0.4974   31.7146 H   0  0  0  0  0  0  0  0  0  0  0  0
    3.6999   -0.8989   29.5561 H   0  0  0  0  0  0  0  0  0  0  0  0
    3.0880   -2.5408   29.4752 H   0  0  0  0  0  0  0  0  0  0  0  0
    1.8999   -1.0528   28.0274 H   0  0  0  0  0  0  0  0  0  0  0  0
    1.8719    0.8257   29.9188 H   0  0  0  0  0  0  0  0  0  0  0  0
   -0.1096    0.6697   31.0752 H   0  0  0  0  0  0  0  0  0  0  0  0
   -0.3428   -0.9952   30.5290 H   0  0  0  0  0  0  0  0  0  0  0  0
   -2.0732    0.9117   29.7856 H   0  0  0  0  0  0  0  0  0  0  0  0
   -1.5802   -0.3289   28.6190 H   0  0  0  0  0  0  0  0  0  0  0  0
   -0.2512    2.4126   29.0505 H   0  0  0  0  0  0  0  0  0  0  0  0
   -1.1932    5.2184   24.8060 H   0  0  0  0  0  0  0  0  0  0  0  0
    0.4655    3.6914   23.7544 H   0  0  0  0  0  0  0  0  0  0  0  0
   -0.4908    4.5226   22.5197 H   0  0  0  0  0  0  0  0  0  0  0  0
   -0.8351    2.8305   22.9197 H   0  0  0  0  0  0  0  0  0  0  0  0
   -2.8699    5.2686   23.0314 H   0  0  0  0  0  0  0  0  0  0  0  0
   -3.2660    3.5649   23.2733 H   0  0  0  0  0  0  0  0  0  0  0  0
   -3.6472    4.7468   24.5302 H   0  0  0  0  0  0  0  0  0  0  0  0
    1.4797    1.4942   27.8302 H   0  0  0  0  0  0  0  0  0  0  0  0
  1  2  1  0
  2  3  1  0
  3  4  1  0
  4  5  2  0
  4  6  1  0
  6  7  2  3
  7  8  1  0
  8  9  2  0
  9 10  1  0
 10 11  1  0
 11 12  1  0
 11 13  2  0
 10 14  2  0
 14 15  1  0
 15 16  2  0
 16 17  1  0
 17 18  1  0
 18 19  1  0
 19 20  1  0
 20 21  1  0
 21 22  1  0
 22 23  1  0
 23 24  1  0
 24 25  2  0
 25 26  1  0
 26 27  1  0
 27 28  1  0
 28 29  1  0
 28 30  1  0
 27 31  2  0
 23 32  1  0
 16  8  1  0
 32 20  1  0
 31 24  1  0
  1 33  1  0
  1 34  1  0
  1 35  1  0
  2 36  1  0
  2 37  1  0
  6 38  1  0
  7 39  1  0
  9 40  1  0
 12 41  1  0
 12 42  1  0
 14 43  1  0
 15 44  1  0
 17 45  1  0
 17 46  1  0
 18 47  1  0
 18 48  1  0
 19 49  1  0
 20 50  1  0
 21 51  1  0
 21 52  1  0
 22 53  1  0
 22 54  1  0
 23 55  1  0
 28 56  1  0
 29 57  1  0
 29 58  1  0
 29 59  1  0
 30 60  1  0
 30 61  1  0
 30 62  1  0
 32 63  1  0
M  END
>  <Energy>  (567) 
179.69164724254753

>  <compound_id>  (567) 
838

>  <target_id>  (567) 
1

>  <reference_id>  (567) 
132

>  <inspiration_ids>  (567) 
[70, 132]

>  <energy_score>  (567) 
114.27933896268712

>  <distance_score>  (567) 
1.7683212975422773

>  <path>  (567) 
/opt/xchem-fragalysis-2/maxwin/BulkDock/SCRATCH/505733/C838-P132/C838-P132.minimised.mol

>  <scratch_subdir>  (567) 
/opt/xchem-fragalysis-2/maxwin/BulkDock/SCRATCH/505733/C838-P132

>  <fragmenstein_runtime>  (567) 
15.670206546783447

>  <fragmenstein_outcome>  (567) 
too moved

>  <fragmenstein_mode>  (567) 
expansion

>  <fragmenstein_error>  (567) 


$$$$
C839-P70
     RDKit          3D

 56 58  0  0  0  0  0  0  0  0999 V2000
    1.7747   -5.1615   30.7555 C   0  0  0  0  0  0  0  0  0  0  0  0
    0.7518   -5.9624   31.4776 C   0  0  0  0  0  0  0  0  0  0  0  0
   -0.0780   -6.8510   30.8528 C   0  0  0  0  0  0  0  0  0  0  0  0
   -0.9931   -7.4470   31.6798 C   0  0  0  0  0  0  0  0  0  0  0  0
   -1.8335   -8.3913   31.1821 O   0  0  0  0  0  0  0  0  0  0  0  0
   -1.2075   -7.1732   32.9757 N   0  0  0  0  0  0  0  0  0  0  0  0
   -0.3839   -6.2390   33.4618 C   0  0  0  0  0  0  0  0  0  0  0  0
   -0.6224   -5.6148   34.7980 C   0  0  0  0  0  0  0  0  0  0  0  0
   -0.3832   -4.0713   34.7865 C   0  0  0  0  0  0  0  0  0  0  0  0
   -1.3565   -3.2107   34.0009 N   0  0  0  0  0  0  0  0  0  0  0  0
   -1.0151   -2.9928   32.3583 S   0  0  0  0  0  0  0  0  0  0  0  0
   -1.7594   -4.0283   31.6672 O   0  0  0  0  0  0  0  0  0  0  0  0
    0.4109   -2.8089   32.1990 O   0  0  0  0  0  0  0  0  0  0  0  0
   -1.7807   -1.3846   31.8516 C   0  0  0  0  0  0  0  0  0  0  0  0
   -1.8252   -1.1978   30.3765 N   0  0  0  0  0  0  0  0  0  0  0  0
   -1.4827    0.1345   29.8289 C   0  0  0  0  0  0  0  0  0  0  0  0
   -0.0362    0.5431   30.1476 C   0  0  0  0  0  0  0  0  0  0  0  0
    0.7871    0.1397   28.9292 C   0  0  0  0  0  0  0  0  0  0  0  0
   -0.1475   -0.5169   28.0261 N   0  0  0  0  0  0  0  0  0  0  0  0
   -1.4772    0.0865   28.2686 C   0  0  0  0  0  0  0  0  0  0  0  0
   -1.6335    1.4026   27.5254 C   0  0  0  0  0  0  0  0  0  0  0  0
   -1.4697    2.6104   28.0829 N   0  0  0  0  0  0  0  0  0  0  0  0
   -1.6608    3.5006   27.0217 O   0  0  0  0  0  0  0  0  0  0  0  0
   -1.8934    2.7411   25.9126 C   0  0  0  0  0  0  0  0  0  0  0  0
   -2.0214    3.4301   24.5904 C   0  0  0  0  0  0  0  0  0  0  0  0
   -0.6579    3.8134   24.0371 C   0  0  0  0  0  0  0  0  0  0  0  0
   -2.9740    4.6079   24.6154 C   0  0  0  0  0  0  0  0  0  0  0  0
   -1.8820    1.4490   26.1643 N   0  0  0  0  0  0  0  0  0  0  0  0
    0.6347   -5.7049   32.7868 N   0  0  0  0  0  0  0  0  0  0  0  0
    2.4837   -5.8130   30.2442 H   0  0  0  0  0  0  0  0  0  0  0  0
    1.2971   -4.5105   30.0166 H   0  0  0  0  0  0  0  0  0  0  0  0
    2.3523   -4.5353   31.4433 H   0  0  0  0  0  0  0  0  0  0  0  0
   -0.0158   -7.0791   29.8006 H   0  0  0  0  0  0  0  0  0  0  0  0
   -2.3904   -8.5385   31.9681 H   0  0  0  0  0  0  0  0  0  0  0  0
    0.1105   -6.0543   35.4844 H   0  0  0  0  0  0  0  0  0  0  0  0
   -1.5983   -5.8801   35.2021 H   0  0  0  0  0  0  0  0  0  0  0  0
   -0.4830   -3.7180   35.8184 H   0  0  0  0  0  0  0  0  0  0  0  0
    0.6463   -3.8214   34.5070 H   0  0  0  0  0  0  0  0  0  0  0  0
   -2.2911   -3.6495   34.0813 H   0  0  0  0  0  0  0  0  0  0  0  0
   -1.2210   -0.6028   32.3712 H   0  0  0  0  0  0  0  0  0  0  0  0
   -2.8076   -1.4077   32.2282 H   0  0  0  0  0  0  0  0  0  0  0  0
   -1.1888   -1.8752   29.9324 H   0  0  0  0  0  0  0  0  0  0  0  0
   -2.2117    0.8437   30.2066 H   0  0  0  0  0  0  0  0  0  0  0  0
    0.0253    1.6276   30.2938 H   0  0  0  0  0  0  0  0  0  0  0  0
    0.3639    0.0833   31.0558 H   0  0  0  0  0  0  0  0  0  0  0  0
    1.2340    1.0230   28.4590 H   0  0  0  0  0  0  0  0  0  0  0  0
    1.5979   -0.5427   29.2015 H   0  0  0  0  0  0  0  0  0  0  0  0
    0.1272   -0.4254   27.0515 H   0  0  0  0  0  0  0  0  0  0  0  0
   -2.2527   -0.5932   27.8963 H   0  0  0  0  0  0  0  0  0  0  0  0
   -2.4472    2.7299   23.8736 H   0  0  0  0  0  0  0  0  0  0  0  0
   -0.7458    4.2214   23.0245 H   0  0  0  0  0  0  0  0  0  0  0  0
    0.0097    2.9480   23.9949 H   0  0  0  0  0  0  0  0  0  0  0  0
   -0.1728    4.5703   24.6641 H   0  0  0  0  0  0  0  0  0  0  0  0
   -2.5954    5.4088   25.2571 H   0  0  0  0  0  0  0  0  0  0  0  0
   -3.9514    4.2919   24.9856 H   0  0  0  0  0  0  0  0  0  0  0  0
   -3.1135    5.0227   23.6113 H   0  0  0  0  0  0  0  0  0  0  0  0
  1  2  1  0
  2  3  2  0
  3  4  1  0
  4  5  1  0
  4  6  2  0
  6  7  1  0
  7  8  1  0
  8  9  1  0
  9 10  1  0
 10 11  1  0
 11 12  2  0
 11 13  2  0
 11 14  1  0
 14 15  1  0
 15 16  1  0
 16 17  1  0
 17 18  1  0
 18 19  1  0
 19 20  1  0
 20 21  1  0
 21 22  2  0
 22 23  1  0
 23 24  1  0
 24 25  1  0
 25 26  1  0
 25 27  1  0
 24 28  2  0
  7 29  2  0
 29  2  1  0
 20 16  1  0
 28 21  1  0
  1 30  1  0
  1 31  1  0
  1 32  1  0
  3 33  1  0
  5 34  1  0
  8 35  1  0
  8 36  1  0
  9 37  1  0
  9 38  1  0
 10 39  1  0
 14 40  1  0
 14 41  1  0
 15 42  1  0
 16 43  1  0
 17 44  1  0
 17 45  1  0
 18 46  1  0
 18 47  1  0
 19 48  1  0
 20 49  1  0
 25 50  1  0
 26 51  1  0
 26 52  1  0
 26 53  1  0
 27 54  1  0
 27 55  1  0
 27 56  1  0
M  END
>  <Energy>  (568) 
58.455671238681816

>  <compound_id>  (568) 
839

>  <target_id>  (568) 
1

>  <reference_id>  (568) 
70

>  <inspiration_ids>  (568) 
[70, 133]

>  <energy_score>  (568) 
-65.28940209237913

>  <distance_score>  (568) 
1.7199591071154867

>  <path>  (568) 
/opt/xchem-fragalysis-2/maxwin/BulkDock/SCRATCH/505733/C839-P70/C839-P70.minimised.mol

>  <scratch_subdir>  (568) 
/opt/xchem-fragalysis-2/maxwin/BulkDock/SCRATCH/505733/C839-P70

>  <fragmenstein_runtime>  (568) 
7.819495677947998

>  <fragmenstein_outcome>  (568) 
too moved

>  <fragmenstein_mode>  (568) 
expansion

>  <fragmenstein_error>  (568) 


$$$$
C839-P133
     RDKit          3D

 56 58  0  0  0  0  0  0  0  0999 V2000
    1.5831   -4.9756   30.7184 C   0  0  0  0  0  0  0  0  0  0  0  0
    0.6484   -5.8423   31.4865 C   0  0  0  0  0  0  0  0  0  0  0  0
   -0.0416   -6.8763   30.9142 C   0  0  0  0  0  0  0  0  0  0  0  0
   -0.9347   -7.5025   31.7417 C   0  0  0  0  0  0  0  0  0  0  0  0
   -1.6830   -8.5317   31.2809 O   0  0  0  0  0  0  0  0  0  0  0  0
   -1.2020   -7.1708   33.0037 N   0  0  0  0  0  0  0  0  0  0  0  0
   -0.5020   -6.1350   33.4660 C   0  0  0  0  0  0  0  0  0  0  0  0
   -0.8512   -5.5470   34.7938 C   0  0  0  0  0  0  0  0  0  0  0  0
   -0.7446   -3.9934   34.8229 C   0  0  0  0  0  0  0  0  0  0  0  0
   -1.1067   -3.3003   33.5250 N   0  0  0  0  0  0  0  0  0  0  0  0
   -1.2701   -1.6205   33.6276 S   0  0  0  0  0  0  0  0  0  0  0  0
    0.0215   -1.1048   34.0401 O   0  0  0  0  0  0  0  0  0  0  0  0
   -2.4578   -1.3191   34.3981 O   0  0  0  0  0  0  0  0  0  0  0  0
   -1.5530   -1.0677   31.8638 C   0  0  0  0  0  0  0  0  0  0  0  0
   -0.3300   -0.9178   31.0367 N   0  0  0  0  0  0  0  0  0  0  0  0
   -0.3889    0.2310   30.0689 C   0  0  0  0  0  0  0  0  0  0  0  0
    1.0323    0.4105   29.5227 C   0  0  0  0  0  0  0  0  0  0  0  0
    1.0700   -0.4235   28.2472 C   0  0  0  0  0  0  0  0  0  0  0  0
   -0.2886   -0.9134   28.0459 N   0  0  0  0  0  0  0  0  0  0  0  0
   -1.1846    0.0273   28.7458 C   0  0  0  0  0  0  0  0  0  0  0  0
   -1.4218    1.2674   27.8736 C   0  0  0  0  0  0  0  0  0  0  0  0
   -1.2972    2.5316   28.3058 N   0  0  0  0  0  0  0  0  0  0  0  0
   -1.5478    3.3074   27.1640 O   0  0  0  0  0  0  0  0  0  0  0  0
   -1.7647    2.4329   26.1396 C   0  0  0  0  0  0  0  0  0  0  0  0
   -1.9053    2.9689   24.7476 C   0  0  0  0  0  0  0  0  0  0  0  0
   -0.6371    3.6508   24.2558 C   0  0  0  0  0  0  0  0  0  0  0  0
   -3.1151    3.8591   24.5483 C   0  0  0  0  0  0  0  0  0  0  0  0
   -1.7099    1.1742   26.5227 N   0  0  0  0  0  0  0  0  0  0  0  0
    0.4481   -5.4947   32.7647 N   0  0  0  0  0  0  0  0  0  0  0  0
    1.0174   -4.2762   30.0947 H   0  0  0  0  0  0  0  0  0  0  0  0
    2.2259   -4.3965   31.3894 H   0  0  0  0  0  0  0  0  0  0  0  0
    2.2301   -5.5781   30.0735 H   0  0  0  0  0  0  0  0  0  0  0  0
    0.0913   -7.1858   29.8930 H   0  0  0  0  0  0  0  0  0  0  0  0
   -2.2228   -8.7418   32.0727 H   0  0  0  0  0  0  0  0  0  0  0  0
   -0.1675   -5.9558   35.5479 H   0  0  0  0  0  0  0  0  0  0  0  0
   -1.8443   -5.8792   35.0960 H   0  0  0  0  0  0  0  0  0  0  0  0
   -1.3639   -3.6113   35.6416 H   0  0  0  0  0  0  0  0  0  0  0  0
    0.2979   -3.7293   35.0429 H   0  0  0  0  0  0  0  0  0  0  0  0
   -0.4105   -3.5599   32.8142 H   0  0  0  0  0  0  0  0  0  0  0  0
   -2.2563   -1.7747   31.4147 H   0  0  0  0  0  0  0  0  0  0  0  0
   -2.0574   -0.1022   31.9828 H   0  0  0  0  0  0  0  0  0  0  0  0
    0.4387   -0.7329   31.6908 H   0  0  0  0  0  0  0  0  0  0  0  0
   -0.6640    1.1275   30.6192 H   0  0  0  0  0  0  0  0  0  0  0  0
    1.2093    1.4661   29.2810 H   0  0  0  0  0  0  0  0  0  0  0  0
    1.8190    0.1158   30.2265 H   0  0  0  0  0  0  0  0  0  0  0  0
    1.4039    0.1901   27.4038 H   0  0  0  0  0  0  0  0  0  0  0  0
    1.7599   -1.2675   28.3433 H   0  0  0  0  0  0  0  0  0  0  0  0
   -0.5503   -0.9698   27.0559 H   0  0  0  0  0  0  0  0  0  0  0  0
   -2.1382   -0.4602   28.9455 H   0  0  0  0  0  0  0  0  0  0  0  0
   -2.0466    2.1059   24.0977 H   0  0  0  0  0  0  0  0  0  0  0  0
   -0.4324    4.5664   24.8224 H   0  0  0  0  0  0  0  0  0  0  0  0
   -0.7233    3.9214   23.1979 H   0  0  0  0  0  0  0  0  0  0  0  0
    0.2361    3.0000   24.3665 H   0  0  0  0  0  0  0  0  0  0  0  0
   -2.9296    4.8553   24.9499 H   0  0  0  0  0  0  0  0  0  0  0  0
   -3.9990    3.4327   25.0304 H   0  0  0  0  0  0  0  0  0  0  0  0
   -3.3347    3.9808   23.4818 H   0  0  0  0  0  0  0  0  0  0  0  0
  1  2  1  0
  2  3  2  0
  3  4  1  0
  4  5  1  0
  4  6  2  0
  6  7  1  0
  7  8  1  0
  8  9  1  0
  9 10  1  0
 10 11  1  0
 11 12  2  0
 11 13  2  0
 11 14  1  0
 14 15  1  0
 15 16  1  0
 16 17  1  0
 17 18  1  0
 18 19  1  0
 19 20  1  0
 20 21  1  0
 21 22  2  0
 22 23  1  0
 23 24  1  0
 24 25  1  0
 25 26  1  0
 25 27  1  0
 24 28  2  0
  7 29  2  0
 29  2  1  0
 20 16  1  0
 28 21  1  0
  1 30  1  0
  1 31  1  0
  1 32  1  0
  3 33  1  0
  5 34  1  0
  8 35  1  0
  8 36  1  0
  9 37  1  0
  9 38  1  0
 10 39  1  0
 14 40  1  0
 14 41  1  0
 15 42  1  0
 16 43  1  0
 17 44  1  0
 17 45  1  0
 18 46  1  0
 18 47  1  0
 19 48  1  0
 20 49  1  0
 25 50  1  0
 26 51  1  0
 26 52  1  0
 26 53  1  0
 27 54  1  0
 27 55  1  0
 27 56  1  0
M  END
>  <Energy>  (569) 
50.314393177481129

>  <compound_id>  (569) 
839

>  <target_id>  (569) 
1

>  <reference_id>  (569) 
133

>  <inspiration_ids>  (569) 
[70, 133]

>  <energy_score>  (569) 
-73.43068015358017

>  <distance_score>  (569) 
1.7754030806287187

>  <path>  (569) 
/opt/xchem-fragalysis-2/maxwin/BulkDock/SCRATCH/505733/C839-P133/C839-P133.minimised.mol

>  <scratch_subdir>  (569) 
/opt/xchem-fragalysis-2/maxwin/BulkDock/SCRATCH/505733/C839-P133

>  <fragmenstein_runtime>  (569) 
8.04626989364624

>  <fragmenstein_outcome>  (569) 
too moved

>  <fragmenstein_mode>  (569) 
expansion

>  <fragmenstein_error>  (569) 


$$$$
C841-P70
     RDKit          3D

 40 42  0  0  0  0  0  0  0  0999 V2000
    3.1486   -1.8052   26.9694 C   0  0  0  0  0  0  0  0  0  0  0  0
    2.2658   -1.2947   28.0603 C   0  0  0  0  0  0  0  0  0  0  0  0
    0.9749   -1.4073   28.0350 N   0  0  0  0  0  0  0  0  0  0  0  0
    0.4443   -0.8232   29.3037 C   0  0  0  0  0  0  0  0  0  0  0  0
   -0.4782    0.3459   28.9661 C   0  0  0  0  0  0  0  0  0  0  0  0
   -1.8422    0.2530   30.1488 S   0  0  0  0  0  0  0  0  0  0  0  0
   -1.2033   -1.1482   31.0550 C   0  0  0  0  0  0  0  0  0  0  0  0
   -0.3743   -1.8846   30.0193 C   0  0  0  0  0  0  0  0  0  0  0  0
    0.3966   -3.0076   30.7097 C   0  0  0  0  0  0  0  0  0  0  0  0
    1.5533   -3.0811   30.8267 O   0  0  0  0  0  0  0  0  0  0  0  0
   -0.7227   -3.9783   31.1665 N   0  0  0  0  0  0  0  0  0  0  0  0
   -0.6518   -5.1759   31.9345 C   0  0  0  0  0  0  0  0  0  0  0  0
   -0.2974   -6.3821   31.0988 C   0  0  0  0  0  0  0  0  0  0  0  0
   -0.8354   -7.6064   31.8208 C   0  0  0  0  0  0  0  0  0  0  0  0
   -0.5898   -7.6104   33.3179 C   0  0  0  0  0  0  0  0  0  0  0  0
   -0.8613   -8.6044   33.9908 O   0  0  0  0  0  0  0  0  0  0  0  0
   -0.1475   -6.4593   33.9108 N   0  0  0  0  0  0  0  0  0  0  0  0
    0.1856   -5.2289   33.2006 C   0  0  0  0  0  0  0  0  0  0  0  0
    1.6618   -0.3209   30.0495 C   0  0  0  0  0  0  0  0  0  0  0  0
    1.6616    0.2323   31.1402 O   0  0  0  0  0  0  0  0  0  0  0  0
    2.8664   -0.5762   29.2240 C   0  0  0  0  0  0  0  0  0  0  0  0
    3.1713   -1.0836   26.1500 H   0  0  0  0  0  0  0  0  0  0  0  0
    2.7736   -2.7646   26.6123 H   0  0  0  0  0  0  0  0  0  0  0  0
    4.1650   -1.9486   27.3457 H   0  0  0  0  0  0  0  0  0  0  0  0
    0.0133    1.3210   29.0421 H   0  0  0  0  0  0  0  0  0  0  0  0
   -0.8988    0.2584   27.9585 H   0  0  0  0  0  0  0  0  0  0  0  0
   -0.6116   -0.8125   31.9127 H   0  0  0  0  0  0  0  0  0  0  0  0
   -2.0436   -1.7295   31.4438 H   0  0  0  0  0  0  0  0  0  0  0  0
   -1.0327   -2.3643   29.2763 H   0  0  0  0  0  0  0  0  0  0  0  0
   -1.6165   -3.6461   30.8301 H   0  0  0  0  0  0  0  0  0  0  0  0
   -1.6789   -5.2894   32.2687 H   0  0  0  0  0  0  0  0  0  0  0  0
   -0.7107   -6.3397   30.0878 H   0  0  0  0  0  0  0  0  0  0  0  0
    0.7904   -6.4551   30.9736 H   0  0  0  0  0  0  0  0  0  0  0  0
   -1.9167   -7.6836   31.6716 H   0  0  0  0  0  0  0  0  0  0  0  0
   -0.3858   -8.4903   31.3813 H   0  0  0  0  0  0  0  0  0  0  0  0
    0.0288   -6.5167   34.9060 H   0  0  0  0  0  0  0  0  0  0  0  0
    1.2611   -5.2268   32.9957 H   0  0  0  0  0  0  0  0  0  0  0  0
   -0.0405   -4.3899   33.8662 H   0  0  0  0  0  0  0  0  0  0  0  0
    3.3221    0.3593   28.8955 H   0  0  0  0  0  0  0  0  0  0  0  0
    3.5734   -1.2208   29.7484 H   0  0  0  0  0  0  0  0  0  0  0  0
  1  2  1  0
  2  3  2  0
  3  4  1  0
  4  5  1  0
  5  6  1  0
  6  7  1  0
  7  8  1  0
  8  9  1  0
  9 10  2  0
  9 11  1  0
 11 12  1  0
 12 13  1  0
 13 14  1  0
 14 15  1  0
 15 16  2  0
 15 17  1  0
 17 18  1  0
  4 19  1  0
 19 20  2  0
 19 21  1  0
 21  2  1  0
  8  4  1  0
 18 12  1  0
  1 22  1  0
  1 23  1  0
  1 24  1  0
  5 25  1  0
  5 26  1  0
  7 27  1  0
  7 28  1  0
  8 29  1  0
 11 30  1  0
 12 31  1  0
 13 32  1  0
 13 33  1  0
 14 34  1  0
 14 35  1  0
 17 36  1  0
 18 37  1  0
 18 38  1  0
 21 39  1  0
 21 40  1  0
M  END
>  <Energy>  (570) 
29.082459170601986

>  <compound_id>  (570) 
841

>  <target_id>  (570) 
1

>  <reference_id>  (570) 
70

>  <inspiration_ids>  (570) 
[70, 135]

>  <energy_score>  (570) 
-16.814532074817407

>  <distance_score>  (570) 
2.4740895697513747

>  <path>  (570) 
/opt/xchem-fragalysis-2/maxwin/BulkDock/SCRATCH/505733/C841-P70/C841-P70.minimised.mol

>  <scratch_subdir>  (570) 
/opt/xchem-fragalysis-2/maxwin/BulkDock/SCRATCH/505733/C841-P70

>  <fragmenstein_runtime>  (570) 
5.590520143508911

>  <fragmenstein_outcome>  (570) 
too moved

>  <fragmenstein_mode>  (570) 
expansion

>  <fragmenstein_error>  (570) 


$$$$
C841-P135
     RDKit          3D

 40 42  0  0  0  0  0  0  0  0999 V2000
   -1.5826   -1.4095   28.0728 C   0  0  0  0  0  0  0  0  0  0  0  0
   -0.4210   -1.0418   28.9053 C   0  0  0  0  0  0  0  0  0  0  0  0
   -0.5325   -0.9351   30.1964 N   0  0  0  0  0  0  0  0  0  0  0  0
    0.7669   -0.3763   30.6875 C   0  0  0  0  0  0  0  0  0  0  0  0
    0.5663    1.1111   30.9837 C   0  0  0  0  0  0  0  0  0  0  0  0
   -0.2892    1.1228   32.5793 S   0  0  0  0  0  0  0  0  0  0  0  0
    0.2224   -0.5514   33.0492 C   0  0  0  0  0  0  0  0  0  0  0  0
    1.2200   -1.0102   31.9888 C   0  0  0  0  0  0  0  0  0  0  0  0
    1.3707   -2.5341   32.0454 C   0  0  0  0  0  0  0  0  0  0  0  0
    2.3755   -3.0336   32.3616 O   0  0  0  0  0  0  0  0  0  0  0  0
   -0.0036   -3.1635   31.7289 N   0  0  0  0  0  0  0  0  0  0  0  0
   -0.4516   -4.5267   31.8275 C   0  0  0  0  0  0  0  0  0  0  0  0
    0.2315   -5.4435   30.8315 C   0  0  0  0  0  0  0  0  0  0  0  0
   -0.3056   -6.8749   30.9072 C   0  0  0  0  0  0  0  0  0  0  0  0
   -0.7989   -7.3396   32.2521 C   0  0  0  0  0  0  0  0  0  0  0  0
   -1.2741   -8.4603   32.3829 O   0  0  0  0  0  0  0  0  0  0  0  0
   -0.7538   -6.4701   33.2923 N   0  0  0  0  0  0  0  0  0  0  0  0
   -0.2331   -5.1242   33.2203 C   0  0  0  0  0  0  0  0  0  0  0  0
    1.7191   -0.5080   29.5250 C   0  0  0  0  0  0  0  0  0  0  0  0
    2.9279   -0.3408   29.5616 O   0  0  0  0  0  0  0  0  0  0  0  0
    0.9335   -0.8388   28.3056 C   0  0  0  0  0  0  0  0  0  0  0  0
   -2.4884   -1.2308   28.6372 H   0  0  0  0  0  0  0  0  0  0  0  0
   -1.5110   -2.4681   27.8439 H   0  0  0  0  0  0  0  0  0  0  0  0
   -1.6104   -0.7929   27.1751 H   0  0  0  0  0  0  0  0  0  0  0  0
   -0.0312    1.6227   30.2232 H   0  0  0  0  0  0  0  0  0  0  0  0
    1.5186    1.6425   31.0871 H   0  0  0  0  0  0  0  0  0  0  0  0
   -0.6749   -1.1706   33.1301 H   0  0  0  0  0  0  0  0  0  0  0  0
    0.6892   -0.5310   34.0396 H   0  0  0  0  0  0  0  0  0  0  0  0
    2.2118   -0.6069   32.2463 H   0  0  0  0  0  0  0  0  0  0  0  0
   -0.6462   -2.4356   31.4027 H   0  0  0  0  0  0  0  0  0  0  0  0
   -1.5187   -4.4909   31.6021 H   0  0  0  0  0  0  0  0  0  0  0  0
    0.1203   -5.0514   29.8147 H   0  0  0  0  0  0  0  0  0  0  0  0
    1.3126   -5.4624   31.0253 H   0  0  0  0  0  0  0  0  0  0  0  0
   -1.1490   -6.9869   30.2222 H   0  0  0  0  0  0  0  0  0  0  0  0
    0.4666   -7.5694   30.5633 H   0  0  0  0  0  0  0  0  0  0  0  0
   -1.0795   -6.8370   34.1802 H   0  0  0  0  0  0  0  0  0  0  0  0
    0.8301   -5.1680   33.4818 H   0  0  0  0  0  0  0  0  0  0  0  0
   -0.7370   -4.5270   33.9870 H   0  0  0  0  0  0  0  0  0  0  0  0
    0.9259   -0.0060   27.6027 H   0  0  0  0  0  0  0  0  0  0  0  0
    1.2967   -1.7703   27.8749 H   0  0  0  0  0  0  0  0  0  0  0  0
  1  2  1  0
  2  3  2  0
  3  4  1  0
  4  5  1  0
  5  6  1  0
  6  7  1  0
  7  8  1  0
  8  9  1  0
  9 10  2  0
  9 11  1  0
 11 12  1  0
 12 13  1  0
 13 14  1  0
 14 15  1  0
 15 16  2  0
 15 17  1  0
 17 18  1  0
  4 19  1  0
 19 20  2  0
 19 21  1  0
 21  2  1  0
  8  4  1  0
 18 12  1  0
  1 22  1  0
  1 23  1  0
  1 24  1  0
  5 25  1  0
  5 26  1  0
  7 27  1  0
  7 28  1  0
  8 29  1  0
 11 30  1  0
 12 31  1  0
 13 32  1  0
 13 33  1  0
 14 34  1  0
 14 35  1  0
 17 36  1  0
 18 37  1  0
 18 38  1  0
 21 39  1  0
 21 40  1  0
M  END
>  <Energy>  (571) 
25.835886613763833

>  <compound_id>  (571) 
841

>  <target_id>  (571) 
1

>  <reference_id>  (571) 
135

>  <inspiration_ids>  (571) 
[70, 135]

>  <energy_score>  (571) 
-20.061104631654928

>  <distance_score>  (571) 
1.9631293212481322

>  <path>  (571) 
/opt/xchem-fragalysis-2/maxwin/BulkDock/SCRATCH/505733/C841-P135/C841-P135.minimised.mol

>  <scratch_subdir>  (571) 
/opt/xchem-fragalysis-2/maxwin/BulkDock/SCRATCH/505733/C841-P135

>  <fragmenstein_runtime>  (571) 
5.36414361000061

>  <fragmenstein_outcome>  (571) 
too moved

>  <fragmenstein_mode>  (571) 
expansion

>  <fragmenstein_error>  (571) 


$$$$
C845-P70
     RDKit          3D

 47 49  0  0  0  0  0  0  0  0999 V2000
    1.7672   -2.7840   32.0101 C   0  0  0  0  0  0  0  0  0  0  0  0
    1.3561   -1.5763   31.1937 C   0  0  0  0  0  0  0  0  0  0  0  0
    0.4749   -0.8533   31.5811 O   0  0  0  0  0  0  0  0  0  0  0  0
    2.1659   -1.5080   30.0156 N   0  0  0  0  0  0  0  0  0  0  0  0
    1.5172   -2.2891   28.8892 C   0  0  0  0  0  0  0  0  0  0  0  0
   -0.0080   -2.2845   28.7650 C   0  0  0  0  0  0  0  0  0  0  0  0
   -0.7261   -1.0108   28.4805 C   0  0  0  0  0  0  0  0  0  0  0  0
   -2.0572   -1.2502   28.1651 O   0  0  0  0  0  0  0  0  0  0  0  0
   -0.2811    0.2618   28.4627 C   0  0  0  0  0  0  0  0  0  0  0  0
   -1.2500    1.2901   28.3060 N   0  0  0  0  0  0  0  0  0  0  0  0
   -1.4129    2.1576   27.1296 C   0  0  0  0  0  0  0  0  0  0  0  0
   -1.2502    3.6353   27.4917 C   0  0  0  0  0  0  0  0  0  0  0  0
   -1.2544    4.4845   26.2208 C   0  0  0  0  0  0  0  0  0  0  0  0
   -2.3361    4.1267   25.2169 C   0  0  0  0  0  0  0  0  0  0  0  0
   -2.6429    4.8728   24.2925 O   0  0  0  0  0  0  0  0  0  0  0  0
   -2.8685    2.8661   25.2890 N   0  0  0  0  0  0  0  0  0  0  0  0
   -2.7947    2.0490   26.4813 C   0  0  0  0  0  0  0  0  0  0  0  0
    1.1831    0.7025   28.7557 C   0  0  0  0  0  0  0  0  0  0  0  0
    1.2070    1.6756   29.9742 C   0  0  0  0  0  0  0  0  0  0  0  0
    2.3726    3.0193   29.5806 S   0  0  0  0  0  0  0  0  0  0  0  0
    2.7764    2.3493   27.9694 C   0  0  0  0  0  0  0  0  0  0  0  0
    1.6402    1.5283   27.5727 N   0  0  0  0  0  0  0  0  0  0  0  0
    2.2556   -0.4505   28.9385 C   0  0  0  0  0  0  0  0  0  0  0  0
    0.9801   -3.5404   31.9506 H   0  0  0  0  0  0  0  0  0  0  0  0
    1.9076   -2.4787   33.0509 H   0  0  0  0  0  0  0  0  0  0  0  0
    2.7061   -3.2177   31.6536 H   0  0  0  0  0  0  0  0  0  0  0  0
    2.0268   -2.3599   27.9126 H   0  0  0  0  0  0  0  0  0  0  0  0
    1.7155   -3.3206   29.2335 H   0  0  0  0  0  0  0  0  0  0  0  0
   -0.4490   -2.7168   29.6733 H   0  0  0  0  0  0  0  0  0  0  0  0
   -0.2579   -2.9984   27.9700 H   0  0  0  0  0  0  0  0  0  0  0  0
   -2.3228   -0.5140   27.5923 H   0  0  0  0  0  0  0  0  0  0  0  0
   -2.1317    1.0561   28.7644 H   0  0  0  0  0  0  0  0  0  0  0  0
   -0.6822    1.8768   26.3630 H   0  0  0  0  0  0  0  0  0  0  0  0
   -0.3301    3.8217   28.0526 H   0  0  0  0  0  0  0  0  0  0  0  0
   -2.0732    3.9530   28.1433 H   0  0  0  0  0  0  0  0  0  0  0  0
   -1.3718    5.5391   26.4925 H   0  0  0  0  0  0  0  0  0  0  0  0
   -0.2924    4.3733   25.7064 H   0  0  0  0  0  0  0  0  0  0  0  0
   -3.6663    2.7450   24.6586 H   0  0  0  0  0  0  0  0  0  0  0  0
   -3.0058    1.0174   26.1976 H   0  0  0  0  0  0  0  0  0  0  0  0
   -3.5915    2.3737   27.1536 H   0  0  0  0  0  0  0  0  0  0  0  0
    0.2417    2.1408   30.1878 H   0  0  0  0  0  0  0  0  0  0  0  0
    1.5610    1.2033   30.8917 H   0  0  0  0  0  0  0  0  0  0  0  0
    2.9298    3.1610   27.2517 H   0  0  0  0  0  0  0  0  0  0  0  0
    3.7034    1.7699   28.0097 H   0  0  0  0  0  0  0  0  0  0  0  0
    0.9065    2.2132   27.4401 H   0  0  0  0  0  0  0  0  0  0  0  0
    3.1181    0.0840   29.3734 H   0  0  0  0  0  0  0  0  0  0  0  0
    2.7435   -0.7296   27.9860 H   0  0  0  0  0  0  0  0  0  0  0  0
  1  2  1  0
  2  3  2  0
  2  4  1  0
  4  5  1  0
  5  6  1  0
  6  7  1  0
  7  8  1  0
  7  9  2  0
  9 10  1  0
 10 11  1  0
 11 12  1  0
 12 13  1  0
 13 14  1  0
 14 15  2  0
 14 16  1  0
 16 17  1  0
  9 18  1  0
 18 19  1  0
 19 20  1  0
 20 21  1  0
 21 22  1  0
 18 23  1  0
 23  4  1  0
 17 11  1  0
 22 18  1  0
  1 24  1  0
  1 25  1  0
  1 26  1  0
  5 27  1  0
  5 28  1  0
  6 29  1  0
  6 30  1  0
  8 31  1  0
 10 32  1  0
 11 33  1  0
 12 34  1  0
 12 35  1  0
 13 36  1  0
 13 37  1  0
 16 38  1  0
 17 39  1  0
 17 40  1  0
 19 41  1  0
 19 42  1  0
 21 43  1  0
 21 44  1  0
 22 45  1  0
 23 46  1  0
 23 47  1  0
M  END
>  <Energy>  (572) 
145.17440682383324

>  <compound_id>  (572) 
845

>  <target_id>  (572) 
1

>  <reference_id>  (572) 
70

>  <inspiration_ids>  (572) 
[70, 147]

>  <energy_score>  (572) 
7.704260187308307

>  <distance_score>  (572) 
4.037062652043714

>  <path>  (572) 
/opt/xchem-fragalysis-2/maxwin/BulkDock/SCRATCH/505733/C845-P70/C845-P70.minimised.mol

>  <scratch_subdir>  (572) 
/opt/xchem-fragalysis-2/maxwin/BulkDock/SCRATCH/505733/C845-P70

>  <fragmenstein_runtime>  (572) 
10.529399633407593

>  <fragmenstein_outcome>  (572) 
too moved

>  <fragmenstein_mode>  (572) 
expansion

>  <fragmenstein_error>  (572) 


$$$$
C845-P147
     RDKit          3D

 47 49  0  0  0  0  0  0  0  0999 V2000
    4.0657   -2.0327   33.8792 C   0  0  0  0  0  0  0  0  0  0  0  0
    3.3405   -1.2888   32.7776 C   0  0  0  0  0  0  0  0  0  0  0  0
    2.1735   -1.0217   32.8938 O   0  0  0  0  0  0  0  0  0  0  0  0
    4.2577   -1.0089   31.7162 N   0  0  0  0  0  0  0  0  0  0  0  0
    4.2651   -2.1485   30.7176 C   0  0  0  0  0  0  0  0  0  0  0  0
    2.9654   -2.8721   30.3418 C   0  0  0  0  0  0  0  0  0  0  0  0
    1.7781   -2.1216   29.8509 C   0  0  0  0  0  0  0  0  0  0  0  0
    0.7398   -2.9867   29.5082 O   0  0  0  0  0  0  0  0  0  0  0  0
    1.5966   -0.7930   29.7078 C   0  0  0  0  0  0  0  0  0  0  0  0
    0.2773   -0.3496   29.4658 N   0  0  0  0  0  0  0  0  0  0  0  0
   -0.2146    0.2334   28.2121 C   0  0  0  0  0  0  0  0  0  0  0  0
   -0.3855    1.7679   28.3258 C   0  0  0  0  0  0  0  0  0  0  0  0
   -1.6620    2.3267   27.6923 C   0  0  0  0  0  0  0  0  0  0  0  0
   -2.0228    1.5628   26.4517 C   0  0  0  0  0  0  0  0  0  0  0  0
   -2.2082    2.0762   25.3572 O   0  0  0  0  0  0  0  0  0  0  0  0
   -2.0688    0.2044   26.6381 N   0  0  0  0  0  0  0  0  0  0  0  0
   -1.5477   -0.4063   27.8308 C   0  0  0  0  0  0  0  0  0  0  0  0
    2.6712    0.3021   29.9575 C   0  0  0  0  0  0  0  0  0  0  0  0
    2.1176    1.3921   30.9310 C   0  0  0  0  0  0  0  0  0  0  0  0
    2.4935    3.0174   30.2112 S   0  0  0  0  0  0  0  0  0  0  0  0
    3.4092    2.3252   28.8428 C   0  0  0  0  0  0  0  0  0  0  0  0
    2.9434    0.9621   28.6283 N   0  0  0  0  0  0  0  0  0  0  0  0
    4.0889   -0.1942   30.4561 C   0  0  0  0  0  0  0  0  0  0  0  0
    3.7300   -3.0731   33.8886 H   0  0  0  0  0  0  0  0  0  0  0  0
    3.8343   -1.5617   34.8388 H   0  0  0  0  0  0  0  0  0  0  0  0
    5.1507   -2.0090   33.7421 H   0  0  0  0  0  0  0  0  0  0  0  0
    4.9895   -2.1119   29.8848 H   0  0  0  0  0  0  0  0  0  0  0  0
    4.7848   -2.9207   31.3145 H   0  0  0  0  0  0  0  0  0  0  0  0
    2.6357   -3.4508   31.2167 H   0  0  0  0  0  0  0  0  0  0  0  0
    3.2263   -3.6245   29.5846 H   0  0  0  0  0  0  0  0  0  0  0  0
    0.2106   -2.5192   28.8368 H   0  0  0  0  0  0  0  0  0  0  0  0
   -0.3940   -0.9828   29.9058 H   0  0  0  0  0  0  0  0  0  0  0  0
    0.4941    0.0164   27.4063 H   0  0  0  0  0  0  0  0  0  0  0  0
   -0.3538    2.0916   29.3698 H   0  0  0  0  0  0  0  0  0  0  0  0
    0.4592    2.2535   27.8247 H   0  0  0  0  0  0  0  0  0  0  0  0
   -1.5439    3.3891   27.4566 H   0  0  0  0  0  0  0  0  0  0  0  0
   -2.4938    2.2321   28.3905 H   0  0  0  0  0  0  0  0  0  0  0  0
   -2.1740   -0.3806   25.8071 H   0  0  0  0  0  0  0  0  0  0  0  0
   -1.4488   -1.4809   27.6603 H   0  0  0  0  0  0  0  0  0  0  0  0
   -2.2612   -0.2825   28.6462 H   0  0  0  0  0  0  0  0  0  0  0  0
    1.0396    1.3442   31.1015 H   0  0  0  0  0  0  0  0  0  0  0  0
    2.5969    1.3532   31.9132 H   0  0  0  0  0  0  0  0  0  0  0  0
    3.2618    2.9273   27.9412 H   0  0  0  0  0  0  0  0  0  0  0  0
    4.4798    2.3362   29.0699 H   0  0  0  0  0  0  0  0  0  0  0  0
    2.0521    1.0473   28.1596 H   0  0  0  0  0  0  0  0  0  0  0  0
    4.7969   -0.3638   29.6234 H   0  0  0  0  0  0  0  0  0  0  0  0
    4.5592    0.7328   30.8313 H   0  0  0  0  0  0  0  0  0  0  0  0
  1  2  1  0
  2  3  2  0
  2  4  1  0
  4  5  1  0
  5  6  1  0
  6  7  1  0
  7  8  1  0
  7  9  2  0
  9 10  1  0
 10 11  1  0
 11 12  1  0
 12 13  1  0
 13 14  1  0
 14 15  2  0
 14 16  1  0
 16 17  1  0
  9 18  1  0
 18 19  1  0
 19 20  1  0
 20 21  1  0
 21 22  1  0
 18 23  1  0
 23  4  1  0
 17 11  1  0
 22 18  1  0
  1 24  1  0
  1 25  1  0
  1 26  1  0
  5 27  1  0
  5 28  1  0
  6 29  1  0
  6 30  1  0
  8 31  1  0
 10 32  1  0
 11 33  1  0
 12 34  1  0
 12 35  1  0
 13 36  1  0
 13 37  1  0
 16 38  1  0
 17 39  1  0
 17 40  1  0
 19 41  1  0
 19 42  1  0
 21 43  1  0
 21 44  1  0
 22 45  1  0
 23 46  1  0
 23 47  1  0
M  END
>  <Energy>  (573) 
149.79148239159744

>  <compound_id>  (573) 
845

>  <target_id>  (573) 
1

>  <reference_id>  (573) 
147

>  <inspiration_ids>  (573) 
[70, 147]

>  <energy_score>  (573) 
12.32133575506839

>  <distance_score>  (573) 
5.127906261155184

>  <path>  (573) 
/opt/xchem-fragalysis-2/maxwin/BulkDock/SCRATCH/505733/C845-P147/C845-P147.minimised.mol

>  <scratch_subdir>  (573) 
/opt/xchem-fragalysis-2/maxwin/BulkDock/SCRATCH/505733/C845-P147

>  <fragmenstein_runtime>  (573) 
9.675041675567627

>  <fragmenstein_outcome>  (573) 
too moved

>  <fragmenstein_mode>  (573) 
expansion

>  <fragmenstein_error>  (573) 


$$$$
C851-P70
     RDKit          3D

 53 55  0  0  0  0  0  0  0  0999 V2000
    1.2544   -3.9310   29.6095 C   0  0  0  0  0  0  0  0  0  0  0  0
    2.7635   -3.8519   29.5374 C   0  0  0  0  0  0  0  0  0  0  0  0
    3.4212   -4.8457   29.6973 O   0  0  0  0  0  0  0  0  0  0  0  0
    3.1619   -2.5090   29.2908 N   0  0  0  0  0  0  0  0  0  0  0  0
    4.5209   -1.8831   29.2617 C   0  0  0  0  0  0  0  0  0  0  0  0
    4.5583   -0.3589   29.2080 C   0  0  0  0  0  0  0  0  0  0  0  0
    3.7430    0.2077   28.1260 N   0  0  0  0  0  0  0  0  0  0  0  0
    3.6903    1.5849   27.9787 C   0  0  0  0  0  0  0  0  0  0  0  0
    2.9639    2.4622   27.2670 C   0  0  0  0  0  0  0  0  0  0  0  0
    1.8460    2.2147   26.3030 C   0  0  0  0  0  0  0  0  0  0  0  0
    0.6925    3.1847   26.4064 C   0  0  0  0  0  0  0  0  0  0  0  0
    0.7158    4.4845   25.9323 C   0  0  0  0  0  0  0  0  0  0  0  0
   -0.7723    5.2960   26.1275 S   0  0  0  0  0  0  0  0  0  0  0  0
   -1.5040    3.9136   26.8005 C   0  0  0  0  0  0  0  0  0  0  0  0
   -0.6234    2.8557   26.9233 C   0  0  0  0  0  0  0  0  0  0  0  0
   -1.0522    1.5677   27.4773 C   0  0  0  0  0  0  0  0  0  0  0  0
   -1.9515    0.9826   26.9536 O   0  0  0  0  0  0  0  0  0  0  0  0
   -0.2564    1.2307   28.6092 N   0  0  0  0  0  0  0  0  0  0  0  0
   -0.2211    0.0366   29.4210 C   0  0  0  0  0  0  0  0  0  0  0  0
   -1.5986   -0.2691   29.9976 C   0  0  0  0  0  0  0  0  0  0  0  0
   -1.5765   -1.5578   30.7957 C   0  0  0  0  0  0  0  0  0  0  0  0
   -0.4598   -1.6185   31.8080 C   0  0  0  0  0  0  0  0  0  0  0  0
   -0.5458   -2.3113   32.8178 O   0  0  0  0  0  0  0  0  0  0  0  0
    0.6931   -0.9539   31.5075 N   0  0  0  0  0  0  0  0  0  0  0  0
    0.7683    0.1539   30.5812 C   0  0  0  0  0  0  0  0  0  0  0  0
    3.0026   -0.7822   27.3311 C   0  0  0  0  0  0  0  0  0  0  0  0
    3.2575   -2.2497   27.7743 C   0  0  0  0  0  0  0  0  0  0  0  0
    0.9559   -4.0951   30.6480 H   0  0  0  0  0  0  0  0  0  0  0  0
    0.9067   -4.7640   28.9930 H   0  0  0  0  0  0  0  0  0  0  0  0
    0.7805   -3.0199   29.2391 H   0  0  0  0  0  0  0  0  0  0  0  0
    5.2885   -2.3886   28.6506 H   0  0  0  0  0  0  0  0  0  0  0  0
    4.9023   -2.1332   30.2653 H   0  0  0  0  0  0  0  0  0  0  0  0
    4.1910    0.0366   30.1637 H   0  0  0  0  0  0  0  0  0  0  0  0
    5.6002   -0.0320   29.1030 H   0  0  0  0  0  0  0  0  0  0  0  0
    4.4432    2.0488   28.6223 H   0  0  0  0  0  0  0  0  0  0  0  0
    3.2261    3.5133   27.3910 H   0  0  0  0  0  0  0  0  0  0  0  0
    2.2412    2.2413   25.2810 H   0  0  0  0  0  0  0  0  0  0  0  0
    1.4511    1.2242   26.4937 H   0  0  0  0  0  0  0  0  0  0  0  0
    1.5446    5.0037   25.4697 H   0  0  0  0  0  0  0  0  0  0  0  0
   -2.5477    3.9424   27.0891 H   0  0  0  0  0  0  0  0  0  0  0  0
    0.4745    1.9286   28.7190 H   0  0  0  0  0  0  0  0  0  0  0  0
    0.0675   -0.7861   28.7580 H   0  0  0  0  0  0  0  0  0  0  0  0
   -1.9274    0.5523   30.6420 H   0  0  0  0  0  0  0  0  0  0  0  0
   -2.3304   -0.3567   29.1922 H   0  0  0  0  0  0  0  0  0  0  0  0
   -1.4687   -2.4186   30.1264 H   0  0  0  0  0  0  0  0  0  0  0  0
   -2.5266   -1.6674   31.3302 H   0  0  0  0  0  0  0  0  0  0  0  0
    1.4104   -1.0361   32.2196 H   0  0  0  0  0  0  0  0  0  0  0  0
    0.5741    1.0650   31.1604 H   0  0  0  0  0  0  0  0  0  0  0  0
    1.7953    0.2166   30.2175 H   0  0  0  0  0  0  0  0  0  0  0  0
    1.9331   -0.5934   27.4498 H   0  0  0  0  0  0  0  0  0  0  0  0
    3.2538   -0.6777   26.2700 H   0  0  0  0  0  0  0  0  0  0  0  0
    2.4116   -2.8107   27.3458 H   0  0  0  0  0  0  0  0  0  0  0  0
    4.1004   -2.7339   27.2539 H   0  0  0  0  0  0  0  0  0  0  0  0
  1  2  1  0
  2  3  2  0
  2  4  1  0
  4  5  1  0
  5  6  1  0
  6  7  1  0
  7  8  1  0
  8  9  2  3
  9 10  1  0
 10 11  1  0
 11 12  2  0
 12 13  1  0
 13 14  1  0
 14 15  2  0
 15 16  1  0
 16 17  2  0
 16 18  1  0
 18 19  1  0
 19 20  1  0
 20 21  1  0
 21 22  1  0
 22 23  2  0
 22 24  1  0
 24 25  1  0
  7 26  1  0
 26 27  1  0
 27  4  1  0
 15 11  1  0
 25 19  1  0
  1 28  1  0
  1 29  1  0
  1 30  1  0
  5 31  1  0
  5 32  1  0
  6 33  1  0
  6 34  1  0
  8 35  1  0
  9 36  1  0
 10 37  1  0
 10 38  1  0
 12 39  1  0
 14 40  1  0
 18 41  1  0
 19 42  1  0
 20 43  1  0
 20 44  1  0
 21 45  1  0
 21 46  1  0
 24 47  1  0
 25 48  1  0
 25 49  1  0
 26 50  1  0
 26 51  1  0
 27 52  1  0
 27 53  1  0
M  END
>  <Energy>  (574) 
117.33686520404737

>  <compound_id>  (574) 
851

>  <target_id>  (574) 
1

>  <reference_id>  (574) 
70

>  <inspiration_ids>  (574) 
[70, 177]

>  <energy_score>  (574) 
-5.316210025399926

>  <distance_score>  (574) 
3.575560078817777

>  <path>  (574) 
/opt/xchem-fragalysis-2/maxwin/BulkDock/SCRATCH/505733/C851-P70/C851-P70.minimised.mol

>  <scratch_subdir>  (574) 
/opt/xchem-fragalysis-2/maxwin/BulkDock/SCRATCH/505733/C851-P70

>  <fragmenstein_runtime>  (574) 
12.873701095581055

>  <fragmenstein_outcome>  (574) 
too moved

>  <fragmenstein_mode>  (574) 
expansion

>  <fragmenstein_error>  (574) 


$$$$
C851-P177
     RDKit          3D

 53 55  0  0  0  0  0  0  0  0999 V2000
    7.3397   -5.8100   28.6527 C   0  0  0  0  0  0  0  0  0  0  0  0
    7.4368   -4.7416   27.5838 C   0  0  0  0  0  0  0  0  0  0  0  0
    8.3720   -4.7267   26.8282 O   0  0  0  0  0  0  0  0  0  0  0  0
    6.3172   -3.8690   27.6882 N   0  0  0  0  0  0  0  0  0  0  0  0
    5.9999   -2.5891   26.9656 C   0  0  0  0  0  0  0  0  0  0  0  0
    4.7952   -1.7876   27.4710 C   0  0  0  0  0  0  0  0  0  0  0  0
    3.5494   -2.5228   27.2959 N   0  0  0  0  0  0  0  0  0  0  0  0
    2.2900   -1.9575   27.3683 C   0  0  0  0  0  0  0  0  0  0  0  0
    1.8399   -0.6987   27.5125 C   0  0  0  0  0  0  0  0  0  0  0  0
    2.6280    0.5715   27.6308 C   0  0  0  0  0  0  0  0  0  0  0  0
    1.9852    1.7408   28.3499 C   0  0  0  0  0  0  0  0  0  0  0  0
    2.3380    3.0402   28.0054 C   0  0  0  0  0  0  0  0  0  0  0  0
    1.5965    4.2337   28.9606 S   0  0  0  0  0  0  0  0  0  0  0  0
    0.7516    3.0526   29.8379 C   0  0  0  0  0  0  0  0  0  0  0  0
    1.0268    1.7523   29.4459 C   0  0  0  0  0  0  0  0  0  0  0  0
    0.3535    0.6251   30.1236 C   0  0  0  0  0  0  0  0  0  0  0  0
   -0.8198    0.7072   30.3303 O   0  0  0  0  0  0  0  0  0  0  0  0
    1.2855   -0.3999   30.4495 N   0  0  0  0  0  0  0  0  0  0  0  0
    1.0937   -1.7055   31.0471 C   0  0  0  0  0  0  0  0  0  0  0  0
    0.6856   -1.6414   32.5168 C   0  0  0  0  0  0  0  0  0  0  0  0
   -0.7892   -1.3343   32.7310 C   0  0  0  0  0  0  0  0  0  0  0  0
   -1.7161   -2.1228   31.8324 C   0  0  0  0  0  0  0  0  0  0  0  0
   -2.8369   -2.4792   32.1952 O   0  0  0  0  0  0  0  0  0  0  0  0
   -1.2760   -2.3784   30.5657 N   0  0  0  0  0  0  0  0  0  0  0  0
    0.1198   -2.6017   30.2698 C   0  0  0  0  0  0  0  0  0  0  0  0
    3.7369   -3.9792   27.2806 C   0  0  0  0  0  0  0  0  0  0  0  0
    5.1608   -4.3849   26.8213 C   0  0  0  0  0  0  0  0  0  0  0  0
    8.2902   -5.8623   29.1913 H   0  0  0  0  0  0  0  0  0  0  0  0
    6.5500   -5.5906   29.3770 H   0  0  0  0  0  0  0  0  0  0  0  0
    7.1305   -6.7729   28.1792 H   0  0  0  0  0  0  0  0  0  0  0  0
    6.1019   -2.6153   25.8686 H   0  0  0  0  0  0  0  0  0  0  0  0
    6.8733   -1.9697   27.2262 H   0  0  0  0  0  0  0  0  0  0  0  0
    4.9295   -1.5475   28.5324 H   0  0  0  0  0  0  0  0  0  0  0  0
    4.7761   -0.8553   26.8977 H   0  0  0  0  0  0  0  0  0  0  0  0
    1.5220   -2.7227   27.2429 H   0  0  0  0  0  0  0  0  0  0  0  0
    0.7592   -0.5621   27.4787 H   0  0  0  0  0  0  0  0  0  0  0  0
    3.5553    0.3838   28.1815 H   0  0  0  0  0  0  0  0  0  0  0  0
    2.9077    0.8918   26.6194 H   0  0  0  0  0  0  0  0  0  0  0  0
    3.0135    3.3418   27.2153 H   0  0  0  0  0  0  0  0  0  0  0  0
    0.1040    3.3756   30.6366 H   0  0  0  0  0  0  0  0  0  0  0  0
    2.2166   -0.0930   30.1917 H   0  0  0  0  0  0  0  0  0  0  0  0
    2.0874   -2.1676   30.9888 H   0  0  0  0  0  0  0  0  0  0  0  0
    0.8945   -2.6205   32.9689 H   0  0  0  0  0  0  0  0  0  0  0  0
    1.2977   -0.9107   33.0586 H   0  0  0  0  0  0  0  0  0  0  0  0
   -0.9951   -0.2701   32.5879 H   0  0  0  0  0  0  0  0  0  0  0  0
   -1.0479   -1.5685   33.7706 H   0  0  0  0  0  0  0  0  0  0  0  0
   -1.9514   -2.8358   29.9654 H   0  0  0  0  0  0  0  0  0  0  0  0
    0.3170   -3.6499   30.5255 H   0  0  0  0  0  0  0  0  0  0  0  0
    0.2344   -2.4980   29.1906 H   0  0  0  0  0  0  0  0  0  0  0  0
    3.5618   -4.3642   28.2927 H   0  0  0  0  0  0  0  0  0  0  0  0
    3.0065   -4.4513   26.6127 H   0  0  0  0  0  0  0  0  0  0  0  0
    5.1802   -5.4768   26.9707 H   0  0  0  0  0  0  0  0  0  0  0  0
    5.3240   -4.3250   25.7318 H   0  0  0  0  0  0  0  0  0  0  0  0
  1  2  1  0
  2  3  2  0
  2  4  1  0
  4  5  1  0
  5  6  1  0
  6  7  1  0
  7  8  1  0
  8  9  2  3
  9 10  1  0
 10 11  1  0
 11 12  2  0
 12 13  1  0
 13 14  1  0
 14 15  2  0
 15 16  1  0
 16 17  2  0
 16 18  1  0
 18 19  1  0
 19 20  1  0
 20 21  1  0
 21 22  1  0
 22 23  2  0
 22 24  1  0
 24 25  1  0
  7 26  1  0
 26 27  1  0
 27  4  1  0
 15 11  1  0
 25 19  1  0
  1 28  1  0
  1 29  1  0
  1 30  1  0
  5 31  1  0
  5 32  1  0
  6 33  1  0
  6 34  1  0
  8 35  1  0
  9 36  1  0
 10 37  1  0
 10 38  1  0
 12 39  1  0
 14 40  1  0
 18 41  1  0
 19 42  1  0
 20 43  1  0
 20 44  1  0
 21 45  1  0
 21 46  1  0
 24 47  1  0
 25 48  1  0
 25 49  1  0
 26 50  1  0
 26 51  1  0
 27 52  1  0
 27 53  1  0
M  END
>  <Energy>  (575) 
119.88536583323591

>  <compound_id>  (575) 
851

>  <target_id>  (575) 
1

>  <reference_id>  (575) 
177

>  <inspiration_ids>  (575) 
[70, 177]

>  <energy_score>  (575) 
-2.7677093962105914

>  <distance_score>  (575) 
5.1685775182540405

>  <path>  (575) 
/opt/xchem-fragalysis-2/maxwin/BulkDock/SCRATCH/505733/C851-P177/C851-P177.minimised.mol

>  <scratch_subdir>  (575) 
/opt/xchem-fragalysis-2/maxwin/BulkDock/SCRATCH/505733/C851-P177

>  <fragmenstein_runtime>  (575) 
12.49774956703186

>  <fragmenstein_outcome>  (575) 
too moved

>  <fragmenstein_mode>  (575) 
expansion

>  <fragmenstein_error>  (575) 


$$$$
C852-P70
     RDKit          3D

 43 45  0  0  0  0  0  0  0  0999 V2000
   -0.8649    3.9813   24.2528 C   0  0  0  0  0  0  0  0  0  0  0  0
   -2.2355    3.4650   24.6679 C   0  0  0  0  0  0  0  0  0  0  0  0
   -3.2282    4.5327   24.7242 N   0  0  0  0  0  0  0  0  0  0  0  0
   -2.1342    2.6294   25.9173 C   0  0  0  0  0  0  0  0  0  0  0  0
   -1.8245    1.3511   26.0356 N   0  0  0  0  0  0  0  0  0  0  0  0
   -1.7789    1.1639   27.4015 C   0  0  0  0  0  0  0  0  0  0  0  0
   -1.3645   -0.1468   28.0618 C   0  0  0  0  0  0  0  0  0  0  0  0
   -0.4231    0.0149   29.2499 C   0  0  0  0  0  0  0  0  0  0  0  0
    0.4323    1.1060   29.3530 C   0  0  0  0  0  0  0  0  0  0  0  0
    1.1117    1.2899   30.8923 S   0  0  0  0  0  0  0  0  0  0  0  0
    0.4547   -0.1882   31.3923 C   0  0  0  0  0  0  0  0  0  0  0  0
   -0.2130   -0.8849   30.3951 C   0  0  0  0  0  0  0  0  0  0  0  0
   -0.6745   -2.2807   30.6656 C   0  0  0  0  0  0  0  0  0  0  0  0
   -1.7424   -2.6292   30.3410 O   0  0  0  0  0  0  0  0  0  0  0  0
    0.4270   -3.0261   31.4825 N   0  0  0  0  0  0  0  0  0  0  0  0
    0.4702   -4.4036   31.9877 C   0  0  0  0  0  0  0  0  0  0  0  0
   -0.4992   -4.6146   33.1538 C   0  0  0  0  0  0  0  0  0  0  0  0
   -0.4339   -6.0414   33.6875 C   0  0  0  0  0  0  0  0  0  0  0  0
   -0.6630   -7.0689   32.6056 C   0  0  0  0  0  0  0  0  0  0  0  0
   -1.2339   -8.1371   32.8177 O   0  0  0  0  0  0  0  0  0  0  0  0
   -0.1162   -6.7820   31.3879 N   0  0  0  0  0  0  0  0  0  0  0  0
    0.2402   -5.4613   30.9071 C   0  0  0  0  0  0  0  0  0  0  0  0
   -2.0601    2.2754   28.0957 N   0  0  0  0  0  0  0  0  0  0  0  0
   -2.2816    3.2486   27.1218 O   0  0  0  0  0  0  0  0  0  0  0  0
   -0.9144    4.5105   23.2946 H   0  0  0  0  0  0  0  0  0  0  0  0
   -0.4558    4.6721   24.9992 H   0  0  0  0  0  0  0  0  0  0  0  0
   -0.1508    3.1578   24.1392 H   0  0  0  0  0  0  0  0  0  0  0  0
   -2.5590    2.8153   23.8547 H   0  0  0  0  0  0  0  0  0  0  0  0
   -3.1722    5.1196   23.8952 H   0  0  0  0  0  0  0  0  0  0  0  0
   -3.0634    5.1498   25.5252 H   0  0  0  0  0  0  0  0  0  0  0  0
   -0.8558   -0.7703   27.3227 H   0  0  0  0  0  0  0  0  0  0  0  0
   -2.2656   -0.6778   28.3791 H   0  0  0  0  0  0  0  0  0  0  0  0
    0.5955    1.8925   28.6265 H   0  0  0  0  0  0  0  0  0  0  0  0
    0.6468   -0.5108   32.4071 H   0  0  0  0  0  0  0  0  0  0  0  0
    1.2678   -2.4608   31.5126 H   0  0  0  0  0  0  0  0  0  0  0  0
    1.4875   -4.5354   32.3787 H   0  0  0  0  0  0  0  0  0  0  0  0
   -0.2801   -3.9067   33.9619 H   0  0  0  0  0  0  0  0  0  0  0  0
   -1.5088   -4.3879   32.7998 H   0  0  0  0  0  0  0  0  0  0  0  0
    0.5497   -6.2375   34.1300 H   0  0  0  0  0  0  0  0  0  0  0  0
   -1.1823   -6.1845   34.4725 H   0  0  0  0  0  0  0  0  0  0  0  0
   -0.1317   -7.5405   30.7137 H   0  0  0  0  0  0  0  0  0  0  0  0
   -0.5677   -5.1528   30.2391 H   0  0  0  0  0  0  0  0  0  0  0  0
    1.1336   -5.5676   30.2816 H   0  0  0  0  0  0  0  0  0  0  0  0
  1  2  1  0
  2  3  1  0
  2  4  1  0
  4  5  2  0
  5  6  1  0
  6  7  1  0
  7  8  1  0
  8  9  2  0
  9 10  1  0
 10 11  1  0
 11 12  2  0
 12 13  1  0
 13 14  2  0
 13 15  1  0
 15 16  1  0
 16 17  1  0
 17 18  1  0
 18 19  1  0
 19 20  2  0
 19 21  1  0
 21 22  1  0
  6 23  2  0
 23 24  1  0
 24  4  1  0
 12  8  1  0
 22 16  1  0
  1 25  1  0
  1 26  1  0
  1 27  1  0
  2 28  1  0
  3 29  1  0
  3 30  1  0
  7 31  1  0
  7 32  1  0
  9 33  1  0
 11 34  1  0
 15 35  1  0
 16 36  1  0
 17 37  1  0
 17 38  1  0
 18 39  1  0
 18 40  1  0
 21 41  1  0
 22 42  1  0
 22 43  1  0
M  END
>  <Energy>  (576) 
59.878252494118172

>  <compound_id>  (576) 
852

>  <target_id>  (576) 
1

>  <reference_id>  (576) 
70

>  <inspiration_ids>  (576) 
[70, 180]

>  <energy_score>  (576) 
-58.33267845501615

>  <distance_score>  (576) 
1.6082171465801367

>  <path>  (576) 
/opt/xchem-fragalysis-2/maxwin/BulkDock/SCRATCH/505733/C852-P70/C852-P70.minimised.mol

>  <scratch_subdir>  (576) 
/opt/xchem-fragalysis-2/maxwin/BulkDock/SCRATCH/505733/C852-P70

>  <fragmenstein_runtime>  (576) 
5.133483409881592

>  <fragmenstein_outcome>  (576) 
too moved

>  <fragmenstein_mode>  (576) 
expansion

>  <fragmenstein_error>  (576) 


$$$$
C852-P180
     RDKit          3D

 43 45  0  0  0  0  0  0  0  0999 V2000
   -0.9122    3.8219   24.1572 C   0  0  0  0  0  0  0  0  0  0  0  0
   -2.2239    3.2236   24.6503 C   0  0  0  0  0  0  0  0  0  0  0  0
   -3.2762    4.2323   24.6702 N   0  0  0  0  0  0  0  0  0  0  0  0
   -2.0340    2.5007   25.9527 C   0  0  0  0  0  0  0  0  0  0  0  0
   -1.8170    1.2173   26.1531 N   0  0  0  0  0  0  0  0  0  0  0  0
   -1.5073    1.1538   27.4907 C   0  0  0  0  0  0  0  0  0  0  0  0
   -1.0635   -0.1428   28.1602 C   0  0  0  0  0  0  0  0  0  0  0  0
   -0.2535    0.0363   29.4385 C   0  0  0  0  0  0  0  0  0  0  0  0
    0.5991    1.1199   29.6131 C   0  0  0  0  0  0  0  0  0  0  0  0
    1.0599    1.3563   31.2256 S   0  0  0  0  0  0  0  0  0  0  0  0
    0.3355   -0.1065   31.6784 C   0  0  0  0  0  0  0  0  0  0  0  0
   -0.1614   -0.8430   30.6132 C   0  0  0  0  0  0  0  0  0  0  0  0
   -0.5873   -2.2577   30.8219 C   0  0  0  0  0  0  0  0  0  0  0  0
   -1.5446   -2.6737   30.2984 O   0  0  0  0  0  0  0  0  0  0  0  0
    0.3958   -2.9425   31.8192 N   0  0  0  0  0  0  0  0  0  0  0  0
    0.4501   -4.3228   32.3026 C   0  0  0  0  0  0  0  0  0  0  0  0
   -0.6240   -4.6088   33.3595 C   0  0  0  0  0  0  0  0  0  0  0  0
   -0.6404   -6.0711   33.7974 C   0  0  0  0  0  0  0  0  0  0  0  0
   -0.6637   -7.0225   32.6243 C   0  0  0  0  0  0  0  0  0  0  0  0
   -1.3148   -8.0595   32.5884 O   0  0  0  0  0  0  0  0  0  0  0  0
    0.1950   -6.7174   31.5997 N   0  0  0  0  0  0  0  0  0  0  0  0
    0.3652   -5.3456   31.1676 C   0  0  0  0  0  0  0  0  0  0  0  0
   -1.5771    2.3453   28.1079 N   0  0  0  0  0  0  0  0  0  0  0  0
   -1.9173    3.2405   27.0913 O   0  0  0  0  0  0  0  0  0  0  0  0
   -1.0232    4.2446   23.1523 H   0  0  0  0  0  0  0  0  0  0  0  0
   -0.5622    4.6205   24.8221 H   0  0  0  0  0  0  0  0  0  0  0  0
   -0.1210    3.0669   24.1140 H   0  0  0  0  0  0  0  0  0  0  0  0
   -2.5138    2.4777   23.9080 H   0  0  0  0  0  0  0  0  0  0  0  0
   -3.2920    4.7461   23.7927 H   0  0  0  0  0  0  0  0  0  0  0  0
   -3.1001    4.9194   25.4105 H   0  0  0  0  0  0  0  0  0  0  0  0
   -0.4414   -0.7013   27.4531 H   0  0  0  0  0  0  0  0  0  0  0  0
   -1.9439   -0.7541   28.3643 H   0  0  0  0  0  0  0  0  0  0  0  0
    0.8584    1.8853   28.8923 H   0  0  0  0  0  0  0  0  0  0  0  0
    0.3841   -0.3960   32.7197 H   0  0  0  0  0  0  0  0  0  0  0  0
    1.1699   -2.3183   32.0146 H   0  0  0  0  0  0  0  0  0  0  0  0
    1.4290   -4.4292   32.7875 H   0  0  0  0  0  0  0  0  0  0  0  0
   -0.4733   -3.9632   34.2330 H   0  0  0  0  0  0  0  0  0  0  0  0
   -1.5985   -4.3378   32.9454 H   0  0  0  0  0  0  0  0  0  0  0  0
    0.2524   -6.2987   34.3912 H   0  0  0  0  0  0  0  0  0  0  0  0
   -1.5158   -6.2625   34.4253 H   0  0  0  0  0  0  0  0  0  0  0  0
    0.1417   -7.4154   30.8657 H   0  0  0  0  0  0  0  0  0  0  0  0
   -0.4856   -5.1214   30.5176 H   0  0  0  0  0  0  0  0  0  0  0  0
    1.2636   -5.3047   30.5421 H   0  0  0  0  0  0  0  0  0  0  0  0
  1  2  1  0
  2  3  1  0
  2  4  1  0
  4  5  2  0
  5  6  1  0
  6  7  1  0
  7  8  1  0
  8  9  2  0
  9 10  1  0
 10 11  1  0
 11 12  2  0
 12 13  1  0
 13 14  2  0
 13 15  1  0
 15 16  1  0
 16 17  1  0
 17 18  1  0
 18 19  1  0
 19 20  2  0
 19 21  1  0
 21 22  1  0
  6 23  2  0
 23 24  1  0
 24  4  1  0
 12  8  1  0
 22 16  1  0
  1 25  1  0
  1 26  1  0
  1 27  1  0
  2 28  1  0
  3 29  1  0
  3 30  1  0
  7 31  1  0
  7 32  1  0
  9 33  1  0
 11 34  1  0
 15 35  1  0
 16 36  1  0
 17 37  1  0
 17 38  1  0
 18 39  1  0
 18 40  1  0
 21 41  1  0
 22 42  1  0
 22 43  1  0
M  END
>  <Energy>  (577) 
60.606736803479123

>  <compound_id>  (577) 
852

>  <target_id>  (577) 
1

>  <reference_id>  (577) 
180

>  <inspiration_ids>  (577) 
[70, 180]

>  <energy_score>  (577) 
-57.60419414565715

>  <distance_score>  (577) 
1.5799737668654348

>  <path>  (577) 
/opt/xchem-fragalysis-2/maxwin/BulkDock/SCRATCH/505733/C852-P180/C852-P180.minimised.mol

>  <scratch_subdir>  (577) 
/opt/xchem-fragalysis-2/maxwin/BulkDock/SCRATCH/505733/C852-P180

>  <fragmenstein_runtime>  (577) 
3.503535032272339

>  <fragmenstein_outcome>  (577) 
too moved

>  <fragmenstein_mode>  (577) 
expansion

>  <fragmenstein_error>  (577) 


$$$$
C853-P70
     RDKit          3D

 28 30  0  0  0  0  0  0  0  0999 V2000
   -1.0907   -8.0108   32.5756 O   0  0  0  0  0  0  0  0  0  0  0  0
   -0.4492   -7.1559   31.9730 C   0  0  0  0  0  0  0  0  0  0  0  0
   -0.6342   -6.9102   30.5142 C   0  0  0  0  0  0  0  0  0  0  0  0
   -0.3893   -5.4391   30.1878 C   0  0  0  0  0  0  0  0  0  0  0  0
    1.0250   -4.9622   30.4860 C   0  0  0  0  0  0  0  0  0  0  0  0
    1.0389   -3.5490   30.8556 N   0  0  0  0  0  0  0  0  0  0  0  0
    0.4024   -2.5473   30.1693 C   0  0  0  0  0  0  0  0  0  0  0  0
    0.5036   -2.1095   28.8791 N   0  0  0  0  0  0  0  0  0  0  0  0
   -0.2926   -0.7256   28.9296 S   0  0  0  0  0  0  0  0  0  0  0  0
   -0.9455    0.0226   27.6638 O   0  0  0  0  0  0  0  0  0  0  0  0
    0.9312    0.3240   29.2043 O   0  0  0  0  0  0  0  0  0  0  0  0
   -1.0413   -0.6977   30.3199 C   0  0  0  0  0  0  0  0  0  0  0  0
   -2.1556    0.0743   31.2298 S   0  0  0  0  0  0  0  0  0  0  0  0
   -1.8401   -1.0352   32.5030 C   0  0  0  0  0  0  0  0  0  0  0  0
   -0.9529   -1.9802   32.2520 N   0  0  0  0  0  0  0  0  0  0  0  0
   -0.5318   -1.7676   30.9663 C   0  0  0  0  0  0  0  0  0  0  0  0
    1.5674   -5.7861   31.6766 C   0  0  0  0  0  0  0  0  0  0  0  0
    0.5191   -6.3515   32.5310 N   0  0  0  0  0  0  0  0  0  0  0  0
    0.0264   -7.5566   29.9471 H   0  0  0  0  0  0  0  0  0  0  0  0
   -1.6497   -7.2110   30.2610 H   0  0  0  0  0  0  0  0  0  0  0  0
   -1.1012   -4.8350   30.7669 H   0  0  0  0  0  0  0  0  0  0  0  0
   -0.5878   -5.2551   29.1247 H   0  0  0  0  0  0  0  0  0  0  0  0
    1.6835   -5.1005   29.6222 H   0  0  0  0  0  0  0  0  0  0  0  0
    0.8366   -3.4861   31.8617 H   0  0  0  0  0  0  0  0  0  0  0  0
   -2.3484   -0.9685   33.4580 H   0  0  0  0  0  0  0  0  0  0  0  0
    2.1436   -6.6092   31.2586 H   0  0  0  0  0  0  0  0  0  0  0  0
    2.2419   -5.2059   32.3156 H   0  0  0  0  0  0  0  0  0  0  0  0
    0.8206   -6.7079   33.4316 H   0  0  0  0  0  0  0  0  0  0  0  0
  1  2  2  0
  2  3  1  0
  3  4  1  0
  4  5  1  0
  5  6  1  0
  6  7  1  0
  7  8  2  0
  8  9  1  0
  9 10  2  0
  9 11  2  0
  9 12  1  0
 12 13  1  0
 13 14  1  0
 14 15  2  0
 15 16  1  0
  5 17  1  0
 17 18  1  0
 18  2  1  0
 16  7  1  0
 16 12  2  0
  3 19  1  0
  3 20  1  0
  4 21  1  0
  4 22  1  0
  5 23  1  0
  6 24  1  0
 14 25  1  0
 17 26  1  0
 17 27  1  0
 18 28  1  0
M  END
>  <Energy>  (578) 
102.41848708981068

>  <compound_id>  (578) 
853

>  <target_id>  (578) 
1

>  <reference_id>  (578) 
70

>  <inspiration_ids>  (578) 
[70, 186]

>  <energy_score>  (578) 
-125.23732538485186

>  <distance_score>  (578) 
2.2834282797704546

>  <path>  (578) 
/opt/xchem-fragalysis-2/maxwin/BulkDock/SCRATCH/505733/C853-P70/C853-P70.minimised.mol

>  <scratch_subdir>  (578) 
/opt/xchem-fragalysis-2/maxwin/BulkDock/SCRATCH/505733/C853-P70

>  <fragmenstein_runtime>  (578) 
2.5764567852020264

>  <fragmenstein_outcome>  (578) 
too moved

>  <fragmenstein_mode>  (578) 
expansion

>  <fragmenstein_error>  (578) 


$$$$
C853-P186
     RDKit          3D

 28 30  0  0  0  0  0  0  0  0999 V2000
   -1.6609   -8.3307   31.4946 O   0  0  0  0  0  0  0  0  0  0  0  0
   -0.8012   -7.4608   31.5312 C   0  0  0  0  0  0  0  0  0  0  0  0
   -0.6339   -6.4463   32.6400 C   0  0  0  0  0  0  0  0  0  0  0  0
   -0.3858   -5.0125   32.1221 C   0  0  0  0  0  0  0  0  0  0  0  0
    0.0932   -4.9162   30.6546 C   0  0  0  0  0  0  0  0  0  0  0  0
    0.8343   -3.6985   30.2760 N   0  0  0  0  0  0  0  0  0  0  0  0
    0.1848   -2.4965   30.1051 C   0  0  0  0  0  0  0  0  0  0  0  0
    0.1975   -1.8024   28.9281 N   0  0  0  0  0  0  0  0  0  0  0  0
   -0.4035   -0.3992   29.3420 S   0  0  0  0  0  0  0  0  0  0  0  0
   -1.3100    0.4577   28.3373 O   0  0  0  0  0  0  0  0  0  0  0  0
    0.9036    0.5585   29.4453 O   0  0  0  0  0  0  0  0  0  0  0  0
   -0.9299   -0.5499   30.8198 C   0  0  0  0  0  0  0  0  0  0  0  0
   -1.7733    0.2234   31.9968 S   0  0  0  0  0  0  0  0  0  0  0  0
   -1.4947   -1.1451   32.9994 C   0  0  0  0  0  0  0  0  0  0  0  0
   -0.8071   -2.1411   32.4694 N   0  0  0  0  0  0  0  0  0  0  0  0
   -0.5198   -1.7912   31.1799 C   0  0  0  0  0  0  0  0  0  0  0  0
    0.9427   -6.1631   30.4013 C   0  0  0  0  0  0  0  0  0  0  0  0
    0.1281   -7.3513   30.5341 N   0  0  0  0  0  0  0  0  0  0  0  0
   -1.5126   -6.4674   33.2904 H   0  0  0  0  0  0  0  0  0  0  0  0
    0.2195   -6.7710   33.2483 H   0  0  0  0  0  0  0  0  0  0  0  0
    0.3288   -4.5209   32.7934 H   0  0  0  0  0  0  0  0  0  0  0  0
   -1.3295   -4.4674   32.2109 H   0  0  0  0  0  0  0  0  0  0  0  0
   -0.7717   -4.9638   29.9934 H   0  0  0  0  0  0  0  0  0  0  0  0
    1.3867   -3.8894   29.4369 H   0  0  0  0  0  0  0  0  0  0  0  0
   -1.8626   -1.1852   34.0183 H   0  0  0  0  0  0  0  0  0  0  0  0
    1.7594   -6.2110   31.1294 H   0  0  0  0  0  0  0  0  0  0  0  0
    1.3841   -6.1642   29.4012 H   0  0  0  0  0  0  0  0  0  0  0  0
    0.1024   -8.0707   29.8200 H   0  0  0  0  0  0  0  0  0  0  0  0
  1  2  2  0
  2  3  1  0
  3  4  1  0
  4  5  1  0
  5  6  1  0
  6  7  1  0
  7  8  2  0
  8  9  1  0
  9 10  2  0
  9 11  2  0
  9 12  1  0
 12 13  1  0
 13 14  1  0
 14 15  2  0
 15 16  1  0
  5 17  1  0
 17 18  1  0
 18  2  1  0
 16  7  1  0
 16 12  2  0
  3 19  1  0
  3 20  1  0
  4 21  1  0
  4 22  1  0
  5 23  1  0
  6 24  1  0
 14 25  1  0
 17 26  1  0
 17 27  1  0
 18 28  1  0
M  END
>  <Energy>  (579) 
101.19094073237201

>  <compound_id>  (579) 
853

>  <target_id>  (579) 
1

>  <reference_id>  (579) 
186

>  <inspiration_ids>  (579) 
[70, 186]

>  <energy_score>  (579) 
-126.46487174229219

>  <distance_score>  (579) 
2.1339119329853267

>  <path>  (579) 
/opt/xchem-fragalysis-2/maxwin/BulkDock/SCRATCH/505733/C853-P186/C853-P186.minimised.mol

>  <scratch_subdir>  (579) 
/opt/xchem-fragalysis-2/maxwin/BulkDock/SCRATCH/505733/C853-P186

>  <fragmenstein_runtime>  (579) 
1.7433383464813232

>  <fragmenstein_outcome>  (579) 
too moved

>  <fragmenstein_mode>  (579) 
expansion

>  <fragmenstein_error>  (579) 


$$$$
C856-P70
     RDKit          3D

 37 38  0  0  0  0  0  0  0  0999 V2000
    0.5284    2.4758   25.1502 N   0  0  0  0  0  0  0  0  0  0  0  0
   -0.8047    2.4745   25.6641 C   0  0  0  0  0  0  0  0  0  0  0  0
   -1.1410    3.8307   25.8144 O   0  0  0  0  0  0  0  0  0  0  0  0
   -1.6914    2.0980   24.6406 O   0  0  0  0  0  0  0  0  0  0  0  0
   -0.9981    1.5691   27.0992 C   0  0  0  0  0  0  0  0  0  0  0  0
   -0.3739    0.1012   27.2514 N   0  0  0  0  0  0  0  0  0  0  0  0
   -0.3478   -1.0252   28.3263 C   0  0  0  0  0  0  0  0  0  0  0  0
    0.5013   -0.9290   29.6413 C   0  0  0  0  0  0  0  0  0  0  0  0
    0.4766   -2.1856   30.5699 C   0  0  0  0  0  0  0  0  0  0  0  0
   -0.0797   -3.4408   29.9313 C   0  0  0  0  0  0  0  0  0  0  0  0
    0.3684   -4.5639   30.1364 O   0  0  0  0  0  0  0  0  0  0  0  0
   -1.1820   -3.2177   29.1426 N   0  0  0  0  0  0  0  0  0  0  0  0
   -1.5794   -1.8716   28.7125 C   0  0  0  0  0  0  0  0  0  0  0  0
   -0.2514    2.4173   28.0953 C   0  0  0  0  0  0  0  0  0  0  0  0
   -0.5917    3.6798   28.5453 C   0  0  0  0  0  0  0  0  0  0  0  0
    0.6517    4.3013   29.5281 S   0  0  0  0  0  0  0  0  0  0  0  0
    1.5402    2.8700   29.2798 C   0  0  0  0  0  0  0  0  0  0  0  0
    1.0007    1.9807   28.4883 N   0  0  0  0  0  0  0  0  0  0  0  0
   -2.4880    1.5804   27.3393 C   0  0  0  0  0  0  0  0  0  0  0  0
   -3.0855    2.7660   27.1096 F   0  0  0  0  0  0  0  0  0  0  0  0
   -2.6480    1.3081   28.6709 F   0  0  0  0  0  0  0  0  0  0  0  0
    1.1841    2.8448   25.8348 H   0  0  0  0  0  0  0  0  0  0  0  0
    0.6023    3.0010   24.2857 H   0  0  0  0  0  0  0  0  0  0  0  0
   -0.4470    4.3336   25.3632 H   0  0  0  0  0  0  0  0  0  0  0  0
   -2.3855    2.7885   24.7382 H   0  0  0  0  0  0  0  0  0  0  0  0
    0.6250    0.3026   27.0962 H   0  0  0  0  0  0  0  0  0  0  0  0
    0.2490   -1.7418   27.7389 H   0  0  0  0  0  0  0  0  0  0  0  0
    0.1613   -0.0649   30.2249 H   0  0  0  0  0  0  0  0  0  0  0  0
    1.5430   -0.7219   29.3653 H   0  0  0  0  0  0  0  0  0  0  0  0
    1.4948   -2.3895   30.9197 H   0  0  0  0  0  0  0  0  0  0  0  0
   -0.1347   -1.9705   31.4547 H   0  0  0  0  0  0  0  0  0  0  0  0
   -1.4800   -3.9865   28.5490 H   0  0  0  0  0  0  0  0  0  0  0  0
   -2.0998   -1.3905   29.5450 H   0  0  0  0  0  0  0  0  0  0  0  0
   -2.2660   -1.9633   27.8688 H   0  0  0  0  0  0  0  0  0  0  0  0
   -1.4800    4.2612   28.3302 H   0  0  0  0  0  0  0  0  0  0  0  0
    2.5115    2.7231   29.7344 H   0  0  0  0  0  0  0  0  0  0  0  0
   -2.9965    0.8169   26.7482 H   0  0  0  0  0  0  0  0  0  0  0  0
  1  2  1  0
  2  3  1  0
  2  4  1  0
  2  5  1  0
  5  6  1  0
  6  7  1  0
  7  8  1  0
  8  9  1  0
  9 10  1  0
 10 11  2  0
 10 12  1  0
 12 13  1  0
  5 14  1  0
 14 15  2  0
 15 16  1  0
 16 17  1  0
 17 18  2  0
  5 19  1  0
 19 20  1  0
 19 21  1  0
 13  7  1  0
 18 14  1  0
  1 22  1  0
  1 23  1  0
  3 24  1  0
  4 25  1  0
  6 26  1  0
  7 27  1  0
  8 28  1  0
  8 29  1  0
  9 30  1  0
  9 31  1  0
 12 32  1  0
 13 33  1  0
 13 34  1  0
 15 35  1  0
 17 36  1  0
 19 37  1  0
M  END
>  <Energy>  (580) 
74.453900880306378

>  <compound_id>  (580) 
856

>  <target_id>  (580) 
1

>  <reference_id>  (580) 
70

>  <inspiration_ids>  (580) 
[70, 189]

>  <energy_score>  (580) 
-56.36168878756354

>  <distance_score>  (580) 
4.610756046740041

>  <path>  (580) 
/opt/xchem-fragalysis-2/maxwin/BulkDock/SCRATCH/505733/C856-P70/C856-P70.minimised.mol

>  <scratch_subdir>  (580) 
/opt/xchem-fragalysis-2/maxwin/BulkDock/SCRATCH/505733/C856-P70

>  <fragmenstein_runtime>  (580) 
3.8825082778930664

>  <fragmenstein_outcome>  (580) 
too moved

>  <fragmenstein_mode>  (580) 
expansion

>  <fragmenstein_error>  (580) 


$$$$
C856-P189
     RDKit          3D

 37 38  0  0  0  0  0  0  0  0999 V2000
   -0.0463    2.8044   25.2806 N   0  0  0  0  0  0  0  0  0  0  0  0
   -1.3358    2.4532   25.8184 C   0  0  0  0  0  0  0  0  0  0  0  0
   -1.9061    3.7313   26.0219 O   0  0  0  0  0  0  0  0  0  0  0  0
   -2.1196    1.9868   24.7607 O   0  0  0  0  0  0  0  0  0  0  0  0
   -1.3570    1.4342   27.2538 C   0  0  0  0  0  0  0  0  0  0  0  0
   -0.7971   -0.0913   27.4832 N   0  0  0  0  0  0  0  0  0  0  0  0
   -0.5848   -0.9022   28.8534 C   0  0  0  0  0  0  0  0  0  0  0  0
   -1.7558   -1.5686   29.6416 C   0  0  0  0  0  0  0  0  0  0  0  0
   -1.3200   -2.4970   30.8182 C   0  0  0  0  0  0  0  0  0  0  0  0
   -0.2362   -3.5035   30.4959 C   0  0  0  0  0  0  0  0  0  0  0  0
   -0.1098   -4.6044   31.0220 O   0  0  0  0  0  0  0  0  0  0  0  0
    0.7093   -3.0346   29.6382 N   0  0  0  0  0  0  0  0  0  0  0  0
    0.3312   -2.1527   28.5516 C   0  0  0  0  0  0  0  0  0  0  0  0
   -0.5156    2.2899   28.1563 C   0  0  0  0  0  0  0  0  0  0  0  0
   -0.7675    3.5844   28.5680 C   0  0  0  0  0  0  0  0  0  0  0  0
    0.6242    4.2552   29.2884 S   0  0  0  0  0  0  0  0  0  0  0  0
    1.4556    2.7976   28.9988 C   0  0  0  0  0  0  0  0  0  0  0  0
    0.7891    1.8669   28.3672 N   0  0  0  0  0  0  0  0  0  0  0  0
   -2.8288    1.3562   27.5314 C   0  0  0  0  0  0  0  0  0  0  0  0
   -3.4965    2.5009   27.2786 F   0  0  0  0  0  0  0  0  0  0  0  0
   -2.9628    1.1019   28.8695 F   0  0  0  0  0  0  0  0  0  0  0  0
    0.6130    2.8990   26.0537 H   0  0  0  0  0  0  0  0  0  0  0  0
   -0.1498    3.7611   24.9401 H   0  0  0  0  0  0  0  0  0  0  0  0
   -2.8084    3.5836   26.3684 H   0  0  0  0  0  0  0  0  0  0  0  0
   -2.0263    2.7145   24.1175 H   0  0  0  0  0  0  0  0  0  0  0  0
    0.1585    0.0053   27.1236 H   0  0  0  0  0  0  0  0  0  0  0  0
   -0.0402   -0.2404   29.5346 H   0  0  0  0  0  0  0  0  0  0  0  0
   -2.3660   -2.1504   28.9409 H   0  0  0  0  0  0  0  0  0  0  0  0
   -2.3946   -0.7839   30.0545 H   0  0  0  0  0  0  0  0  0  0  0  0
   -0.9500   -1.8764   31.6429 H   0  0  0  0  0  0  0  0  0  0  0  0
   -2.2002   -3.0407   31.1779 H   0  0  0  0  0  0  0  0  0  0  0  0
    1.4070   -3.7356   29.4253 H   0  0  0  0  0  0  0  0  0  0  0  0
    1.2632   -1.8248   28.0825 H   0  0  0  0  0  0  0  0  0  0  0  0
   -0.2203   -2.8002   27.8759 H   0  0  0  0  0  0  0  0  0  0  0  0
   -1.6626    4.1796   28.4443 H   0  0  0  0  0  0  0  0  0  0  0  0
    2.4880    2.6679   29.2967 H   0  0  0  0  0  0  0  0  0  0  0  0
   -3.3144    0.5517   26.9691 H   0  0  0  0  0  0  0  0  0  0  0  0
  1  2  1  0
  2  3  1  0
  2  4  1  0
  2  5  1  0
  5  6  1  0
  6  7  1  0
  7  8  1  0
  8  9  1  0
  9 10  1  0
 10 11  2  0
 10 12  1  0
 12 13  1  0
  5 14  1  0
 14 15  2  0
 15 16  1  0
 16 17  1  0
 17 18  2  0
  5 19  1  0
 19 20  1  0
 19 21  1  0
 13  7  1  0
 18 14  1  0
  1 22  1  0
  1 23  1  0
  3 24  1  0
  4 25  1  0
  6 26  1  0
  7 27  1  0
  8 28  1  0
  8 29  1  0
  9 30  1  0
  9 31  1  0
 12 32  1  0
 13 33  1  0
 13 34  1  0
 15 35  1  0
 17 36  1  0
 19 37  1  0
M  END
>  <Energy>  (581) 
74.405031376396934

>  <compound_id>  (581) 
856

>  <target_id>  (581) 
1

>  <reference_id>  (581) 
189

>  <inspiration_ids>  (581) 
[70, 189]

>  <energy_score>  (581) 
-56.410558291473194

>  <distance_score>  (581) 
4.483031514093623

>  <path>  (581) 
/opt/xchem-fragalysis-2/maxwin/BulkDock/SCRATCH/505733/C856-P189/C856-P189.minimised.mol

>  <scratch_subdir>  (581) 
/opt/xchem-fragalysis-2/maxwin/BulkDock/SCRATCH/505733/C856-P189

>  <fragmenstein_runtime>  (581) 
3.003122568130493

>  <fragmenstein_outcome>  (581) 
too moved

>  <fragmenstein_mode>  (581) 
expansion

>  <fragmenstein_error>  (581) 


$$$$
C857-P70
     RDKit          3D

 28 29  0  0  0  0  0  0  0  0999 V2000
   -0.7955    3.7329   28.5487 N   0  0  0  0  0  0  0  0  0  0  0  0
   -1.2485    3.3448   27.3407 C   0  0  0  0  0  0  0  0  0  0  0  0
   -2.1548    4.3700   26.3626 S   0  0  0  0  0  0  0  0  0  0  0  0
   -2.3695    3.1303   25.2276 C   0  0  0  0  0  0  0  0  0  0  0  0
   -1.7869    1.9843   25.4944 N   0  0  0  0  0  0  0  0  0  0  0  0
   -1.1289    2.1159   26.7181 C   0  0  0  0  0  0  0  0  0  0  0  0
   -0.5317    0.9889   27.4135 C   0  0  0  0  0  0  0  0  0  0  0  0
    0.5502    0.6279   27.1982 O   0  0  0  0  0  0  0  0  0  0  0  0
   -1.5415    0.5238   28.4624 N   0  0  0  0  0  0  0  0  0  0  0  0
   -1.4057   -0.4141   29.5264 C   0  0  0  0  0  0  0  0  0  0  0  0
   -0.2232   -0.0179   30.3954 C   0  0  0  0  0  0  0  0  0  0  0  0
   -0.1297   -0.9420   31.5880 C   0  0  0  0  0  0  0  0  0  0  0  0
   -0.2204   -2.4062   31.2264 C   0  0  0  0  0  0  0  0  0  0  0  0
    0.2563   -3.2880   31.9358 O   0  0  0  0  0  0  0  0  0  0  0  0
   -0.9698   -2.7467   30.1334 N   0  0  0  0  0  0  0  0  0  0  0  0
   -1.1736   -1.8361   29.0289 C   0  0  0  0  0  0  0  0  0  0  0  0
    0.1187    3.4145   28.8619 H   0  0  0  0  0  0  0  0  0  0  0  0
   -0.9863    4.6947   28.8486 H   0  0  0  0  0  0  0  0  0  0  0  0
   -2.9540    3.3006   24.3323 H   0  0  0  0  0  0  0  0  0  0  0  0
   -2.3668    1.1149   28.4234 H   0  0  0  0  0  0  0  0  0  0  0  0
   -2.3258   -0.3630   30.1191 H   0  0  0  0  0  0  0  0  0  0  0  0
   -0.3217    1.0183   30.7407 H   0  0  0  0  0  0  0  0  0  0  0  0
    0.7130   -0.0674   29.8243 H   0  0  0  0  0  0  0  0  0  0  0  0
   -0.9409   -0.7304   32.2946 H   0  0  0  0  0  0  0  0  0  0  0  0
    0.8199   -0.7718   32.1071 H   0  0  0  0  0  0  0  0  0  0  0  0
   -0.8833   -3.7292   29.9021 H   0  0  0  0  0  0  0  0  0  0  0  0
   -0.2873   -1.8969   28.3862 H   0  0  0  0  0  0  0  0  0  0  0  0
   -2.0279   -2.1917   28.4483 H   0  0  0  0  0  0  0  0  0  0  0  0
  1  2  1  0
  2  3  1  0
  3  4  1  0
  4  5  2  0
  5  6  1  0
  6  7  1  0
  7  8  2  0
  7  9  1  0
  9 10  1  0
 10 11  1  0
 11 12  1  0
 12 13  1  0
 13 14  2  0
 13 15  1  0
 15 16  1  0
  6  2  2  0
 16 10  1  0
  1 17  1  0
  1 18  1  0
  4 19  1  0
  9 20  1  0
 10 21  1  0
 11 22  1  0
 11 23  1  0
 12 24  1  0
 12 25  1  0
 15 26  1  0
 16 27  1  0
 16 28  1  0
M  END
>  <Energy>  (582) 
41.980938333589378

>  <compound_id>  (582) 
857

>  <target_id>  (582) 
1

>  <reference_id>  (582) 
70

>  <inspiration_ids>  (582) 
[70, 190]

>  <energy_score>  (582) 
-63.81196958364484

>  <distance_score>  (582) 
2.9899674063274775

>  <path>  (582) 
/opt/xchem-fragalysis-2/maxwin/BulkDock/SCRATCH/505733/C857-P70/C857-P70.minimised.mol

>  <scratch_subdir>  (582) 
/opt/xchem-fragalysis-2/maxwin/BulkDock/SCRATCH/505733/C857-P70

>  <fragmenstein_runtime>  (582) 
1.9178643226623535

>  <fragmenstein_outcome>  (582) 
too moved

>  <fragmenstein_mode>  (582) 
expansion

>  <fragmenstein_error>  (582) 


$$$$
C857-P190
     RDKit          3D

 28 29  0  0  0  0  0  0  0  0999 V2000
   -3.0400    2.4246   27.3205 N   0  0  0  0  0  0  0  0  0  0  0  0
   -1.9429    2.7402   26.6051 C   0  0  0  0  0  0  0  0  0  0  0  0
   -2.1027    3.5947   25.1515 S   0  0  0  0  0  0  0  0  0  0  0  0
   -0.4091    3.6275   25.0066 C   0  0  0  0  0  0  0  0  0  0  0  0
    0.2635    2.9420   25.8970 N   0  0  0  0  0  0  0  0  0  0  0  0
   -0.6144    2.4144   26.8312 C   0  0  0  0  0  0  0  0  0  0  0  0
   -0.1376    1.5237   27.8990 C   0  0  0  0  0  0  0  0  0  0  0  0
    0.8222    1.7787   28.5079 O   0  0  0  0  0  0  0  0  0  0  0  0
   -1.1211    0.3468   28.0334 N   0  0  0  0  0  0  0  0  0  0  0  0
   -1.1839   -0.7063   28.9999 C   0  0  0  0  0  0  0  0  0  0  0  0
   -1.4303   -0.0730   30.3590 C   0  0  0  0  0  0  0  0  0  0  0  0
   -1.5318   -1.1170   31.4425 C   0  0  0  0  0  0  0  0  0  0  0  0
   -0.4115   -2.1209   31.4167 C   0  0  0  0  0  0  0  0  0  0  0  0
   -0.0406   -2.7162   32.4239 O   0  0  0  0  0  0  0  0  0  0  0  0
    0.0838   -2.4620   30.1921 N   0  0  0  0  0  0  0  0  0  0  0  0
    0.0826   -1.5478   29.0691 C   0  0  0  0  0  0  0  0  0  0  0  0
   -3.8952    2.8809   26.9947 H   0  0  0  0  0  0  0  0  0  0  0  0
   -3.0018    2.6635   28.3162 H   0  0  0  0  0  0  0  0  0  0  0  0
    0.0815    4.1582   24.2002 H   0  0  0  0  0  0  0  0  0  0  0  0
   -1.8993    0.4790   27.3896 H   0  0  0  0  0  0  0  0  0  0  0  0
   -2.0254   -1.3476   28.7209 H   0  0  0  0  0  0  0  0  0  0  0  0
   -2.3491    0.5205   30.3416 H   0  0  0  0  0  0  0  0  0  0  0  0
   -0.6182    0.6224   30.6098 H   0  0  0  0  0  0  0  0  0  0  0  0
   -2.4703   -1.6750   31.3488 H   0  0  0  0  0  0  0  0  0  0  0  0
   -1.5344   -0.6249   32.4215 H   0  0  0  0  0  0  0  0  0  0  0  0
    0.8580   -3.1131   30.2539 H   0  0  0  0  0  0  0  0  0  0  0  0
    0.2107   -2.1425   28.1633 H   0  0  0  0  0  0  0  0  0  0  0  0
    0.9725   -0.9168   29.1754 H   0  0  0  0  0  0  0  0  0  0  0  0
  1  2  1  0
  2  3  1  0
  3  4  1  0
  4  5  2  0
  5  6  1  0
  6  7  1  0
  7  8  2  0
  7  9  1  0
  9 10  1  0
 10 11  1  0
 11 12  1  0
 12 13  1  0
 13 14  2  0
 13 15  1  0
 15 16  1  0
  6  2  2  0
 16 10  1  0
  1 17  1  0
  1 18  1  0
  4 19  1  0
  9 20  1  0
 10 21  1  0
 11 22  1  0
 11 23  1  0
 12 24  1  0
 12 25  1  0
 15 26  1  0
 16 27  1  0
 16 28  1  0
M  END
>  <Energy>  (583) 
40.257874100185603

>  <compound_id>  (583) 
857

>  <target_id>  (583) 
1

>  <reference_id>  (583) 
190

>  <inspiration_ids>  (583) 
[70, 190]

>  <energy_score>  (583) 
-65.53503381704837

>  <distance_score>  (583) 
3.2949789399706946

>  <path>  (583) 
/opt/xchem-fragalysis-2/maxwin/BulkDock/SCRATCH/505733/C857-P190/C857-P190.minimised.mol

>  <scratch_subdir>  (583) 
/opt/xchem-fragalysis-2/maxwin/BulkDock/SCRATCH/505733/C857-P190

>  <fragmenstein_runtime>  (583) 
2.2939341068267822

>  <fragmenstein_outcome>  (583) 
too moved

>  <fragmenstein_mode>  (583) 
expansion

>  <fragmenstein_error>  (583) 


$$$$
C858-P70
     RDKit          3D

 30 31  0  0  0  0  0  0  0  0999 V2000
    1.1862   -5.4759   30.5447 C   0  0  0  0  0  0  0  0  0  0  0  0
    0.5644   -4.4274   31.4014 C   0  0  0  0  0  0  0  0  0  0  0  0
    0.0219   -4.6657   32.6487 C   0  0  0  0  0  0  0  0  0  0  0  0
   -0.6149   -3.2652   33.3830 S   0  0  0  0  0  0  0  0  0  0  0  0
   -0.1475   -2.3047   32.0678 C   0  0  0  0  0  0  0  0  0  0  0  0
    0.4378   -3.0418   31.0499 C   0  0  0  0  0  0  0  0  0  0  0  0
    0.8632   -2.4111   29.8029 C   0  0  0  0  0  0  0  0  0  0  0  0
    1.9269   -2.5590   29.3598 O   0  0  0  0  0  0  0  0  0  0  0  0
   -0.2882   -1.5163   29.3411 N   0  0  0  0  0  0  0  0  0  0  0  0
   -0.3472   -0.5419   28.2927 C   0  0  0  0  0  0  0  0  0  0  0  0
   -1.7644    0.0142   28.2651 C   0  0  0  0  0  0  0  0  0  0  0  0
   -1.9032    1.1459   27.2767 C   0  0  0  0  0  0  0  0  0  0  0  0
   -0.8587    2.2045   27.4828 C   0  0  0  0  0  0  0  0  0  0  0  0
   -1.0932    3.3949   27.3279 O   0  0  0  0  0  0  0  0  0  0  0  0
    0.4080    1.7623   27.7513 N   0  0  0  0  0  0  0  0  0  0  0  0
    0.6553    0.5823   28.5465 C   0  0  0  0  0  0  0  0  0  0  0  0
    0.7770   -5.4336   29.5304 H   0  0  0  0  0  0  0  0  0  0  0  0
    0.9895   -6.4766   30.9409 H   0  0  0  0  0  0  0  0  0  0  0  0
    2.2701   -5.3334   30.4930 H   0  0  0  0  0  0  0  0  0  0  0  0
   -0.0269   -5.6116   33.1733 H   0  0  0  0  0  0  0  0  0  0  0  0
   -0.3173   -1.2372   32.1059 H   0  0  0  0  0  0  0  0  0  0  0  0
   -1.0465   -1.5719   30.0075 H   0  0  0  0  0  0  0  0  0  0  0  0
   -0.0994   -1.0423   27.3561 H   0  0  0  0  0  0  0  0  0  0  0  0
   -2.0462    0.3718   29.2651 H   0  0  0  0  0  0  0  0  0  0  0  0
   -2.4609   -0.7897   28.0035 H   0  0  0  0  0  0  0  0  0  0  0  0
   -2.8863    1.6167   27.3704 H   0  0  0  0  0  0  0  0  0  0  0  0
   -1.8170    0.7757   26.2539 H   0  0  0  0  0  0  0  0  0  0  0  0
    1.0516    2.5368   27.8750 H   0  0  0  0  0  0  0  0  0  0  0  0
    1.6802    0.2513   28.3477 H   0  0  0  0  0  0  0  0  0  0  0  0
    0.6143    0.9010   29.5959 H   0  0  0  0  0  0  0  0  0  0  0  0
  1  2  1  0
  2  3  2  0
  3  4  1  0
  4  5  1  0
  5  6  2  0
  6  7  1  0
  7  8  2  0
  7  9  1  0
  9 10  1  0
 10 11  1  0
 11 12  1  0
 12 13  1  0
 13 14  2  0
 13 15  1  0
 15 16  1  0
  6  2  1  0
 16 10  1  0
  1 17  1  0
  1 18  1  0
  1 19  1  0
  3 20  1  0
  5 21  1  0
  9 22  1  0
 10 23  1  0
 11 24  1  0
 11 25  1  0
 12 26  1  0
 12 27  1  0
 15 28  1  0
 16 29  1  0
 16 30  1  0
M  END
>  <Energy>  (584) 
2.9201282038200107

>  <compound_id>  (584) 
858

>  <target_id>  (584) 
1

>  <reference_id>  (584) 
70

>  <inspiration_ids>  (584) 
[70, 194]

>  <energy_score>  (584) 
-29.158496368582206

>  <distance_score>  (584) 
2.343421874883085

>  <path>  (584) 
/opt/xchem-fragalysis-2/maxwin/BulkDock/SCRATCH/505733/C858-P70/C858-P70.minimised.mol

>  <scratch_subdir>  (584) 
/opt/xchem-fragalysis-2/maxwin/BulkDock/SCRATCH/505733/C858-P70

>  <fragmenstein_runtime>  (584) 
1.9642634391784668

>  <fragmenstein_outcome>  (584) 
too moved

>  <fragmenstein_mode>  (584) 
expansion

>  <fragmenstein_error>  (584) 


$$$$
C858-P194
     RDKit          3D

 30 31  0  0  0  0  0  0  0  0999 V2000
    1.9608   -4.9301   30.2149 C   0  0  0  0  0  0  0  0  0  0  0  0
    0.8159   -4.2313   30.8547 C   0  0  0  0  0  0  0  0  0  0  0  0
   -0.1882   -4.8821   31.5431 C   0  0  0  0  0  0  0  0  0  0  0  0
   -1.3476   -3.8190   32.1846 S   0  0  0  0  0  0  0  0  0  0  0  0
   -0.5333   -2.4719   31.5797 C   0  0  0  0  0  0  0  0  0  0  0  0
    0.6132   -2.8064   30.8729 C   0  0  0  0  0  0  0  0  0  0  0  0
    1.4921   -1.7576   30.3440 C   0  0  0  0  0  0  0  0  0  0  0  0
    2.6474   -1.8068   30.4600 O   0  0  0  0  0  0  0  0  0  0  0  0
    0.5991   -0.6576   29.7684 N   0  0  0  0  0  0  0  0  0  0  0  0
    0.9258    0.6590   29.2978 C   0  0  0  0  0  0  0  0  0  0  0  0
    0.9280    0.7087   27.7712 C   0  0  0  0  0  0  0  0  0  0  0  0
    0.2061    1.9490   27.2455 C   0  0  0  0  0  0  0  0  0  0  0  0
   -1.2160    1.9348   27.7271 C   0  0  0  0  0  0  0  0  0  0  0  0
   -2.1694    2.3180   27.0711 O   0  0  0  0  0  0  0  0  0  0  0  0
   -1.3418    1.4959   29.0199 N   0  0  0  0  0  0  0  0  0  0  0  0
   -0.1636    1.5737   29.8645 C   0  0  0  0  0  0  0  0  0  0  0  0
    2.8241   -4.9373   30.8871 H   0  0  0  0  0  0  0  0  0  0  0  0
    2.2511   -4.4364   29.2818 H   0  0  0  0  0  0  0  0  0  0  0  0
    1.7017   -5.9644   29.9698 H   0  0  0  0  0  0  0  0  0  0  0  0
   -0.2889   -5.9465   31.7093 H   0  0  0  0  0  0  0  0  0  0  0  0
   -0.9108   -1.4849   31.8115 H   0  0  0  0  0  0  0  0  0  0  0  0
   -0.3629   -0.9801   29.7456 H   0  0  0  0  0  0  0  0  0  0  0  0
    1.9058    0.9285   29.7049 H   0  0  0  0  0  0  0  0  0  0  0  0
    1.9607    0.6931   27.4042 H   0  0  0  0  0  0  0  0  0  0  0  0
    0.4397   -0.1861   27.3690 H   0  0  0  0  0  0  0  0  0  0  0  0
    0.6929    2.8672   27.5944 H   0  0  0  0  0  0  0  0  0  0  0  0
    0.2049    1.9920   26.1585 H   0  0  0  0  0  0  0  0  0  0  0  0
   -2.2824    1.6516   29.3663 H   0  0  0  0  0  0  0  0  0  0  0  0
   -0.4507    1.2881   30.8825 H   0  0  0  0  0  0  0  0  0  0  0  0
    0.1748    2.6164   29.8869 H   0  0  0  0  0  0  0  0  0  0  0  0
  1  2  1  0
  2  3  2  0
  3  4  1  0
  4  5  1  0
  5  6  2  0
  6  7  1  0
  7  8  2  0
  7  9  1  0
  9 10  1  0
 10 11  1  0
 11 12  1  0
 12 13  1  0
 13 14  2  0
 13 15  1  0
 15 16  1  0
  6  2  1  0
 16 10  1  0
  1 17  1  0
  1 18  1  0
  1 19  1  0
  3 20  1  0
  5 21  1  0
  9 22  1  0
 10 23  1  0
 11 24  1  0
 11 25  1  0
 12 26  1  0
 12 27  1  0
 15 28  1  0
 16 29  1  0
 16 30  1  0
M  END
>  <Energy>  (585) 
5.8706417266938145

>  <compound_id>  (585) 
858

>  <target_id>  (585) 
1

>  <reference_id>  (585) 
194

>  <inspiration_ids>  (585) 
[70, 194]

>  <energy_score>  (585) 
-26.207982845708784

>  <distance_score>  (585) 
2.725189586726445

>  <path>  (585) 
/opt/xchem-fragalysis-2/maxwin/BulkDock/SCRATCH/505733/C858-P194/C858-P194.minimised.mol

>  <scratch_subdir>  (585) 
/opt/xchem-fragalysis-2/maxwin/BulkDock/SCRATCH/505733/C858-P194

>  <fragmenstein_runtime>  (585) 
2.445687770843506

>  <fragmenstein_outcome>  (585) 
too moved

>  <fragmenstein_mode>  (585) 
expansion

>  <fragmenstein_error>  (585) 


$$$$
C862-P70
     RDKit          3D

 59 61  0  0  0  0  0  0  0  0999 V2000
   -4.0395    2.3597   26.3545 C   0  0  0  0  0  0  0  0  0  0  0  0
   -2.6853    2.9847   26.0872 C   0  0  0  0  0  0  0  0  0  0  0  0
   -2.3840    4.1729   27.0141 C   0  0  0  0  0  0  0  0  0  0  0  0
   -1.2720    3.8631   27.9961 C   0  0  0  0  0  0  0  0  0  0  0  0
   -1.4258    2.4329   28.4614 C   0  0  0  0  0  0  0  0  0  0  0  0
   -1.2098    1.3820   27.4927 N   0  0  0  0  0  0  0  0  0  0  0  0
   -1.5510   -0.2548   28.0571 S   0  0  0  0  0  0  0  0  0  0  0  0
   -0.1950   -1.3160   27.7123 C   0  0  0  0  0  0  0  0  0  0  0  0
   -2.6160   -0.6775   27.1887 O   0  0  0  0  0  0  0  0  0  0  0  0
   -1.6209   -0.0781   29.5677 N   0  0  0  0  0  0  0  0  0  0  0  0
   -1.8503   -1.0189   30.6370 C   0  0  0  0  0  0  0  0  0  0  0  0
   -1.3894   -2.3908   30.5517 N   0  0  0  0  0  0  0  0  0  0  0  0
   -0.3128   -2.7079   31.0015 C   0  0  0  0  0  0  0  0  0  0  0  0
    1.0160   -1.8927   31.1300 N   0  0  0  0  0  0  0  0  0  0  0  0
    1.3499   -0.5935   30.6701 C   0  0  0  0  0  0  0  0  0  0  0  0
    1.4506    0.6174   31.5357 C   0  0  0  0  0  0  0  0  0  0  0  0
    1.5839    1.8546   30.5999 C   0  0  0  0  0  0  0  0  0  0  0  0
    1.7163    1.5834   29.0811 C   0  0  0  0  0  0  0  0  0  0  0  0
    1.3847    2.3748   28.2087 O   0  0  0  0  0  0  0  0  0  0  0  0
    2.3004    0.4056   28.7125 N   0  0  0  0  0  0  0  0  0  0  0  0
    2.4922   -0.6535   29.6626 C   0  0  0  0  0  0  0  0  0  0  0  0
   -0.0853   -4.0771   31.4344 C   0  0  0  0  0  0  0  0  0  0  0  0
   -0.2128   -5.1408   30.5605 C   0  0  0  0  0  0  0  0  0  0  0  0
    0.0002   -6.6073   31.3938 S   0  0  0  0  0  0  0  0  0  0  0  0
    0.4898   -5.7248   32.7797 C   0  0  0  0  0  0  0  0  0  0  0  0
    0.4127   -4.4141   32.6897 N   0  0  0  0  0  0  0  0  0  0  0  0
   -1.5568    1.9339   26.1685 C   0  0  0  0  0  0  0  0  0  0  0  0
   -0.3211    2.5279   25.4341 C   0  0  0  0  0  0  0  0  0  0  0  0
   -0.1338    3.9259   25.4847 O   0  0  0  0  0  0  0  0  0  0  0  0
   -4.1013    1.3610   25.9401 H   0  0  0  0  0  0  0  0  0  0  0  0
   -4.8493    2.9506   25.9238 H   0  0  0  0  0  0  0  0  0  0  0  0
   -4.2217    2.2359   27.4058 H   0  0  0  0  0  0  0  0  0  0  0  0
   -2.7393    3.3581   25.0551 H   0  0  0  0  0  0  0  0  0  0  0  0
   -3.2578    4.4227   27.6063 H   0  0  0  0  0  0  0  0  0  0  0  0
   -2.1359    5.0708   26.4390 H   0  0  0  0  0  0  0  0  0  0  0  0
   -0.2706    4.0512   27.6154 H   0  0  0  0  0  0  0  0  0  0  0  0
   -1.3192    4.5542   28.8201 H   0  0  0  0  0  0  0  0  0  0  0  0
   -0.7530    2.2752   29.2959 H   0  0  0  0  0  0  0  0  0  0  0  0
   -2.4500    2.3027   28.8046 H   0  0  0  0  0  0  0  0  0  0  0  0
    0.4681   -0.8432   26.9993 H   0  0  0  0  0  0  0  0  0  0  0  0
    0.3676   -1.5722   28.5880 H   0  0  0  0  0  0  0  0  0  0  0  0
   -0.5967   -2.2716   27.3904 H   0  0  0  0  0  0  0  0  0  0  0  0
   -2.9132   -1.0418   30.8708 H   0  0  0  0  0  0  0  0  0  0  0  0
   -1.4424   -0.5590   31.5488 H   0  0  0  0  0  0  0  0  0  0  0  0
    1.7056   -2.4472   31.6356 H   0  0  0  0  0  0  0  0  0  0  0  0
    0.4964   -0.3336   30.0789 H   0  0  0  0  0  0  0  0  0  0  0  0
    2.3210    0.5550   32.1992 H   0  0  0  0  0  0  0  0  0  0  0  0
    0.5736    0.7294   32.1829 H   0  0  0  0  0  0  0  0  0  0  0  0
    0.7255    2.5126   30.7649 H   0  0  0  0  0  0  0  0  0  0  0  0
    2.4715    2.4266   30.8969 H   0  0  0  0  0  0  0  0  0  0  0  0
    2.4357    0.2629   27.7161 H   0  0  0  0  0  0  0  0  0  0  0  0
    2.5300   -1.5966   29.1073 H   0  0  0  0  0  0  0  0  0  0  0  0
    3.4655   -0.5150   30.1464 H   0  0  0  0  0  0  0  0  0  0  0  0
   -0.4697   -5.1074   29.5109 H   0  0  0  0  0  0  0  0  0  0  0  0
    0.8372   -6.2296   33.6714 H   0  0  0  0  0  0  0  0  0  0  0  0
   -1.8817    1.0634   25.6283 H   0  0  0  0  0  0  0  0  0  0  0  0
   -0.4181    2.3149   24.3656 H   0  0  0  0  0  0  0  0  0  0  0  0
    0.6052    2.0616   25.7776 H   0  0  0  0  0  0  0  0  0  0  0  0
   -0.7582    4.3575   24.8789 H   0  0  0  0  0  0  0  0  0  0  0  0
  1  2  1  0
  2  3  1  0
  3  4  1  0
  4  5  1  0
  5  6  1  0
  6  7  1  0
  7  8  1  0
  7  9  2  0
  7 10  2  0
 10 11  1  0
 11 12  1  0
 12 13  2  3
 13 14  1  0
 14 15  1  0
 15 16  1  0
 16 17  1  0
 17 18  1  0
 18 19  2  0
 18 20  1  0
 20 21  1  0
 13 22  1  0
 22 23  2  0
 23 24  1  0
 24 25  1  0
 25 26  2  0
  6 27  1  0
 27 28  1  0
 28 29  1  0
 27  2  1  0
 21 15  1  0
 26 22  1  0
  1 30  1  0
  1 31  1  0
  1 32  1  0
  2 33  1  0
  3 34  1  0
  3 35  1  0
  4 36  1  0
  4 37  1  0
  5 38  1  0
  5 39  1  0
  8 40  1  0
  8 41  1  0
  8 42  1  0
 11 43  1  0
 11 44  1  0
 14 45  1  0
 15 46  1  0
 16 47  1  0
 16 48  1  0
 17 49  1  0
 17 50  1  0
 20 51  1  0
 21 52  1  0
 21 53  1  0
 23 54  1  0
 25 55  1  0
 27 56  1  0
 28 57  1  0
 28 58  1  0
 29 59  1  0
M  END
>  <Energy>  (586) 
-6.2026189826239264

>  <compound_id>  (586) 
862

>  <target_id>  (586) 
1

>  <reference_id>  (586) 
70

>  <inspiration_ids>  (586) 
[70, 198]

>  <energy_score>  (586) 
-40.844046381101634

>  <distance_score>  (586) 
2.6615117661972993

>  <path>  (586) 
/opt/xchem-fragalysis-2/maxwin/BulkDock/SCRATCH/505733/C862-P70/C862-P70.minimised.mol

>  <scratch_subdir>  (586) 
/opt/xchem-fragalysis-2/maxwin/BulkDock/SCRATCH/505733/C862-P70

>  <fragmenstein_runtime>  (586) 
9.223409652709961

>  <fragmenstein_outcome>  (586) 
too moved

>  <fragmenstein_mode>  (586) 
expansion

>  <fragmenstein_error>  (586) 


$$$$
C862-P198
     RDKit          3D

 59 61  0  0  0  0  0  0  0  0999 V2000
    1.8877    5.1063   26.9564 C   0  0  0  0  0  0  0  0  0  0  0  0
    0.7907    5.2107   28.0109 C   0  0  0  0  0  0  0  0  0  0  0  0
    1.3760    5.6483   29.3657 C   0  0  0  0  0  0  0  0  0  0  0  0
    1.9920    4.4847   30.1366 C   0  0  0  0  0  0  0  0  0  0  0  0
    1.0474    3.2823   30.2061 C   0  0  0  0  0  0  0  0  0  0  0  0
    0.6504    2.8176   28.8788 N   0  0  0  0  0  0  0  0  0  0  0  0
    1.4276    1.4345   28.2319 S   0  0  0  0  0  0  0  0  0  0  0  0
    3.0380    1.8692   27.6418 C   0  0  0  0  0  0  0  0  0  0  0  0
    0.6282    1.0918   27.0838 O   0  0  0  0  0  0  0  0  0  0  0  0
    1.5732    0.4412   29.4221 N   0  0  0  0  0  0  0  0  0  0  0  0
    2.2296   -0.8549   29.1524 C   0  0  0  0  0  0  0  0  0  0  0  0
    2.1507   -1.8581   30.2146 N   0  0  0  0  0  0  0  0  0  0  0  0
    1.1438   -2.4015   30.5905 C   0  0  0  0  0  0  0  0  0  0  0  0
   -0.3416   -2.1404   30.2237 N   0  0  0  0  0  0  0  0  0  0  0  0
   -0.9146   -1.2596   29.2818 C   0  0  0  0  0  0  0  0  0  0  0  0
   -1.6601   -0.1189   29.9248 C   0  0  0  0  0  0  0  0  0  0  0  0
   -2.0226    0.8674   28.8299 C   0  0  0  0  0  0  0  0  0  0  0  0
   -2.2286    0.3100   27.4302 C   0  0  0  0  0  0  0  0  0  0  0  0
   -2.4344    1.0301   26.4583 O   0  0  0  0  0  0  0  0  0  0  0  0
   -2.2094   -1.0403   27.2795 N   0  0  0  0  0  0  0  0  0  0  0  0
   -1.8185   -1.9582   28.3141 C   0  0  0  0  0  0  0  0  0  0  0  0
    1.1473   -3.5822   31.4716 C   0  0  0  0  0  0  0  0  0  0  0  0
    2.2535   -4.3459   31.7865 C   0  0  0  0  0  0  0  0  0  0  0  0
    1.7953   -5.6913   32.7472 S   0  0  0  0  0  0  0  0  0  0  0  0
    0.1698   -5.1858   32.6873 C   0  0  0  0  0  0  0  0  0  0  0  0
   -0.0666   -4.1137   31.9691 N   0  0  0  0  0  0  0  0  0  0  0  0
   -0.0826    3.9343   28.1988 C   0  0  0  0  0  0  0  0  0  0  0  0
   -1.0688    3.7299   27.0287 C   0  0  0  0  0  0  0  0  0  0  0  0
   -0.4940    3.0412   25.9495 O   0  0  0  0  0  0  0  0  0  0  0  0
    1.5332    4.6328   26.0379 H   0  0  0  0  0  0  0  0  0  0  0  0
    2.7593    4.5647   27.3246 H   0  0  0  0  0  0  0  0  0  0  0  0
    2.2401    6.1093   26.6884 H   0  0  0  0  0  0  0  0  0  0  0  0
    0.1271    6.0239   27.6845 H   0  0  0  0  0  0  0  0  0  0  0  0
    2.1163    6.4459   29.2324 H   0  0  0  0  0  0  0  0  0  0  0  0
    0.5685    6.0767   29.9735 H   0  0  0  0  0  0  0  0  0  0  0  0
    2.9399    4.1922   29.6729 H   0  0  0  0  0  0  0  0  0  0  0  0
    2.2343    4.8151   31.1535 H   0  0  0  0  0  0  0  0  0  0  0  0
    0.1617    3.5467   30.7957 H   0  0  0  0  0  0  0  0  0  0  0  0
    1.5401    2.5006   30.7930 H   0  0  0  0  0  0  0  0  0  0  0  0
    3.6070    2.3492   28.4373 H   0  0  0  0  0  0  0  0  0  0  0  0
    3.5470    0.9590   27.3169 H   0  0  0  0  0  0  0  0  0  0  0  0
    2.9319    2.5179   26.7736 H   0  0  0  0  0  0  0  0  0  0  0  0
    3.2979   -0.6630   28.9962 H   0  0  0  0  0  0  0  0  0  0  0  0
    1.8765   -1.2973   28.2128 H   0  0  0  0  0  0  0  0  0  0  0  0
   -0.9405   -2.7357   30.7950 H   0  0  0  0  0  0  0  0  0  0  0  0
   -0.1346   -0.8751   28.6447 H   0  0  0  0  0  0  0  0  0  0  0  0
   -2.5638   -0.4816   30.4288 H   0  0  0  0  0  0  0  0  0  0  0  0
   -1.0609    0.3780   30.6966 H   0  0  0  0  0  0  0  0  0  0  0  0
   -2.8814    1.4581   29.1110 H   0  0  0  0  0  0  0  0  0  0  0  0
   -1.2301    1.5835   28.7575 H   0  0  0  0  0  0  0  0  0  0  0  0
   -2.1872   -1.3445   26.3056 H   0  0  0  0  0  0  0  0  0  0  0  0
   -2.7087   -2.3438   28.8041 H   0  0  0  0  0  0  0  0  0  0  0  0
   -1.2838   -2.7959   27.8660 H   0  0  0  0  0  0  0  0  0  0  0  0
    3.2817   -4.1714   31.5024 H   0  0  0  0  0  0  0  0  0  0  0  0
   -0.6183   -5.7220   33.2013 H   0  0  0  0  0  0  0  0  0  0  0  0
   -0.8061    4.2475   28.9623 H   0  0  0  0  0  0  0  0  0  0  0  0
   -1.4108    4.7003   26.6518 H   0  0  0  0  0  0  0  0  0  0  0  0
   -1.9728    3.2167   27.3617 H   0  0  0  0  0  0  0  0  0  0  0  0
   -0.4523    2.1035   26.2400 H   0  0  0  0  0  0  0  0  0  0  0  0
  1  2  1  0
  2  3  1  0
  3  4  1  0
  4  5  1  0
  5  6  1  0
  6  7  1  0
  7  8  1  0
  7  9  2  0
  7 10  2  0
 10 11  1  0
 11 12  1  0
 12 13  2  3
 13 14  1  0
 14 15  1  0
 15 16  1  0
 16 17  1  0
 17 18  1  0
 18 19  2  0
 18 20  1  0
 20 21  1  0
 13 22  1  0
 22 23  2  0
 23 24  1  0
 24 25  1  0
 25 26  2  0
  6 27  1  0
 27 28  1  0
 28 29  1  0
 27  2  1  0
 21 15  1  0
 26 22  1  0
  1 30  1  0
  1 31  1  0
  1 32  1  0
  2 33  1  0
  3 34  1  0
  3 35  1  0
  4 36  1  0
  4 37  1  0
  5 38  1  0
  5 39  1  0
  8 40  1  0
  8 41  1  0
  8 42  1  0
 11 43  1  0
 11 44  1  0
 14 45  1  0
 15 46  1  0
 16 47  1  0
 16 48  1  0
 17 49  1  0
 17 50  1  0
 20 51  1  0
 21 52  1  0
 21 53  1  0
 23 54  1  0
 25 55  1  0
 27 56  1  0
 28 57  1  0
 28 58  1  0
 29 59  1  0
M  END
>  <Energy>  (587) 
-63.788015890557617

>  <compound_id>  (587) 
862

>  <target_id>  (587) 
1

>  <reference_id>  (587) 
198

>  <inspiration_ids>  (587) 
[70, 198]

>  <energy_score>  (587) 
-98.42944328903752

>  <distance_score>  (587) 
2.3674626317621033

>  <path>  (587) 
/opt/xchem-fragalysis-2/maxwin/BulkDock/SCRATCH/505733/C862-P198/C862-P198.minimised.mol

>  <scratch_subdir>  (587) 
/opt/xchem-fragalysis-2/maxwin/BulkDock/SCRATCH/505733/C862-P198

>  <fragmenstein_runtime>  (587) 
13.286285877227783

>  <fragmenstein_outcome>  (587) 
too moved

>  <fragmenstein_mode>  (587) 
expansion

>  <fragmenstein_error>  (587) 


$$$$
C866-P71
     RDKit          3D

 49 50  0  0  0  0  0  0  0  0999 V2000
   16.7046   -3.2445   15.6851 C   0  0  0  0  0  0  0  0  0  0  0  0
   16.4499   -1.7403   15.7422 C   0  0  0  0  0  0  0  0  0  0  0  0
   15.0096   -1.3167   15.9967 C   0  0  0  0  0  0  0  0  0  0  0  0
   14.6886   -1.9310   17.3811 C   0  0  0  0  0  0  0  0  0  0  0  0
   14.9675   -1.0991   18.6094 C   0  0  0  0  0  0  0  0  0  0  0  0
   14.2866   -3.0900   17.4949 O   0  0  0  0  0  0  0  0  0  0  0  0
   14.8921    0.1753   16.1013 N   0  0  0  0  0  0  0  0  0  0  0  0
   13.4690    0.4884   15.8856 C   0  0  0  0  0  0  0  0  0  0  0  0
   12.7785   -0.8424   15.5495 C   0  0  0  0  0  0  0  0  0  0  0  0
   11.5770   -0.6243   14.7296 N   0  0  0  0  0  0  0  0  0  0  0  0
   10.5615   -1.5824   15.1568 C   0  0  0  0  0  0  0  0  0  0  0  0
   10.9844   -3.2703   14.9340 S   0  0  0  0  0  4  0  0  0  0  0  0
   11.7105   -3.4384   13.5354 F   0  0  0  0  0  0  0  0  0  0  0  0
   12.0069   -3.6886   16.0694 F   0  0  0  0  0  0  0  0  0  0  0  0
   13.9543   -1.6625   14.9029 C   0  0  0  0  0  0  0  0  0  0  0  0
   14.1076   -1.0552   13.5452 N   0  0  0  0  0  0  0  0  0  0  0  0
   14.6754   -1.7526   12.3732 C   0  0  0  0  0  0  0  0  0  0  0  0
   14.5892   -0.7051   11.2357 C   0  0  0  0  0  0  0  0  0  0  0  0
   15.4601    0.5147   11.4937 C   0  0  0  0  0  0  0  0  0  0  0  0
   16.4174    0.2251   12.6095 C   0  0  0  0  0  0  0  0  0  0  0  0
   16.6011    0.9850   13.5514 O   0  0  0  0  0  0  0  0  0  0  0  0
   17.0439   -0.9994   12.5027 N   0  0  0  0  0  0  0  0  0  0  0  0
   16.1637   -2.1511   12.3593 C   0  0  0  0  0  0  0  0  0  0  0  0
   15.9546   -3.7697   15.0909 H   0  0  0  0  0  0  0  0  0  0  0  0
   17.6898   -3.4402   15.2490 H   0  0  0  0  0  0  0  0  0  0  0  0
   16.7083   -3.6837   16.6877 H   0  0  0  0  0  0  0  0  0  0  0  0
   17.0994   -1.3427   16.5355 H   0  0  0  0  0  0  0  0  0  0  0  0
   16.8235   -1.2708   14.8485 H   0  0  0  0  0  0  0  0  0  0  0  0
   14.8446   -1.7232   19.5001 H   0  0  0  0  0  0  0  0  0  0  0  0
   14.2629   -0.2680   18.6792 H   0  0  0  0  0  0  0  0  0  0  0  0
   15.9958   -0.7308   18.5952 H   0  0  0  0  0  0  0  0  0  0  0  0
   15.4051    0.5570   15.2882 H   0  0  0  0  0  0  0  0  0  0  0  0
   13.0332    0.9432   16.7814 H   0  0  0  0  0  0  0  0  0  0  0  0
   13.3822    1.2214   15.0739 H   0  0  0  0  0  0  0  0  0  0  0  0
   12.4925   -1.2871   16.5118 H   0  0  0  0  0  0  0  0  0  0  0  0
   11.2178    0.3149   14.8854 H   0  0  0  0  0  0  0  0  0  0  0  0
    9.5953   -1.3858   14.6980 H   0  0  0  0  0  0  0  0  0  0  0  0
   10.3726   -1.4496   16.2170 H   0  0  0  0  0  0  0  0  0  0  0  0
    9.9185   -4.0895   15.0254 H   0  0  0  0  0  0  0  0  0  0  0  0
   13.7219   -2.7216   14.8473 H   0  0  0  0  0  0  0  0  0  0  0  0
   13.1446   -0.7915   13.2874 H   0  0  0  0  0  0  0  0  0  0  0  0
   14.0594   -2.6215   12.1344 H   0  0  0  0  0  0  0  0  0  0  0  0
   14.8713   -1.1675   10.2822 H   0  0  0  0  0  0  0  0  0  0  0  0
   13.5786   -0.3269   11.1294 H   0  0  0  0  0  0  0  0  0  0  0  0
   14.8377    1.3682   11.7876 H   0  0  0  0  0  0  0  0  0  0  0  0
   16.0173    0.8042   10.5969 H   0  0  0  0  0  0  0  0  0  0  0  0
   17.7711   -1.1084   13.1967 H   0  0  0  0  0  0  0  0  0  0  0  0
   16.4301   -2.6293   11.4095 H   0  0  0  0  0  0  0  0  0  0  0  0
   16.3964   -2.8632   13.1458 H   0  0  0  0  0  0  0  0  0  0  0  0
  1  2  1  0
  2  3  1  0
  3  4  1  0
  4  5  1  0
  4  6  2  0
  3  7  1  0
  7  8  1  0
  8  9  1  0
  9 10  1  0
 10 11  1  0
 11 12  1  0
 12 13  1  0
 12 14  1  0
  9 15  1  0
 15 16  1  0
 16 17  1  0
 17 18  1  0
 18 19  1  0
 19 20  1  0
 20 21  2  0
 20 22  1  0
 22 23  1  0
 15  3  1  0
 23 17  1  0
  1 24  1  0
  1 25  1  0
  1 26  1  0
  2 27  1  0
  2 28  1  0
  5 29  1  0
  5 30  1  0
  5 31  1  0
  7 32  1  0
  8 33  1  0
  8 34  1  0
  9 35  1  0
 10 36  1  0
 11 37  1  0
 11 38  1  0
 12 39  1  0
 15 40  1  0
 16 41  1  0
 17 42  1  0
 18 43  1  0
 18 44  1  0
 19 45  1  0
 19 46  1  0
 22 47  1  0
 23 48  1  0
 23 49  1  0
M  END
>  <Energy>  (588) 
153.1118151402847

>  <compound_id>  (588) 
866

>  <target_id>  (588) 
1

>  <reference_id>  (588) 
71

>  <inspiration_ids>  (588) 
[71, 4]

>  <energy_score>  (588) 
-92.15081897745262

>  <distance_score>  (588) 
2.1370815065134505

>  <path>  (588) 
/opt/xchem-fragalysis-2/maxwin/BulkDock/SCRATCH/505733/C866-P71/C866-P71.minimised.mol

>  <scratch_subdir>  (588) 
/opt/xchem-fragalysis-2/maxwin/BulkDock/SCRATCH/505733/C866-P71

>  <fragmenstein_runtime>  (588) 
4.822069883346558

>  <fragmenstein_outcome>  (588) 
too moved

>  <fragmenstein_mode>  (588) 
expansion

>  <fragmenstein_error>  (588) 


$$$$
C866-P4
     RDKit          3D

 49 50  0  0  0  0  0  0  0  0999 V2000
   18.3649   -1.2341   16.0056 C   0  0  0  0  0  0  0  0  0  0  0  0
   17.1749   -0.2988   15.8004 C   0  0  0  0  0  0  0  0  0  0  0  0
   15.8283   -0.9240   16.0705 C   0  0  0  0  0  0  0  0  0  0  0  0
   15.7998   -1.2073   17.6098 C   0  0  0  0  0  0  0  0  0  0  0  0
   15.5844   -0.0520   18.5496 C   0  0  0  0  0  0  0  0  0  0  0  0
   15.9884   -2.3435   18.0599 O   0  0  0  0  0  0  0  0  0  0  0  0
   14.6955    0.0204   15.7294 N   0  0  0  0  0  0  0  0  0  0  0  0
   13.6213   -0.8653   15.2207 C   0  0  0  0  0  0  0  0  0  0  0  0
   13.9897   -2.2133   15.8428 C   0  0  0  0  0  0  0  0  0  0  0  0
   13.2560   -3.4376   15.7437 N   0  0  0  0  0  0  0  0  0  0  0  0
   11.8428   -3.2493   15.7876 C   0  0  0  0  0  0  0  0  0  0  0  0
   11.1930   -2.9256   14.2279 S   0  0  0  0  0  4  0  0  0  0  0  0
   11.8489   -1.6487   13.5668 F   0  0  0  0  0  0  0  0  0  0  0  0
   11.5140   -4.1382   13.2648 F   0  0  0  0  0  0  0  0  0  0  0  0
   15.4813   -2.2573   15.3490 C   0  0  0  0  0  0  0  0  0  0  0  0
   15.4208   -2.2863   13.8640 N   0  0  0  0  0  0  0  0  0  0  0  0
   16.4844   -2.3490   12.8595 C   0  0  0  0  0  0  0  0  0  0  0  0
   15.7183   -2.4295   11.5148 C   0  0  0  0  0  0  0  0  0  0  0  0
   14.8847   -1.1649   11.2837 C   0  0  0  0  0  0  0  0  0  0  0  0
   15.3017    0.0235   12.1112 C   0  0  0  0  0  0  0  0  0  0  0  0
   14.5267    0.9067   12.4668 O   0  0  0  0  0  0  0  0  0  0  0  0
   16.6281    0.0826   12.4317 N   0  0  0  0  0  0  0  0  0  0  0  0
   17.3924   -1.1363   12.6038 C   0  0  0  0  0  0  0  0  0  0  0  0
   19.2914   -0.7239   15.7219 H   0  0  0  0  0  0  0  0  0  0  0  0
   18.4651   -1.5297   17.0544 H   0  0  0  0  0  0  0  0  0  0  0  0
   18.2837   -2.1427   15.4030 H   0  0  0  0  0  0  0  0  0  0  0  0
   17.3302    0.5593   16.4690 H   0  0  0  0  0  0  0  0  0  0  0  0
   17.2170    0.1514   14.8180 H   0  0  0  0  0  0  0  0  0  0  0  0
   15.3385   -0.4397   19.5431 H   0  0  0  0  0  0  0  0  0  0  0  0
   14.7571    0.5798   18.2294 H   0  0  0  0  0  0  0  0  0  0  0  0
   16.4982    0.5414   18.6235 H   0  0  0  0  0  0  0  0  0  0  0  0
   14.9706    0.5864   14.9182 H   0  0  0  0  0  0  0  0  0  0  0  0
   12.6330   -0.5257   15.4611 H   0  0  0  0  0  0  0  0  0  0  0  0
   13.6541   -0.8509   14.1327 H   0  0  0  0  0  0  0  0  0  0  0  0
   13.9021   -2.0610   16.9228 H   0  0  0  0  0  0  0  0  0  0  0  0
   13.5450   -4.0786   16.4854 H   0  0  0  0  0  0  0  0  0  0  0  0
   11.5484   -2.4302   16.4346 H   0  0  0  0  0  0  0  0  0  0  0  0
   11.3611   -4.1609   16.1398 H   0  0  0  0  0  0  0  0  0  0  0  0
    9.8650   -2.6988   14.3280 H   0  0  0  0  0  0  0  0  0  0  0  0
   16.0069   -3.1357   15.7373 H   0  0  0  0  0  0  0  0  0  0  0  0
   14.7148   -2.9871   13.6198 H   0  0  0  0  0  0  0  0  0  0  0  0
   17.1082   -3.2320   13.0076 H   0  0  0  0  0  0  0  0  0  0  0  0
   16.4273   -2.5568   10.6862 H   0  0  0  0  0  0  0  0  0  0  0  0
   15.0649   -3.3083   11.4724 H   0  0  0  0  0  0  0  0  0  0  0  0
   13.8562   -1.3773   11.5765 H   0  0  0  0  0  0  0  0  0  0  0  0
   14.9119   -0.8887   10.2269 H   0  0  0  0  0  0  0  0  0  0  0  0
   16.8801    0.9004   12.9695 H   0  0  0  0  0  0  0  0  0  0  0  0
   18.1290   -0.9916   13.3907 H   0  0  0  0  0  0  0  0  0  0  0  0
   17.9797   -1.2686   11.6861 H   0  0  0  0  0  0  0  0  0  0  0  0
  1  2  1  0
  2  3  1  0
  3  4  1  0
  4  5  1  0
  4  6  2  0
  3  7  1  0
  7  8  1  0
  8  9  1  0
  9 10  1  0
 10 11  1  0
 11 12  1  0
 12 13  1  0
 12 14  1  0
  9 15  1  0
 15 16  1  0
 16 17  1  0
 17 18  1  0
 18 19  1  0
 19 20  1  0
 20 21  2  0
 20 22  1  0
 22 23  1  0
 15  3  1  0
 23 17  1  0
  1 24  1  0
  1 25  1  0
  1 26  1  0
  2 27  1  0
  2 28  1  0
  5 29  1  0
  5 30  1  0
  5 31  1  0
  7 32  1  0
  8 33  1  0
  8 34  1  0
  9 35  1  0
 10 36  1  0
 11 37  1  0
 11 38  1  0
 12 39  1  0
 15 40  1  0
 16 41  1  0
 17 42  1  0
 18 43  1  0
 18 44  1  0
 19 45  1  0
 19 46  1  0
 22 47  1  0
 23 48  1  0
 23 49  1  0
M  END
>  <Energy>  (589) 
174.08562015204865

>  <compound_id>  (589) 
866

>  <target_id>  (589) 
1

>  <reference_id>  (589) 
4

>  <inspiration_ids>  (589) 
[71, 4]

>  <energy_score>  (589) 
-71.1770139656864

>  <distance_score>  (589) 
2.360223785342289

>  <path>  (589) 
/opt/xchem-fragalysis-2/maxwin/BulkDock/SCRATCH/505733/C866-P4/C866-P4.minimised.mol

>  <scratch_subdir>  (589) 
/opt/xchem-fragalysis-2/maxwin/BulkDock/SCRATCH/505733/C866-P4

>  <fragmenstein_runtime>  (589) 
3.9312245845794678

>  <fragmenstein_outcome>  (589) 
too moved

>  <fragmenstein_mode>  (589) 
expansion

>  <fragmenstein_error>  (589) 


$$$$
C867-P71
     RDKit          3D

 30 32  0  0  0  0  0  0  0  0999 V2000
   15.1245    1.7200   21.2708 O   0  0  0  0  0  0  0  0  0  0  0  0
   15.5907    1.2415   20.2403 C   0  0  0  0  0  0  0  0  0  0  0  0
   15.7804   -0.2485   20.0713 C   0  0  0  0  0  0  0  0  0  0  0  0
   16.6958   -0.6284   18.9165 C   0  0  0  0  0  0  0  0  0  0  0  0
   16.3410    0.1540   17.6279 C   0  0  0  0  0  0  0  0  0  0  0  0
   14.9722   -0.1959   17.0202 C   0  0  0  0  0  0  0  0  0  0  0  0
   13.9969    0.7720   16.6233 C   0  0  0  0  0  0  0  0  0  0  0  0
   14.2089    2.1039   16.7761 O   0  0  0  0  0  0  0  0  0  0  0  0
   12.7814    0.5913   16.0318 N   0  0  0  0  0  0  0  0  0  0  0  0
   12.5197   -0.7133   15.8039 C   0  0  0  0  0  0  0  0  0  0  0  0
   11.3855   -1.1614   15.1833 C   0  0  0  0  0  0  0  0  0  0  0  0
   11.3836   -2.8704   15.0895 S   0  0  0  0  0  0  0  0  0  0  0  0
   12.8911   -2.9994   15.8966 C   0  0  0  0  0  0  0  0  0  0  0  0
   13.4221   -1.7612   16.1665 C   0  0  0  0  0  0  0  0  0  0  0  0
   14.6779   -1.5531   16.7481 C   0  0  0  0  0  0  0  0  0  0  0  0
   15.5899   -2.5467   16.9693 O   0  0  0  0  0  0  0  0  0  0  0  0
   16.6172    1.6201   18.0014 C   0  0  0  0  0  0  0  0  0  0  0  0
   15.8799    2.0431   19.1750 N   0  0  0  0  0  0  0  0  0  0  0  0
   14.7874   -0.6905   19.9290 H   0  0  0  0  0  0  0  0  0  0  0  0
   16.1935   -0.6479   21.0043 H   0  0  0  0  0  0  0  0  0  0  0  0
   16.6803   -1.7122   18.7881 H   0  0  0  0  0  0  0  0  0  0  0  0
   17.7319   -0.3929   19.1980 H   0  0  0  0  0  0  0  0  0  0  0  0
   17.0762   -0.1136   16.8558 H   0  0  0  0  0  0  0  0  0  0  0  0
   13.3435    2.4512   16.4900 H   0  0  0  0  0  0  0  0  0  0  0  0
   10.5700   -0.5843   14.7686 H   0  0  0  0  0  0  0  0  0  0  0  0
   13.2883   -3.9826   16.1023 H   0  0  0  0  0  0  0  0  0  0  0  0
   15.3380   -3.3302   16.4542 H   0  0  0  0  0  0  0  0  0  0  0  0
   17.6782    1.7378   18.2586 H   0  0  0  0  0  0  0  0  0  0  0  0
   16.4399    2.3223   17.1833 H   0  0  0  0  0  0  0  0  0  0  0  0
   15.7266    3.0313   19.3330 H   0  0  0  0  0  0  0  0  0  0  0  0
  1  2  2  0
  2  3  1  0
  3  4  1  0
  4  5  1  0
  5  6  1  0
  6  7  1  0
  7  8  1  0
  7  9  2  0
  9 10  1  0
 10 11  2  0
 11 12  1  0
 12 13  1  0
 13 14  2  0
 14 15  1  0
 15 16  1  0
  5 17  1  0
 17 18  1  0
 18  2  1  0
 15  6  2  0
 14 10  1  0
  3 19  1  0
  3 20  1  0
  4 21  1  0
  4 22  1  0
  5 23  1  0
  8 24  1  0
 11 25  1  0
 13 26  1  0
 16 27  1  0
 17 28  1  0
 17 29  1  0
 18 30  1  0
M  END
>  <Energy>  (590) 
-22.836137945869595

>  <compound_id>  (590) 
867

>  <target_id>  (590) 
1

>  <reference_id>  (590) 
71

>  <inspiration_ids>  (590) 
[71, 5]

>  <energy_score>  (590) 
-62.7353527427638

>  <distance_score>  (590) 
0.690256199657474

>  <path>  (590) 
/opt/xchem-fragalysis-2/maxwin/BulkDock/SCRATCH/505733/C867-P71/C867-P71.minimised.mol

>  <scratch_subdir>  (590) 
/opt/xchem-fragalysis-2/maxwin/BulkDock/SCRATCH/505733/C867-P71

>  <fragmenstein_runtime>  (590) 
0.9500091075897217

>  <fragmenstein_outcome>  (590) 
acceptable

>  <fragmenstein_mode>  (590) 
expansion

>  <fragmenstein_error>  (590) 


$$$$
C867-P5
     RDKit          3D

 30 32  0  0  0  0  0  0  0  0999 V2000
   15.1567    1.7025   21.2755 O   0  0  0  0  0  0  0  0  0  0  0  0
   15.5980    1.2230   20.2348 C   0  0  0  0  0  0  0  0  0  0  0  0
   15.7719   -0.2680   20.0579 C   0  0  0  0  0  0  0  0  0  0  0  0
   16.6815   -0.6500   18.8993 C   0  0  0  0  0  0  0  0  0  0  0  0
   16.3261    0.1366   17.6131 C   0  0  0  0  0  0  0  0  0  0  0  0
   14.9549   -0.2040   17.0036 C   0  0  0  0  0  0  0  0  0  0  0  0
   13.9979    0.7732   16.5847 C   0  0  0  0  0  0  0  0  0  0  0  0
   14.2276    2.1032   16.7274 O   0  0  0  0  0  0  0  0  0  0  0  0
   12.7867    0.6046   15.9790 N   0  0  0  0  0  0  0  0  0  0  0  0
   12.5072   -0.6985   15.7629 C   0  0  0  0  0  0  0  0  0  0  0  0
   11.3758   -1.1375   15.1299 C   0  0  0  0  0  0  0  0  0  0  0  0
   11.3503   -2.8477   15.0551 S   0  0  0  0  0  0  0  0  0  0  0  0
   12.8385   -2.9885   15.8961 C   0  0  0  0  0  0  0  0  0  0  0  0
   13.3882   -1.7553   16.1519 C   0  0  0  0  0  0  0  0  0  0  0  0
   14.6411   -1.5594   16.7449 C   0  0  0  0  0  0  0  0  0  0  0  0
   15.5347   -2.5656   16.9827 O   0  0  0  0  0  0  0  0  0  0  0  0
   16.6102    1.6005   17.9916 C   0  0  0  0  0  0  0  0  0  0  0  0
   15.8722    2.0238   19.1645 N   0  0  0  0  0  0  0  0  0  0  0  0
   14.7744   -0.6994   19.9160 H   0  0  0  0  0  0  0  0  0  0  0  0
   16.1835   -0.6761   20.9878 H   0  0  0  0  0  0  0  0  0  0  0  0
   16.6623   -1.7334   18.7695 H   0  0  0  0  0  0  0  0  0  0  0  0
   17.7195   -0.4193   19.1780 H   0  0  0  0  0  0  0  0  0  0  0  0
   17.0590   -0.1325   16.8394 H   0  0  0  0  0  0  0  0  0  0  0  0
   13.3718    2.4609   16.4270 H   0  0  0  0  0  0  0  0  0  0  0  0
   10.5751   -0.5545   14.6948 H   0  0  0  0  0  0  0  0  0  0  0  0
   13.2141   -3.9749   16.1270 H   0  0  0  0  0  0  0  0  0  0  0  0
   15.2794   -3.3443   16.4617 H   0  0  0  0  0  0  0  0  0  0  0  0
   17.6712    1.7103   18.2524 H   0  0  0  0  0  0  0  0  0  0  0  0
   16.4416    2.3071   17.1758 H   0  0  0  0  0  0  0  0  0  0  0  0
   15.7308    3.0128   19.3297 H   0  0  0  0  0  0  0  0  0  0  0  0
  1  2  2  0
  2  3  1  0
  3  4  1  0
  4  5  1  0
  5  6  1  0
  6  7  1  0
  7  8  1  0
  7  9  2  0
  9 10  1  0
 10 11  2  0
 11 12  1  0
 12 13  1  0
 13 14  2  0
 14 15  1  0
 15 16  1  0
  5 17  1  0
 17 18  1  0
 18  2  1  0
 15  6  2  0
 14 10  1  0
  3 19  1  0
  3 20  1  0
  4 21  1  0
  4 22  1  0
  5 23  1  0
  8 24  1  0
 11 25  1  0
 13 26  1  0
 16 27  1  0
 17 28  1  0
 17 29  1  0
 18 30  1  0
M  END
>  <Energy>  (591) 
-22.610450470979156

>  <compound_id>  (591) 
867

>  <target_id>  (591) 
1

>  <reference_id>  (591) 
5

>  <inspiration_ids>  (591) 
[71, 5]

>  <energy_score>  (591) 
-62.5096652678735

>  <distance_score>  (591) 
0.6804361335053005

>  <path>  (591) 
/opt/xchem-fragalysis-2/maxwin/BulkDock/SCRATCH/505733/C867-P5/C867-P5.minimised.mol

>  <scratch_subdir>  (591) 
/opt/xchem-fragalysis-2/maxwin/BulkDock/SCRATCH/505733/C867-P5

>  <fragmenstein_runtime>  (591) 
1.0482902526855469

>  <fragmenstein_outcome>  (591) 
acceptable

>  <fragmenstein_mode>  (591) 
expansion

>  <fragmenstein_error>  (591) 


$$$$
C868-P71
     RDKit          3D

 40 41  0  0  0  0  0  0  0  0999 V2000
   14.6294    3.1331   13.5750 C   0  0  0  0  0  0  0  0  0  0  0  0
   13.6804    3.0757   15.0755 S   0  0  0  0  0  0  0  0  0  0  0  0
   12.7087    4.1521   15.0101 O   0  0  0  0  0  0  0  0  0  0  0  0
   14.6090    2.9974   16.1856 O   0  0  0  0  0  0  0  0  0  0  0  0
   12.7726    1.5540   15.0330 C   0  0  0  0  0  0  0  0  0  0  0  0
   13.6520    0.3764   14.6642 C   0  0  0  0  0  0  0  0  0  0  0  0
   13.7610    0.3256   13.2370 O   0  0  0  0  0  0  0  0  0  0  0  0
   13.0916   -0.9263   15.1709 C   0  0  0  0  0  0  0  0  0  0  0  0
   11.8112   -1.3513   14.8588 C   0  0  0  0  0  0  0  0  0  0  0  0
   11.4868   -2.9272   15.3893 S   0  0  0  0  0  0  0  0  0  0  0  0
   13.0145   -3.0611   16.1175 C   0  0  0  0  0  0  0  0  0  0  0  0
   13.8052   -1.9402   15.9289 C   0  0  0  0  0  0  0  0  0  0  0  0
   15.2018   -1.9385   16.3993 C   0  0  0  0  0  0  0  0  0  0  0  0
   15.8816   -2.8518   16.1660 O   0  0  0  0  0  0  0  0  0  0  0  0
   15.4909   -0.6636   17.1979 N   0  0  0  0  0  0  0  0  0  0  0  0
   16.7196   -0.1914   17.8068 C   0  0  0  0  0  0  0  0  0  0  0  0
   16.7432    1.3204   17.9950 C   0  0  0  0  0  0  0  0  0  0  0  0
   15.6902    1.7851   18.9944 C   0  0  0  0  0  0  0  0  0  0  0  0
   15.6225    0.9522   20.2560 C   0  0  0  0  0  0  0  0  0  0  0  0
   15.1188    1.3798   21.2906 O   0  0  0  0  0  0  0  0  0  0  0  0
   16.0392   -0.3466   20.1817 N   0  0  0  0  0  0  0  0  0  0  0  0
   16.9458   -0.8506   19.1696 C   0  0  0  0  0  0  0  0  0  0  0  0
   13.9577    3.0040   12.7247 H   0  0  0  0  0  0  0  0  0  0  0  0
   15.4016    2.3634   13.5968 H   0  0  0  0  0  0  0  0  0  0  0  0
   15.1036    4.1160   13.5192 H   0  0  0  0  0  0  0  0  0  0  0  0
   12.3407    1.4466   16.0349 H   0  0  0  0  0  0  0  0  0  0  0  0
   11.9585    1.6936   14.3126 H   0  0  0  0  0  0  0  0  0  0  0  0
   14.6682    0.5133   15.0417 H   0  0  0  0  0  0  0  0  0  0  0  0
   14.0669   -0.5728   13.0041 H   0  0  0  0  0  0  0  0  0  0  0  0
   11.0610   -0.8265   14.2799 H   0  0  0  0  0  0  0  0  0  0  0  0
   13.2880   -3.9787   16.6233 H   0  0  0  0  0  0  0  0  0  0  0  0
   14.6450   -0.1128   17.2722 H   0  0  0  0  0  0  0  0  0  0  0  0
   17.5295   -0.4986   17.1354 H   0  0  0  0  0  0  0  0  0  0  0  0
   17.7339    1.6151   18.3656 H   0  0  0  0  0  0  0  0  0  0  0  0
   16.6117    1.8260   17.0347 H   0  0  0  0  0  0  0  0  0  0  0  0
   14.6923    1.7553   18.5436 H   0  0  0  0  0  0  0  0  0  0  0  0
   15.8969    2.8232   19.2771 H   0  0  0  0  0  0  0  0  0  0  0  0
   15.9750   -0.8395   21.0661 H   0  0  0  0  0  0  0  0  0  0  0  0
   16.8136   -1.9365   19.1206 H   0  0  0  0  0  0  0  0  0  0  0  0
   17.9620   -0.6466   19.5255 H   0  0  0  0  0  0  0  0  0  0  0  0
  1  2  1  0
  2  3  2  0
  2  4  2  0
  2  5  1  0
  5  6  1  0
  6  7  1  0
  6  8  1  0
  8  9  2  0
  9 10  1  0
 10 11  1  0
 11 12  2  0
 12 13  1  0
 13 14  2  0
 13 15  1  0
 15 16  1  0
 16 17  1  0
 17 18  1  0
 18 19  1  0
 19 20  2  0
 19 21  1  0
 21 22  1  0
 12  8  1  0
 22 16  1  0
  1 23  1  0
  1 24  1  0
  1 25  1  0
  5 26  1  0
  5 27  1  0
  6 28  1  0
  7 29  1  0
  9 30  1  0
 11 31  1  0
 15 32  1  0
 16 33  1  0
 17 34  1  0
 17 35  1  0
 18 36  1  0
 18 37  1  0
 21 38  1  0
 22 39  1  0
 22 40  1  0
M  END
>  <Energy>  (592) 
-21.905649602960985

>  <compound_id>  (592) 
868

>  <target_id>  (592) 
1

>  <reference_id>  (592) 
71

>  <inspiration_ids>  (592) 
[71, 6]

>  <energy_score>  (592) 
-38.17754980358792

>  <distance_score>  (592) 
0.9536001221621341

>  <path>  (592) 
/opt/xchem-fragalysis-2/maxwin/BulkDock/SCRATCH/505733/C868-P71/C868-P71.minimised.mol

>  <scratch_subdir>  (592) 
/opt/xchem-fragalysis-2/maxwin/BulkDock/SCRATCH/505733/C868-P71

>  <fragmenstein_runtime>  (592) 
2.865499496459961

>  <fragmenstein_outcome>  (592) 
acceptable

>  <fragmenstein_mode>  (592) 
expansion

>  <fragmenstein_error>  (592) 


$$$$
C868-P6
     RDKit          3D

 40 41  0  0  0  0  0  0  0  0999 V2000
   14.6330    3.1014   13.5609 C   0  0  0  0  0  0  0  0  0  0  0  0
   13.7062    3.0397   15.0751 S   0  0  0  0  0  0  0  0  0  0  0  0
   12.7478    4.1295   15.0419 O   0  0  0  0  0  0  0  0  0  0  0  0
   14.6467    2.9305   16.1723 O   0  0  0  0  0  0  0  0  0  0  0  0
   12.7752    1.5343   15.0248 C   0  0  0  0  0  0  0  0  0  0  0  0
   13.6334    0.3433   14.6477 C   0  0  0  0  0  0  0  0  0  0  0  0
   13.7147    0.2837   13.2188 O   0  0  0  0  0  0  0  0  0  0  0  0
   13.0570   -0.9440   15.1769 C   0  0  0  0  0  0  0  0  0  0  0  0
   11.7794   -1.3639   14.8438 C   0  0  0  0  0  0  0  0  0  0  0  0
   11.4220   -2.9186   15.4105 S   0  0  0  0  0  0  0  0  0  0  0  0
   12.9267   -3.0463   16.1874 C   0  0  0  0  0  0  0  0  0  0  0  0
   13.7420   -1.9453   15.9808 C   0  0  0  0  0  0  0  0  0  0  0  0
   15.1359   -1.9655   16.4667 C   0  0  0  0  0  0  0  0  0  0  0  0
   15.7832   -2.9129   16.2797 O   0  0  0  0  0  0  0  0  0  0  0  0
   15.4921   -0.6362   17.1413 N   0  0  0  0  0  0  0  0  0  0  0  0
   16.7043   -0.2190   17.8209 C   0  0  0  0  0  0  0  0  0  0  0  0
   16.7749    1.2893   18.0303 C   0  0  0  0  0  0  0  0  0  0  0  0
   15.7124    1.7768   19.0088 C   0  0  0  0  0  0  0  0  0  0  0  0
   15.5951    0.9365   20.2610 C   0  0  0  0  0  0  0  0  0  0  0  0
   15.1150    1.3777   21.3004 O   0  0  0  0  0  0  0  0  0  0  0  0
   15.9354   -0.3837   20.1690 N   0  0  0  0  0  0  0  0  0  0  0  0
   16.8538   -0.9078   19.1794 C   0  0  0  0  0  0  0  0  0  0  0  0
   13.9461    2.9928   12.7200 H   0  0  0  0  0  0  0  0  0  0  0  0
   15.3919    2.3183   13.5612 H   0  0  0  0  0  0  0  0  0  0  0  0
   15.1222    4.0771   13.5099 H   0  0  0  0  0  0  0  0  0  0  0  0
   12.3447    1.4291   16.0276 H   0  0  0  0  0  0  0  0  0  0  0  0
   11.9607    1.6911   14.3085 H   0  0  0  0  0  0  0  0  0  0  0  0
   14.6589    0.4665   15.0019 H   0  0  0  0  0  0  0  0  0  0  0  0
   14.0125   -0.6181   12.9869 H   0  0  0  0  0  0  0  0  0  0  0  0
   11.0507   -0.8487   14.2292 H   0  0  0  0  0  0  0  0  0  0  0  0
   13.1736   -3.9555   16.7217 H   0  0  0  0  0  0  0  0  0  0  0  0
   14.6636   -0.0592   17.2084 H   0  0  0  0  0  0  0  0  0  0  0  0
   17.5313   -0.5456   17.1799 H   0  0  0  0  0  0  0  0  0  0  0  0
   17.7646    1.5431   18.4325 H   0  0  0  0  0  0  0  0  0  0  0  0
   16.6869    1.8140   17.0750 H   0  0  0  0  0  0  0  0  0  0  0  0
   14.7238    1.7774   18.5376 H   0  0  0  0  0  0  0  0  0  0  0  0
   15.9418    2.8067   19.3040 H   0  0  0  0  0  0  0  0  0  0  0  0
   15.8413   -0.8775   21.0505 H   0  0  0  0  0  0  0  0  0  0  0  0
   16.6817   -1.9867   19.1088 H   0  0  0  0  0  0  0  0  0  0  0  0
   17.8646   -0.7499   19.5727 H   0  0  0  0  0  0  0  0  0  0  0  0
  1  2  1  0
  2  3  2  0
  2  4  2  0
  2  5  1  0
  5  6  1  0
  6  7  1  0
  6  8  1  0
  8  9  2  0
  9 10  1  0
 10 11  1  0
 11 12  2  0
 12 13  1  0
 13 14  2  0
 13 15  1  0
 15 16  1  0
 16 17  1  0
 17 18  1  0
 18 19  1  0
 19 20  2  0
 19 21  1  0
 21 22  1  0
 12  8  1  0
 22 16  1  0
  1 23  1  0
  1 24  1  0
  1 25  1  0
  5 26  1  0
  5 27  1  0
  6 28  1  0
  7 29  1  0
  9 30  1  0
 11 31  1  0
 15 32  1  0
 16 33  1  0
 17 34  1  0
 17 35  1  0
 18 36  1  0
 18 37  1  0
 21 38  1  0
 22 39  1  0
 22 40  1  0
M  END
>  <Energy>  (593) 
-22.360236428941342

>  <compound_id>  (593) 
868

>  <target_id>  (593) 
1

>  <reference_id>  (593) 
6

>  <inspiration_ids>  (593) 
[71, 6]

>  <energy_score>  (593) 
-38.632136629567796

>  <distance_score>  (593) 
0.9407997151948743

>  <path>  (593) 
/opt/xchem-fragalysis-2/maxwin/BulkDock/SCRATCH/505733/C868-P6/C868-P6.minimised.mol

>  <scratch_subdir>  (593) 
/opt/xchem-fragalysis-2/maxwin/BulkDock/SCRATCH/505733/C868-P6

>  <fragmenstein_runtime>  (593) 
2.711712598800659

>  <fragmenstein_outcome>  (593) 
acceptable

>  <fragmenstein_mode>  (593) 
expansion

>  <fragmenstein_error>  (593) 


$$$$
C870-P71
     RDKit          3D

 34 35  0  0  0  0  0  0  0  0999 V2000
   13.7497   -2.9782   16.4376 O   0  0  0  0  0  0  0  0  0  0  0  0
   14.5527   -3.7929   16.8613 C   0  0  0  0  0  0  0  0  0  0  0  0
   14.2026   -4.6427   17.8515 O   0  0  0  0  0  0  0  0  0  0  0  0
   15.9940   -3.9902   16.3988 C   0  0  0  0  0  0  0  0  0  0  0  0
   16.6737   -2.7819   16.0386 O   0  0  0  0  0  0  0  0  0  0  0  0
   16.5174   -2.4507   14.7317 C   0  0  0  0  0  0  0  0  0  0  0  0
   17.2344   -3.0694   13.7399 C   0  0  0  0  0  0  0  0  0  0  0  0
   16.8930   -2.4081   12.2027 S   0  0  0  0  0  0  0  0  0  0  0  0
   15.7779   -1.3404   12.8762 C   0  0  0  0  0  0  0  0  0  0  0  0
   15.0682   -0.5347   12.0840 F   0  0  0  0  0  0  0  0  0  0  0  0
   15.7353   -1.3414   14.2544 C   0  0  0  0  0  0  0  0  0  0  0  0
   14.9726   -0.3766   15.0687 C   0  0  0  0  0  0  0  0  0  0  0  0
   14.1218    0.2667   14.6018 O   0  0  0  0  0  0  0  0  0  0  0  0
   15.4983   -0.4380   16.5149 N   0  0  0  0  0  0  0  0  0  0  0  0
   15.0257    0.2086   17.7085 C   0  0  0  0  0  0  0  0  0  0  0  0
   15.4594   -0.6156   18.9442 C   0  0  0  0  0  0  0  0  0  0  0  0
   16.2647    0.1798   19.9636 C   0  0  0  0  0  0  0  0  0  0  0  0
   15.5694    1.4886   20.2396 C   0  0  0  0  0  0  0  0  0  0  0  0
   15.3167    1.8938   21.3657 O   0  0  0  0  0  0  0  0  0  0  0  0
   15.2440    2.2008   19.1155 N   0  0  0  0  0  0  0  0  0  0  0  0
   15.4785    1.6710   17.7917 C   0  0  0  0  0  0  0  0  0  0  0  0
   13.2441   -4.4683   17.9980 H   0  0  0  0  0  0  0  0  0  0  0  0
   16.0149   -4.7388   15.5988 H   0  0  0  0  0  0  0  0  0  0  0  0
   16.5575   -4.4035   17.2432 H   0  0  0  0  0  0  0  0  0  0  0  0
   17.9415   -3.8808   13.8360 H   0  0  0  0  0  0  0  0  0  0  0  0
   16.3059   -1.0495   16.5556 H   0  0  0  0  0  0  0  0  0  0  0  0
   13.9298    0.1945   17.6502 H   0  0  0  0  0  0  0  0  0  0  0  0
   14.5479   -0.9799   19.4369 H   0  0  0  0  0  0  0  0  0  0  0  0
   16.0228   -1.5143   18.6667 H   0  0  0  0  0  0  0  0  0  0  0  0
   16.3520   -0.3859   20.8972 H   0  0  0  0  0  0  0  0  0  0  0  0
   17.2771    0.3855   19.5990 H   0  0  0  0  0  0  0  0  0  0  0  0
   14.7495    3.0756   19.2535 H   0  0  0  0  0  0  0  0  0  0  0  0
   14.9407    2.2932   17.0689 H   0  0  0  0  0  0  0  0  0  0  0  0
   16.5504    1.7645   17.5805 H   0  0  0  0  0  0  0  0  0  0  0  0
  1  2  2  0
  2  3  1  0
  2  4  1  0
  4  5  1  0
  5  6  1  0
  6  7  2  0
  7  8  1  0
  8  9  1  0
  9 10  1  0
  9 11  2  0
 11 12  1  0
 12 13  2  0
 12 14  1  0
 14 15  1  0
 15 16  1  0
 16 17  1  0
 17 18  1  0
 18 19  2  0
 18 20  1  0
 20 21  1  0
 11  6  1  0
 21 15  1  0
  3 22  1  0
  4 23  1  0
  4 24  1  0
  7 25  1  0
 14 26  1  0
 15 27  1  0
 16 28  1  0
 16 29  1  0
 17 30  1  0
 17 31  1  0
 20 32  1  0
 21 33  1  0
 21 34  1  0
M  END
>  <Energy>  (594) 
0.74089046666448688

>  <compound_id>  (594) 
870

>  <target_id>  (594) 
1

>  <reference_id>  (594) 
71

>  <inspiration_ids>  (594) 
[71, 12]

>  <energy_score>  (594) 
-36.18961298576979

>  <distance_score>  (594) 
2.0257952507812313

>  <path>  (594) 
/opt/xchem-fragalysis-2/maxwin/BulkDock/SCRATCH/505733/C870-P71/C870-P71.minimised.mol

>  <scratch_subdir>  (594) 
/opt/xchem-fragalysis-2/maxwin/BulkDock/SCRATCH/505733/C870-P71

>  <fragmenstein_runtime>  (594) 
4.468080759048462

>  <fragmenstein_outcome>  (594) 
too moved

>  <fragmenstein_mode>  (594) 
expansion

>  <fragmenstein_error>  (594) 


$$$$
C870-P12
     RDKit          3D

 34 35  0  0  0  0  0  0  0  0999 V2000
   15.9547   -4.1381   16.8249 O   0  0  0  0  0  0  0  0  0  0  0  0
   16.9196   -4.6109   16.2426 C   0  0  0  0  0  0  0  0  0  0  0  0
   17.0914   -5.9501   16.1523 O   0  0  0  0  0  0  0  0  0  0  0  0
   18.0376   -3.8008   15.6096 C   0  0  0  0  0  0  0  0  0  0  0  0
   17.6708   -2.4327   15.4131 O   0  0  0  0  0  0  0  0  0  0  0  0
   17.0540   -2.2248   14.2201 C   0  0  0  0  0  0  0  0  0  0  0  0
   17.6790   -2.4534   13.0162 C   0  0  0  0  0  0  0  0  0  0  0  0
   16.6692   -2.1071   11.6894 S   0  0  0  0  0  0  0  0  0  0  0  0
   15.4211   -1.6652   12.7335 C   0  0  0  0  0  0  0  0  0  0  0  0
   14.2256   -1.3419   12.2404 F   0  0  0  0  0  0  0  0  0  0  0  0
   15.7586   -1.6246   14.0714 C   0  0  0  0  0  0  0  0  0  0  0  0
   14.8840   -1.0586   15.1215 C   0  0  0  0  0  0  0  0  0  0  0  0
   13.7865   -0.7607   14.8732 O   0  0  0  0  0  0  0  0  0  0  0  0
   15.6919   -0.8953   16.4210 N   0  0  0  0  0  0  0  0  0  0  0  0
   15.2902   -0.4170   17.7186 C   0  0  0  0  0  0  0  0  0  0  0  0
   16.3553   -0.7617   18.7607 C   0  0  0  0  0  0  0  0  0  0  0  0
   15.9066   -0.3217   20.1442 C   0  0  0  0  0  0  0  0  0  0  0  0
   15.3787    1.0951   20.1992 C   0  0  0  0  0  0  0  0  0  0  0  0
   15.3219    1.7237   21.2520 O   0  0  0  0  0  0  0  0  0  0  0  0
   14.8668    1.6289   19.0522 N   0  0  0  0  0  0  0  0  0  0  0  0
   15.0909    1.1012   17.7236 C   0  0  0  0  0  0  0  0  0  0  0  0
   17.8840   -6.2449   15.6642 H   0  0  0  0  0  0  0  0  0  0  0  0
   18.3704   -4.2871   14.6858 H   0  0  0  0  0  0  0  0  0  0  0  0
   18.8779   -3.8096   16.3120 H   0  0  0  0  0  0  0  0  0  0  0  0
   18.6835   -2.8103   12.8395 H   0  0  0  0  0  0  0  0  0  0  0  0
   16.5962   -1.3403   16.3152 H   0  0  0  0  0  0  0  0  0  0  0  0
   14.3428   -0.9103   17.9666 H   0  0  0  0  0  0  0  0  0  0  0  0
   16.5541   -1.8403   18.7653 H   0  0  0  0  0  0  0  0  0  0  0  0
   17.3034   -0.2704   18.5045 H   0  0  0  0  0  0  0  0  0  0  0  0
   15.1051   -0.9788   20.5020 H   0  0  0  0  0  0  0  0  0  0  0  0
   16.7477   -0.4048   20.8412 H   0  0  0  0  0  0  0  0  0  0  0  0
   14.5240    2.5786   19.1516 H   0  0  0  0  0  0  0  0  0  0  0  0
   14.2345    1.3860   17.1031 H   0  0  0  0  0  0  0  0  0  0  0  0
   15.9728    1.6128   17.3198 H   0  0  0  0  0  0  0  0  0  0  0  0
  1  2  2  0
  2  3  1  0
  2  4  1  0
  4  5  1  0
  5  6  1  0
  6  7  2  0
  7  8  1  0
  8  9  1  0
  9 10  1  0
  9 11  2  0
 11 12  1  0
 12 13  2  0
 12 14  1  0
 14 15  1  0
 15 16  1  0
 16 17  1  0
 17 18  1  0
 18 19  2  0
 18 20  1  0
 20 21  1  0
 11  6  1  0
 21 15  1  0
  3 22  1  0
  4 23  1  0
  4 24  1  0
  7 25  1  0
 14 26  1  0
 15 27  1  0
 16 28  1  0
 16 29  1  0
 17 30  1  0
 17 31  1  0
 20 32  1  0
 21 33  1  0
 21 34  1  0
M  END
>  <Energy>  (595) 
2.9689700827614516

>  <compound_id>  (595) 
870

>  <target_id>  (595) 
1

>  <reference_id>  (595) 
12

>  <inspiration_ids>  (595) 
[71, 12]

>  <energy_score>  (595) 
-33.961533369672416

>  <distance_score>  (595) 
2.3327230393686285

>  <path>  (595) 
/opt/xchem-fragalysis-2/maxwin/BulkDock/SCRATCH/505733/C870-P12/C870-P12.minimised.mol

>  <scratch_subdir>  (595) 
/opt/xchem-fragalysis-2/maxwin/BulkDock/SCRATCH/505733/C870-P12

>  <fragmenstein_runtime>  (595) 
4.858283758163452

>  <fragmenstein_outcome>  (595) 
too moved

>  <fragmenstein_mode>  (595) 
expansion

>  <fragmenstein_error>  (595) 


$$$$
C873-P71
     RDKit          3D

 42 44  0  0  0  0  0  0  0  0999 V2000
   12.9459   -4.2954   16.6790 C   0  0  0  0  0  0  0  0  0  0  0  0
   12.7055   -2.9971   16.0039 C   0  0  0  0  0  0  0  0  0  0  0  0
   11.3811   -2.7723   14.9558 S   0  0  0  0  0  0  0  0  0  0  0  0
   11.8405   -1.1435   14.7198 C   0  0  0  0  0  0  0  0  0  0  0  0
   12.9125   -0.7537   15.3749 N   0  0  0  0  0  0  0  0  0  0  0  0
   13.4257   -1.8224   16.1052 C   0  0  0  0  0  0  0  0  0  0  0  0
   14.6073   -1.6726   16.9351 C   0  0  0  0  0  0  0  0  0  0  0  0
   15.4166   -2.5704   17.1552 O   0  0  0  0  0  0  0  0  0  0  0  0
   14.8229   -0.3511   17.6280 C   0  0  0  0  0  0  0  0  0  0  0  0
   13.8612    0.1819   18.1691 O   0  0  0  0  0  0  0  0  0  0  0  0
   16.2419    0.1674   17.7022 C   0  0  0  0  0  0  0  0  0  0  0  0
   16.2135    1.6803   17.8801 C   0  0  0  0  0  0  0  0  0  0  0  0
   15.8967    2.0836   19.2314 N   0  0  0  0  0  0  0  0  0  0  0  0
   15.9694    1.3177   20.3528 C   0  0  0  0  0  0  0  0  0  0  0  0
   15.6456    1.7809   21.4430 O   0  0  0  0  0  0  0  0  0  0  0  0
   16.3642   -0.1327   20.2125 C   0  0  0  0  0  0  0  0  0  0  0  0
   16.9850   -0.4952   18.8700 C   0  0  0  0  0  0  0  0  0  0  0  0
   18.7343   -0.1034   18.8083 S   0  0  0  0  0  0  0  0  0  0  0  0
   18.9575    1.1943   19.4124 O   0  0  0  0  0  0  0  0  0  0  0  0
   19.1961   -0.3658   17.4577 O   0  0  0  0  0  0  0  0  0  0  0  0
   19.4929   -1.3253   19.8542 C   0  0  0  0  0  0  0  0  0  0  0  0
   19.6857   -2.6197   19.3617 C   0  0  0  0  0  0  0  0  0  0  0  0
   20.2835   -3.5798   20.1772 C   0  0  0  0  0  0  0  0  0  0  0  0
   20.6935   -3.2427   21.4684 C   0  0  0  0  0  0  0  0  0  0  0  0
   20.5149   -1.9434   21.9471 C   0  0  0  0  0  0  0  0  0  0  0  0
   19.9185   -0.9764   21.1384 C   0  0  0  0  0  0  0  0  0  0  0  0
   12.9918   -4.1608   17.7644 H   0  0  0  0  0  0  0  0  0  0  0  0
   13.8994   -4.7149   16.3488 H   0  0  0  0  0  0  0  0  0  0  0  0
   12.1586   -5.0198   16.4667 H   0  0  0  0  0  0  0  0  0  0  0  0
   11.2741   -0.4852   14.0715 H   0  0  0  0  0  0  0  0  0  0  0  0
   16.7139   -0.0556   16.7379 H   0  0  0  0  0  0  0  0  0  0  0  0
   17.1827    2.1256   17.6334 H   0  0  0  0  0  0  0  0  0  0  0  0
   15.4736    2.1495   17.2217 H   0  0  0  0  0  0  0  0  0  0  0  0
   15.6109    3.0420   19.4045 H   0  0  0  0  0  0  0  0  0  0  0  0
   15.4468   -0.7170   20.3576 H   0  0  0  0  0  0  0  0  0  0  0  0
   17.0342   -0.3806   21.0415 H   0  0  0  0  0  0  0  0  0  0  0  0
   16.9477   -1.5839   18.7577 H   0  0  0  0  0  0  0  0  0  0  0  0
   19.3841   -2.8860   18.3509 H   0  0  0  0  0  0  0  0  0  0  0  0
   20.4382   -4.5902   19.8056 H   0  0  0  0  0  0  0  0  0  0  0  0
   21.1628   -3.9928   22.1011 H   0  0  0  0  0  0  0  0  0  0  0  0
   20.8467   -1.6836   22.9498 H   0  0  0  0  0  0  0  0  0  0  0  0
   19.7930    0.0362   21.5170 H   0  0  0  0  0  0  0  0  0  0  0  0
  1  2  1  0
  2  3  1  0
  3  4  1  0
  4  5  2  0
  5  6  1  0
  6  7  1  0
  7  8  2  0
  7  9  1  0
  9 10  2  0
  9 11  1  0
 11 12  1  0
 12 13  1  0
 13 14  1  0
 14 15  2  0
 14 16  1  0
 16 17  1  0
 17 18  1  0
 18 19  2  0
 18 20  2  0
 18 21  1  0
 21 22  2  0
 22 23  1  0
 23 24  2  0
 24 25  1  0
 25 26  2  0
  6  2  2  0
 17 11  1  0
 26 21  1  0
  1 27  1  0
  1 28  1  0
  1 29  1  0
  4 30  1  0
 11 31  1  0
 12 32  1  0
 12 33  1  0
 13 34  1  0
 16 35  1  0
 16 36  1  0
 17 37  1  0
 22 38  1  0
 23 39  1  0
 24 40  1  0
 25 41  1  0
 26 42  1  0
M  END
>  <Energy>  (596) 
29.406438675487781

>  <compound_id>  (596) 
873

>  <target_id>  (596) 
1

>  <reference_id>  (596) 
71

>  <inspiration_ids>  (596) 
[71, 26]

>  <energy_score>  (596) 
-59.958721176417725

>  <distance_score>  (596) 
0.5676653702025283

>  <path>  (596) 
/opt/xchem-fragalysis-2/maxwin/BulkDock/SCRATCH/505733/C873-P71/C873-P71.minimised.mol

>  <scratch_subdir>  (596) 
/opt/xchem-fragalysis-2/maxwin/BulkDock/SCRATCH/505733/C873-P71

>  <fragmenstein_runtime>  (596) 
4.01890754699707

>  <fragmenstein_outcome>  (596) 
acceptable

>  <fragmenstein_mode>  (596) 
expansion

>  <fragmenstein_error>  (596) 


$$$$
C873-P26
     RDKit          3D

 42 44  0  0  0  0  0  0  0  0999 V2000
   12.8139   -4.2033   16.7218 C   0  0  0  0  0  0  0  0  0  0  0  0
   12.6190   -2.9124   16.0215 C   0  0  0  0  0  0  0  0  0  0  0  0
   11.2939   -2.6601   14.9821 S   0  0  0  0  0  0  0  0  0  0  0  0
   11.8189   -1.0597   14.7003 C   0  0  0  0  0  0  0  0  0  0  0  0
   12.9123   -0.6971   15.3349 N   0  0  0  0  0  0  0  0  0  0  0  0
   13.3904   -1.7684   16.0857 C   0  0  0  0  0  0  0  0  0  0  0  0
   14.5845   -1.6483   16.9040 C   0  0  0  0  0  0  0  0  0  0  0  0
   15.3719   -2.5661   17.1203 O   0  0  0  0  0  0  0  0  0  0  0  0
   14.8309   -0.3331   17.5988 C   0  0  0  0  0  0  0  0  0  0  0  0
   13.8763    0.2261   18.1259 O   0  0  0  0  0  0  0  0  0  0  0  0
   16.2618    0.1482   17.6911 C   0  0  0  0  0  0  0  0  0  0  0  0
   16.2692    1.6605   17.8789 C   0  0  0  0  0  0  0  0  0  0  0  0
   15.9446    2.0628   19.2287 N   0  0  0  0  0  0  0  0  0  0  0  0
   15.9924    1.2902   20.3468 C   0  0  0  0  0  0  0  0  0  0  0  0
   15.6735    1.7552   21.4376 O   0  0  0  0  0  0  0  0  0  0  0  0
   16.3514   -0.1688   20.2009 C   0  0  0  0  0  0  0  0  0  0  0  0
   16.9762   -0.5392   18.8624 C   0  0  0  0  0  0  0  0  0  0  0  0
   18.7354   -0.1918   18.8197 S   0  0  0  0  0  0  0  0  0  0  0  0
   18.9851    1.0971   19.4319 O   0  0  0  0  0  0  0  0  0  0  0  0
   19.2026   -0.4598   17.4720 O   0  0  0  0  0  0  0  0  0  0  0  0
   19.4523   -1.4375   19.8668 C   0  0  0  0  0  0  0  0  0  0  0  0
   19.6216   -2.7328   19.3681 C   0  0  0  0  0  0  0  0  0  0  0  0
   20.1867   -3.7117   20.1848 C   0  0  0  0  0  0  0  0  0  0  0  0
   20.5876   -3.3923   21.4833 C   0  0  0  0  0  0  0  0  0  0  0  0
   20.4331   -2.0922   21.9682 C   0  0  0  0  0  0  0  0  0  0  0  0
   19.8696   -1.1065   21.1585 C   0  0  0  0  0  0  0  0  0  0  0  0
   12.8821   -4.0480   17.8031 H   0  0  0  0  0  0  0  0  0  0  0  0
   13.7445   -4.6629   16.3850 H   0  0  0  0  0  0  0  0  0  0  0  0
   11.9944   -4.8979   16.5345 H   0  0  0  0  0  0  0  0  0  0  0  0
   11.2734   -0.3960   14.0405 H   0  0  0  0  0  0  0  0  0  0  0  0
   16.7378   -0.0808   16.7302 H   0  0  0  0  0  0  0  0  0  0  0  0
   17.2524    2.0828   17.6477 H   0  0  0  0  0  0  0  0  0  0  0  0
   15.5501    2.1526   17.2140 H   0  0  0  0  0  0  0  0  0  0  0  0
   15.6829    3.0274   19.4060 H   0  0  0  0  0  0  0  0  0  0  0  0
   15.4179   -0.7301   20.3330 H   0  0  0  0  0  0  0  0  0  0  0  0
   17.0063   -0.4391   21.0350 H   0  0  0  0  0  0  0  0  0  0  0  0
   16.9125   -1.6260   18.7434 H   0  0  0  0  0  0  0  0  0  0  0  0
   19.3275   -2.9857   18.3517 H   0  0  0  0  0  0  0  0  0  0  0  0
   20.3233   -4.7230   19.8085 H   0  0  0  0  0  0  0  0  0  0  0  0
   21.0318   -4.1568   22.1168 H   0  0  0  0  0  0  0  0  0  0  0  0
   20.7582   -1.8464   22.9766 H   0  0  0  0  0  0  0  0  0  0  0  0
   19.7630   -0.0937   21.5421 H   0  0  0  0  0  0  0  0  0  0  0  0
  1  2  1  0
  2  3  1  0
  3  4  1  0
  4  5  2  0
  5  6  1  0
  6  7  1  0
  7  8  2  0
  7  9  1  0
  9 10  2  0
  9 11  1  0
 11 12  1  0
 12 13  1  0
 13 14  1  0
 14 15  2  0
 14 16  1  0
 16 17  1  0
 17 18  1  0
 18 19  2  0
 18 20  2  0
 18 21  1  0
 21 22  2  0
 22 23  1  0
 23 24  2  0
 24 25  1  0
 25 26  2  0
  6  2  2  0
 17 11  1  0
 26 21  1  0
  1 27  1  0
  1 28  1  0
  1 29  1  0
  4 30  1  0
 11 31  1  0
 12 32  1  0
 12 33  1  0
 13 34  1  0
 16 35  1  0
 16 36  1  0
 17 37  1  0
 22 38  1  0
 23 39  1  0
 24 40  1  0
 25 41  1  0
 26 42  1  0
M  END
>  <Energy>  (597) 
29.743873930134146

>  <compound_id>  (597) 
873

>  <target_id>  (597) 
1

>  <reference_id>  (597) 
26

>  <inspiration_ids>  (597) 
[71, 26]

>  <energy_score>  (597) 
-59.62128592177115

>  <distance_score>  (597) 
0.5596332123836651

>  <path>  (597) 
/opt/xchem-fragalysis-2/maxwin/BulkDock/SCRATCH/505733/C873-P26/C873-P26.minimised.mol

>  <scratch_subdir>  (597) 
/opt/xchem-fragalysis-2/maxwin/BulkDock/SCRATCH/505733/C873-P26

>  <fragmenstein_runtime>  (597) 
3.426795721054077

>  <fragmenstein_outcome>  (597) 
acceptable

>  <fragmenstein_mode>  (597) 
expansion

>  <fragmenstein_error>  (597) 


$$$$
C875-P71
     RDKit          3D

 37 40  0  0  0  0  0  0  0  0999 V2000
   15.2250   -0.4744   13.7867 N   0  0  0  0  0  0  0  0  0  0  0  0
   14.5058   -0.1043   14.9963 C   0  0  0  0  0  0  0  0  0  0  0  0
   13.7721   -1.2681   15.5822 C   0  0  0  0  0  0  0  0  0  0  0  0
   12.6953   -1.8158   14.8443 C   0  0  0  0  0  0  0  0  0  0  0  0
   11.9836   -2.9237   15.2903 C   0  0  0  0  0  0  0  0  0  0  0  0
   12.3478   -3.5132   16.4885 C   0  0  0  0  0  0  0  0  0  0  0  0
   13.3540   -2.9393   17.2532 C   0  0  0  0  0  0  0  0  0  0  0  0
   14.0715   -1.8233   16.8243 C   0  0  0  0  0  0  0  0  0  0  0  0
   15.0672   -1.5016   17.9191 C   0  0  0  0  0  0  0  0  0  0  0  0
   16.5406   -1.8102   17.5441 C   0  0  0  0  0  0  0  0  0  0  0  0
   17.5306   -1.4514   18.6795 C   0  0  0  0  0  0  0  0  0  0  0  0
   17.4223   -0.0106   19.2102 C   0  0  0  0  0  0  0  0  0  0  0  0
   16.0768    0.5706   18.9660 C   0  0  0  0  0  0  0  0  0  0  0  0
   15.7620    1.8780   19.2064 N   0  0  0  0  0  0  0  0  0  0  0  0
   14.5335    2.1385   18.6680 C   0  0  0  0  0  0  0  0  0  0  0  0
   14.0301    0.9646   18.1539 C   0  0  0  0  0  0  0  0  0  0  0  0
   14.9949   -0.0535   18.3589 C   0  0  0  0  0  0  0  0  0  0  0  0
   14.6086   -2.3482   19.0727 N   0  0  0  0  0  0  0  0  0  0  0  0
   13.7899   -3.3951   18.5156 N   0  0  0  0  0  0  0  0  0  0  0  0
   15.6110    0.3635   13.3589 H   0  0  0  0  0  0  0  0  0  0  0  0
   14.5813   -0.8783   13.1104 H   0  0  0  0  0  0  0  0  0  0  0  0
   15.2360    0.3114   15.6924 H   0  0  0  0  0  0  0  0  0  0  0  0
   13.7919    0.6982   14.7754 H   0  0  0  0  0  0  0  0  0  0  0  0
   12.4092   -1.3754   13.8897 H   0  0  0  0  0  0  0  0  0  0  0  0
   11.1758   -3.3337   14.6908 H   0  0  0  0  0  0  0  0  0  0  0  0
   11.8380   -4.4062   16.8302 H   0  0  0  0  0  0  0  0  0  0  0  0
   16.6570   -2.8723   17.2913 H   0  0  0  0  0  0  0  0  0  0  0  0
   16.8294   -1.2514   16.6441 H   0  0  0  0  0  0  0  0  0  0  0  0
   17.3856   -2.1430   19.5183 H   0  0  0  0  0  0  0  0  0  0  0  0
   18.5567   -1.6308   18.3352 H   0  0  0  0  0  0  0  0  0  0  0  0
   17.6670    0.0135   20.2779 H   0  0  0  0  0  0  0  0  0  0  0  0
   18.1682    0.6079   18.6952 H   0  0  0  0  0  0  0  0  0  0  0  0
   16.3687    2.5621   19.6396 H   0  0  0  0  0  0  0  0  0  0  0  0
   14.1103    3.1337   18.7027 H   0  0  0  0  0  0  0  0  0  0  0  0
   13.0864    0.8680   17.6386 H   0  0  0  0  0  0  0  0  0  0  0  0
   15.4105   -2.7510   19.5505 H   0  0  0  0  0  0  0  0  0  0  0  0
   12.9729   -3.6484   19.0886 H   0  0  0  0  0  0  0  0  0  0  0  0
  1  2  1  0
  2  3  1  0
  3  4  2  0
  4  5  1  0
  5  6  2  0
  6  7  1  0
  7  8  2  0
  8  9  1  0
  9 10  1  0
 10 11  1  0
 11 12  1  0
 12 13  1  0
 13 14  1  0
 14 15  1  0
 15 16  2  0
 16 17  1  0
  9 18  1  0
 18 19  1  0
  8  3  1  0
 17  9  1  0
 19  7  1  0
 17 13  2  0
  1 20  1  0
  1 21  1  0
  2 22  1  0
  2 23  1  0
  4 24  1  0
  5 25  1  0
  6 26  1  0
 10 27  1  0
 10 28  1  0
 11 29  1  0
 11 30  1  0
 12 31  1  0
 12 32  1  0
 14 33  1  0
 15 34  1  0
 16 35  1  0
 18 36  1  0
 19 37  1  0
M  END
>  <Energy>  (598) 
82.71832326577811

>  <compound_id>  (598) 
875

>  <target_id>  (598) 
1

>  <reference_id>  (598) 
71

>  <inspiration_ids>  (598) 
[71, 31]

>  <energy_score>  (598) 
-44.57500884630227

>  <distance_score>  (598) 
1.8791565950874947

>  <path>  (598) 
/opt/xchem-fragalysis-2/maxwin/BulkDock/SCRATCH/505733/C875-P71/C875-P71.minimised.mol

>  <scratch_subdir>  (598) 
/opt/xchem-fragalysis-2/maxwin/BulkDock/SCRATCH/505733/C875-P71

>  <fragmenstein_runtime>  (598) 
1.977020263671875

>  <fragmenstein_outcome>  (598) 
too moved

>  <fragmenstein_mode>  (598) 
expansion

>  <fragmenstein_error>  (598) 


$$$$
C875-P31
     RDKit          3D

 37 40  0  0  0  0  0  0  0  0999 V2000
   14.5559    0.1631   14.2618 N   0  0  0  0  0  0  0  0  0  0  0  0
   15.3418   -0.8428   14.9865 C   0  0  0  0  0  0  0  0  0  0  0  0
   14.5054   -1.7587   15.8363 C   0  0  0  0  0  0  0  0  0  0  0  0
   13.2543   -2.1620   15.2918 C   0  0  0  0  0  0  0  0  0  0  0  0
   12.4193   -3.0500   15.9464 C   0  0  0  0  0  0  0  0  0  0  0  0
   12.8572   -3.5841   17.1433 C   0  0  0  0  0  0  0  0  0  0  0  0
   14.0739   -3.1879   17.6960 C   0  0  0  0  0  0  0  0  0  0  0  0
   14.8974   -2.2490   17.1020 C   0  0  0  0  0  0  0  0  0  0  0  0
   16.1157   -2.1071   18.0322 C   0  0  0  0  0  0  0  0  0  0  0  0
   17.4775   -2.0830   17.2944 C   0  0  0  0  0  0  0  0  0  0  0  0
   18.6383   -1.5062   18.1239 C   0  0  0  0  0  0  0  0  0  0  0  0
   18.3520   -0.0655   18.5688 C   0  0  0  0  0  0  0  0  0  0  0  0
   17.0573   -0.0526   19.2783 C   0  0  0  0  0  0  0  0  0  0  0  0
   16.7415    0.8164   20.2776 N   0  0  0  0  0  0  0  0  0  0  0  0
   15.5732    0.4021   20.8459 C   0  0  0  0  0  0  0  0  0  0  0  0
   15.1335   -0.7188   20.1716 C   0  0  0  0  0  0  0  0  0  0  0  0
   16.0300   -0.9668   19.0889 C   0  0  0  0  0  0  0  0  0  0  0  0
   16.0346   -3.3499   18.8711 N   0  0  0  0  0  0  0  0  0  0  0  0
   14.6439   -3.7032   18.8877 N   0  0  0  0  0  0  0  0  0  0  0  0
   14.0951    0.7275   14.9757 H   0  0  0  0  0  0  0  0  0  0  0  0
   15.2024    0.7861   13.7844 H   0  0  0  0  0  0  0  0  0  0  0  0
   16.0570   -0.2849   15.5936 H   0  0  0  0  0  0  0  0  0  0  0  0
   15.9077   -1.4458   14.2680 H   0  0  0  0  0  0  0  0  0  0  0  0
   12.9444   -1.7913   14.3141 H   0  0  0  0  0  0  0  0  0  0  0  0
   11.4872   -3.3728   15.4943 H   0  0  0  0  0  0  0  0  0  0  0  0
   12.2881   -4.3736   17.6164 H   0  0  0  0  0  0  0  0  0  0  0  0
   17.7408   -3.0958   16.9594 H   0  0  0  0  0  0  0  0  0  0  0  0
   17.4332   -1.4948   16.3779 H   0  0  0  0  0  0  0  0  0  0  0  0
   18.8174   -2.1451   18.9984 H   0  0  0  0  0  0  0  0  0  0  0  0
   19.5567   -1.5232   17.5256 H   0  0  0  0  0  0  0  0  0  0  0  0
   19.1630    0.2872   19.2154 H   0  0  0  0  0  0  0  0  0  0  0  0
   18.3050    0.5974   17.6972 H   0  0  0  0  0  0  0  0  0  0  0  0
   17.3357    1.5585   20.6264 H   0  0  0  0  0  0  0  0  0  0  0  0
   15.1629    0.9061   21.7112 H   0  0  0  0  0  0  0  0  0  0  0  0
   14.2536   -1.2832   20.4378 H   0  0  0  0  0  0  0  0  0  0  0  0
   16.3955   -3.1567   19.8066 H   0  0  0  0  0  0  0  0  0  0  0  0
   14.1038   -3.3625   19.6877 H   0  0  0  0  0  0  0  0  0  0  0  0
  1  2  1  0
  2  3  1  0
  3  4  2  0
  4  5  1  0
  5  6  2  0
  6  7  1  0
  7  8  2  0
  8  9  1  0
  9 10  1  0
 10 11  1  0
 11 12  1  0
 12 13  1  0
 13 14  1  0
 14 15  1  0
 15 16  2  0
 16 17  1  0
  9 18  1  0
 18 19  1  0
  8  3  1  0
 17  9  1  0
 19  7  1  0
 17 13  2  0
  1 20  1  0
  1 21  1  0
  2 22  1  0
  2 23  1  0
  4 24  1  0
  5 25  1  0
  6 26  1  0
 10 27  1  0
 10 28  1  0
 11 29  1  0
 11 30  1  0
 12 31  1  0
 12 32  1  0
 14 33  1  0
 15 34  1  0
 16 35  1  0
 18 36  1  0
 19 37  1  0
M  END
>  <Energy>  (599) 
95.362514554788604

>  <compound_id>  (599) 
875

>  <target_id>  (599) 
1

>  <reference_id>  (599) 
31

>  <inspiration_ids>  (599) 
[71, 31]

>  <energy_score>  (599) 
-31.93081755729299

>  <distance_score>  (599) 
2.3710976568075246

>  <path>  (599) 
/opt/xchem-fragalysis-2/maxwin/BulkDock/SCRATCH/505733/C875-P31/C875-P31.minimised.mol

>  <scratch_subdir>  (599) 
/opt/xchem-fragalysis-2/maxwin/BulkDock/SCRATCH/505733/C875-P31

>  <fragmenstein_runtime>  (599) 
1.674696922302246

>  <fragmenstein_outcome>  (599) 
too moved

>  <fragmenstein_mode>  (599) 
expansion

>  <fragmenstein_error>  (599) 


$$$$
C876-P71
     RDKit          3D

 31 33  0  0  0  0  0  0  0  0999 V2000
   13.8990   -3.8364   16.3077 C   0  0  0  0  0  0  0  0  0  0  0  0
   12.6765   -2.9561   16.5296 C   0  0  0  0  0  0  0  0  0  0  0  0
   11.7650   -2.8237   15.3219 C   0  0  0  0  0  0  0  0  0  0  0  0
   12.4067   -1.7203   14.5270 C   0  0  0  0  0  0  0  0  0  0  0  0
   12.9950   -0.8495   15.4839 O   0  0  0  0  0  0  0  0  0  0  0  0
   13.0259   -1.4972   16.7826 C   0  0  0  0  0  0  0  0  0  0  0  0
   14.3155   -1.1533   17.4873 C   0  0  0  0  0  0  0  0  0  0  0  0
   15.2601   -0.5016   16.7968 C   0  0  0  0  0  0  0  0  0  0  0  0
   16.4436   -0.1970   17.4000 N   0  0  0  0  0  0  0  0  0  0  0  0
   17.6703   -0.0901   16.8261 C   0  0  0  0  0  0  0  0  0  0  0  0
   17.8940   -0.5231   15.5684 N   0  0  0  0  0  0  0  0  0  0  0  0
   18.5157    0.3116   17.7434 N   0  0  0  0  0  0  0  0  0  0  0  0
   17.8908    0.2013   18.9736 N   0  0  0  0  0  0  0  0  0  0  0  0
   16.6833   -0.2564   18.7450 C   0  0  0  0  0  0  0  0  0  0  0  0
   15.7301   -0.9598   19.5166 C   0  0  0  0  0  0  0  0  0  0  0  0
   14.6572   -1.4857   18.8853 C   0  0  0  0  0  0  0  0  0  0  0  0
   13.8727   -2.4467   19.4719 O   0  0  0  0  0  0  0  0  0  0  0  0
   13.5835   -4.8455   16.0454 H   0  0  0  0  0  0  0  0  0  0  0  0
   14.5605   -3.4419   15.5321 H   0  0  0  0  0  0  0  0  0  0  0  0
   14.4910   -3.9332   17.2232 H   0  0  0  0  0  0  0  0  0  0  0  0
   12.1445   -3.3891   17.3744 H   0  0  0  0  0  0  0  0  0  0  0  0
   10.7761   -2.4859   15.6498 H   0  0  0  0  0  0  0  0  0  0  0  0
   11.6212   -3.7340   14.7445 H   0  0  0  0  0  0  0  0  0  0  0  0
   13.1989   -2.0971   13.8726 H   0  0  0  0  0  0  0  0  0  0  0  0
   11.6919   -1.1636   13.9170 H   0  0  0  0  0  0  0  0  0  0  0  0
   12.2075   -1.0049   17.2957 H   0  0  0  0  0  0  0  0  0  0  0  0
   15.1863   -0.2593   15.7433 H   0  0  0  0  0  0  0  0  0  0  0  0
   18.8765   -0.6621   15.3436 H   0  0  0  0  0  0  0  0  0  0  0  0
   17.3156   -1.2681   15.1928 H   0  0  0  0  0  0  0  0  0  0  0  0
   15.9857   -1.2079   20.5394 H   0  0  0  0  0  0  0  0  0  0  0  0
   14.0703   -2.4955   20.4264 H   0  0  0  0  0  0  0  0  0  0  0  0
  1  2  1  0
  2  3  1  0
  3  4  1  0
  4  5  1  0
  5  6  1  0
  6  7  1  0
  7  8  2  0
  8  9  1  0
  9 10  1  0
 10 11  1  0
 10 12  2  0
 12 13  1  0
 13 14  2  0
 14 15  1  0
 15 16  2  0
 16 17  1  0
  6  2  1  0
 16  7  1  0
 14  9  1  0
  1 18  1  0
  1 19  1  0
  1 20  1  0
  2 21  1  0
  3 22  1  0
  3 23  1  0
  4 24  1  0
  4 25  1  0
  6 26  1  0
  8 27  1  0
 11 28  1  0
 11 29  1  0
 15 30  1  0
 17 31  1  0
M  END
>  <Energy>  (600) 
48.470727119308918

>  <compound_id>  (600) 
876

>  <target_id>  (600) 
1

>  <reference_id>  (600) 
71

>  <inspiration_ids>  (600) 
[71, 36]

>  <energy_score>  (600) 
-41.96164822290464

>  <distance_score>  (600) 
3.1667727665406558

>  <path>  (600) 
/opt/xchem-fragalysis-2/maxwin/BulkDock/SCRATCH/505733/C876-P71/C876-P71.minimised.mol

>  <scratch_subdir>  (600) 
/opt/xchem-fragalysis-2/maxwin/BulkDock/SCRATCH/505733/C876-P71

>  <fragmenstein_runtime>  (600) 
2.143721580505371

>  <fragmenstein_outcome>  (600) 
too moved

>  <fragmenstein_mode>  (600) 
expansion

>  <fragmenstein_error>  (600) 


$$$$
C876-P36
     RDKit          3D

 31 33  0  0  0  0  0  0  0  0999 V2000
   13.8789   -3.8357   16.3614 C   0  0  0  0  0  0  0  0  0  0  0  0
   12.6823   -2.9233   16.5934 C   0  0  0  0  0  0  0  0  0  0  0  0
   11.7382   -2.7892   15.4113 C   0  0  0  0  0  0  0  0  0  0  0  0
   12.3784   -1.7180   14.5728 C   0  0  0  0  0  0  0  0  0  0  0  0
   13.0291   -0.8504   15.4917 O   0  0  0  0  0  0  0  0  0  0  0  0
   13.0674   -1.4678   16.8055 C   0  0  0  0  0  0  0  0  0  0  0  0
   14.3692   -1.1317   17.4898 C   0  0  0  0  0  0  0  0  0  0  0  0
   15.3116   -0.5069   16.7729 C   0  0  0  0  0  0  0  0  0  0  0  0
   16.5029   -0.1952   17.3554 N   0  0  0  0  0  0  0  0  0  0  0  0
   17.7230   -0.1092   16.7649 C   0  0  0  0  0  0  0  0  0  0  0  0
   17.9283   -0.5713   15.5144 N   0  0  0  0  0  0  0  0  0  0  0  0
   18.5808    0.3103   17.6625 N   0  0  0  0  0  0  0  0  0  0  0  0
   17.9688    0.2366   18.9022 N   0  0  0  0  0  0  0  0  0  0  0  0
   16.7562   -0.2191   18.6988 C   0  0  0  0  0  0  0  0  0  0  0  0
   15.8080   -0.8969   19.4984 C   0  0  0  0  0  0  0  0  0  0  0  0
   14.7263   -1.4335   18.8918 C   0  0  0  0  0  0  0  0  0  0  0  0
   13.9545   -2.3853   19.5091 O   0  0  0  0  0  0  0  0  0  0  0  0
   13.5383   -4.8397   16.1068 H   0  0  0  0  0  0  0  0  0  0  0  0
   14.5437   -3.4585   15.5804 H   0  0  0  0  0  0  0  0  0  0  0  0
   14.4775   -3.9403   17.2721 H   0  0  0  0  0  0  0  0  0  0  0  0
   12.1667   -3.3263   17.4624 H   0  0  0  0  0  0  0  0  0  0  0  0
   10.7715   -2.4138   15.7627 H   0  0  0  0  0  0  0  0  0  0  0  0
   11.5453   -3.7062   14.8615 H   0  0  0  0  0  0  0  0  0  0  0  0
   13.1327   -2.1237   13.8925 H   0  0  0  0  0  0  0  0  0  0  0  0
   11.6522   -1.1525   13.9834 H   0  0  0  0  0  0  0  0  0  0  0  0
   12.2660   -0.9459   17.3158 H   0  0  0  0  0  0  0  0  0  0  0  0
   15.2281   -0.2889   15.7146 H   0  0  0  0  0  0  0  0  0  0  0  0
   17.3383   -1.3172   15.1585 H   0  0  0  0  0  0  0  0  0  0  0  0
   18.9064   -0.7226   15.2793 H   0  0  0  0  0  0  0  0  0  0  0  0
   16.0761   -1.1234   20.5231 H   0  0  0  0  0  0  0  0  0  0  0  0
   14.1761   -2.4237   20.4588 H   0  0  0  0  0  0  0  0  0  0  0  0
  1  2  1  0
  2  3  1  0
  3  4  1  0
  4  5  1  0
  5  6  1  0
  6  7  1  0
  7  8  2  0
  8  9  1  0
  9 10  1  0
 10 11  1  0
 10 12  2  0
 12 13  1  0
 13 14  2  0
 14 15  1  0
 15 16  2  0
 16 17  1  0
  6  2  1  0
 16  7  1  0
 14  9  1  0
  1 18  1  0
  1 19  1  0
  1 20  1  0
  2 21  1  0
  3 22  1  0
  3 23  1  0
  4 24  1  0
  4 25  1  0
  6 26  1  0
  8 27  1  0
 11 28  1  0
 11 29  1  0
 15 30  1  0
 17 31  1  0
M  END
>  <Energy>  (601) 
48.963099031490586

>  <compound_id>  (601) 
876

>  <target_id>  (601) 
1

>  <reference_id>  (601) 
36

>  <inspiration_ids>  (601) 
[71, 36]

>  <energy_score>  (601) 
-41.469276310721085

>  <distance_score>  (601) 
3.1334515034851944

>  <path>  (601) 
/opt/xchem-fragalysis-2/maxwin/BulkDock/SCRATCH/505733/C876-P36/C876-P36.minimised.mol

>  <scratch_subdir>  (601) 
/opt/xchem-fragalysis-2/maxwin/BulkDock/SCRATCH/505733/C876-P36

>  <fragmenstein_runtime>  (601) 
2.186310052871704

>  <fragmenstein_outcome>  (601) 
too moved

>  <fragmenstein_mode>  (601) 
expansion

>  <fragmenstein_error>  (601) 


$$$$
C881-P71
     RDKit          3D

 41 43  0  0  0  0  0  0  0  0999 V2000
   18.4364   -1.5829   18.4862 C   0  0  0  0  0  0  0  0  0  0  0  0
   17.0424   -1.0180   18.3924 N   0  0  0  0  0  0  0  0  0  0  0  0
   17.4524   -0.4602   19.7343 C   0  0  0  0  0  0  0  0  0  0  0  0
   16.2879    0.3774   20.2674 C   0  0  0  0  0  0  0  0  0  0  0  0
   16.1212    1.7161   19.8887 C   0  0  0  0  0  0  0  0  0  0  0  0
   15.0771    2.4815   20.4101 C   0  0  0  0  0  0  0  0  0  0  0  0
   14.1872    1.9144   21.3172 C   0  0  0  0  0  0  0  0  0  0  0  0
   14.3300    0.5782   21.6837 C   0  0  0  0  0  0  0  0  0  0  0  0
   15.3661   -0.1911   21.1513 C   0  0  0  0  0  0  0  0  0  0  0  0
   16.0349   -2.0997   18.0415 C   0  0  0  0  0  0  0  0  0  0  0  0
   15.4227   -2.7825   18.7177 O   0  0  0  0  0  0  0  0  0  0  0  0
   16.0483   -1.9692   16.5149 N   0  0  0  0  0  0  0  0  0  0  0  0
   15.3663   -2.7329   15.5101 C   0  0  0  0  0  0  0  0  0  0  0  0
   14.3545   -1.8393   14.8680 C   0  0  0  0  0  0  0  0  0  0  0  0
   14.6736   -1.1502   13.7556 C   0  0  0  0  0  0  0  0  0  0  0  0
   13.7091   -0.2635   13.1386 C   0  0  0  0  0  0  0  0  0  0  0  0
   12.4853   -0.0816   13.6526 C   0  0  0  0  0  0  0  0  0  0  0  0
   12.1024   -0.8447   14.7762 C   0  0  0  0  0  0  0  0  0  0  0  0
   10.9468   -0.9561   15.3839 N   0  0  0  0  0  0  0  0  0  0  0  0
   11.0737   -1.9745   16.2758 N   0  0  0  0  0  0  0  0  0  0  0  0
   12.3259   -2.3689   16.3234 C   0  0  0  0  0  0  0  0  0  0  0  0
   12.8500   -3.2977   17.1604 N   0  0  0  0  0  0  0  0  0  0  0  0
   13.0402   -1.7104   15.3442 N   0  0  0  0  0  0  0  0  0  0  0  0
   18.5729   -2.1339   17.5427 H   0  0  0  0  0  0  0  0  0  0  0  0
   18.5653   -2.3781   19.2377 H   0  0  0  0  0  0  0  0  0  0  0  0
   19.2516   -0.8444   18.4483 H   0  0  0  0  0  0  0  0  0  0  0  0
   18.2928    0.2533   19.6971 H   0  0  0  0  0  0  0  0  0  0  0  0
   17.6079   -1.2321   20.5072 H   0  0  0  0  0  0  0  0  0  0  0  0
   16.8091    2.1721   19.1807 H   0  0  0  0  0  0  0  0  0  0  0  0
   14.9557    3.5178   20.1067 H   0  0  0  0  0  0  0  0  0  0  0  0
   13.3710    2.5054   21.7232 H   0  0  0  0  0  0  0  0  0  0  0  0
   13.6246    0.1241   22.3759 H   0  0  0  0  0  0  0  0  0  0  0  0
   15.4392   -1.2394   21.4353 H   0  0  0  0  0  0  0  0  0  0  0  0
   16.6534   -1.2048   16.2454 H   0  0  0  0  0  0  0  0  0  0  0  0
   16.1286   -3.0471   14.7876 H   0  0  0  0  0  0  0  0  0  0  0  0
   14.9539   -3.6472   15.9381 H   0  0  0  0  0  0  0  0  0  0  0  0
   15.6586   -1.2121   13.3014 H   0  0  0  0  0  0  0  0  0  0  0  0
   14.0202    0.2801   12.2510 H   0  0  0  0  0  0  0  0  0  0  0  0
   11.7614    0.5838   13.1999 H   0  0  0  0  0  0  0  0  0  0  0  0
   13.7194   -3.0515   17.6433 H   0  0  0  0  0  0  0  0  0  0  0  0
   12.2050   -3.6356   17.8782 H   0  0  0  0  0  0  0  0  0  0  0  0
  1  2  1  0
  2  3  1  0
  3  4  1  0
  4  5  2  0
  5  6  1  0
  6  7  2  0
  7  8  1  0
  8  9  2  0
  2 10  1  0
 10 11  2  0
 10 12  1  0
 12 13  1  0
 13 14  1  0
 14 15  2  0
 15 16  1  0
 16 17  2  0
 17 18  1  0
 18 19  2  0
 19 20  1  0
 20 21  2  0
 21 22  1  0
 21 23  1  0
  9  4  1  0
 23 14  1  0
 23 18  1  0
  1 24  1  0
  1 25  1  0
  1 26  1  0
  3 27  1  0
  3 28  1  0
  5 29  1  0
  6 30  1  0
  7 31  1  0
  8 32  1  0
  9 33  1  0
 12 34  1  0
 13 35  1  0
 13 36  1  0
 15 37  1  0
 16 38  1  0
 17 39  1  0
 22 40  1  0
 22 41  1  0
M  END
>  <Energy>  (602) 
43.371766651026633

>  <compound_id>  (602) 
881

>  <target_id>  (602) 
1

>  <reference_id>  (602) 
71

>  <inspiration_ids>  (602) 
[71, 66]

>  <energy_score>  (602) 
49.72917696044478

>  <distance_score>  (602) 
2.4716460426430125

>  <path>  (602) 
/opt/xchem-fragalysis-2/maxwin/BulkDock/SCRATCH/505733/C881-P71/C881-P71.minimised.mol

>  <scratch_subdir>  (602) 
/opt/xchem-fragalysis-2/maxwin/BulkDock/SCRATCH/505733/C881-P71

>  <fragmenstein_runtime>  (602) 
3.1383278369903564

>  <fragmenstein_outcome>  (602) 
too moved

>  <fragmenstein_mode>  (602) 
expansion

>  <fragmenstein_error>  (602) 


$$$$
C881-P66
     RDKit          3D

 41 43  0  0  0  0  0  0  0  0999 V2000
   17.9234   -2.1475   19.6394 C   0  0  0  0  0  0  0  0  0  0  0  0
   16.7873   -1.3201   19.0944 N   0  0  0  0  0  0  0  0  0  0  0  0
   16.9073   -0.7109   20.4719 C   0  0  0  0  0  0  0  0  0  0  0  0
   16.0155    0.5339   20.4786 C   0  0  0  0  0  0  0  0  0  0  0  0
   14.9392    0.6545   21.3680 C   0  0  0  0  0  0  0  0  0  0  0  0
   14.1576    1.8113   21.3805 C   0  0  0  0  0  0  0  0  0  0  0  0
   14.4402    2.8547   20.5016 C   0  0  0  0  0  0  0  0  0  0  0  0
   15.5057    2.7431   19.6101 C   0  0  0  0  0  0  0  0  0  0  0  0
   16.2915    1.5890   19.5996 C   0  0  0  0  0  0  0  0  0  0  0  0
   15.7064   -2.1995   18.4999 C   0  0  0  0  0  0  0  0  0  0  0  0
   14.7840   -2.6593   18.9834 O   0  0  0  0  0  0  0  0  0  0  0  0
   16.2072   -2.2709   17.0537 N   0  0  0  0  0  0  0  0  0  0  0  0
   15.6065   -2.8557   15.8891 C   0  0  0  0  0  0  0  0  0  0  0  0
   14.4968   -1.9872   15.3728 C   0  0  0  0  0  0  0  0  0  0  0  0
   14.7576   -0.9481   14.5546 C   0  0  0  0  0  0  0  0  0  0  0  0
   13.6770   -0.2184   13.9160 C   0  0  0  0  0  0  0  0  0  0  0  0
   12.3977   -0.5882   14.0554 C   0  0  0  0  0  0  0  0  0  0  0  0
   12.1033   -1.7062   14.8628 C   0  0  0  0  0  0  0  0  0  0  0  0
   10.9740   -2.3293   15.0966 N   0  0  0  0  0  0  0  0  0  0  0  0
   11.2465   -3.3651   15.9367 N   0  0  0  0  0  0  0  0  0  0  0  0
   12.5060   -3.3050   16.2897 C   0  0  0  0  0  0  0  0  0  0  0  0
   13.0799   -4.0467   17.2661 N   0  0  0  0  0  0  0  0  0  0  0  0
   13.1465   -2.3325   15.5469 N   0  0  0  0  0  0  0  0  0  0  0  0
   17.6631   -2.8150   20.4766 H   0  0  0  0  0  0  0  0  0  0  0  0
   18.1600   -2.8625   18.8364 H   0  0  0  0  0  0  0  0  0  0  0  0
   18.8715   -1.6013   19.7580 H   0  0  0  0  0  0  0  0  0  0  0  0
   17.8914   -0.2993   20.7542 H   0  0  0  0  0  0  0  0  0  0  0  0
   16.4964   -1.3804   21.2448 H   0  0  0  0  0  0  0  0  0  0  0  0
   14.6881   -0.1577   22.0489 H   0  0  0  0  0  0  0  0  0  0  0  0
   13.3217    1.8897   22.0714 H   0  0  0  0  0  0  0  0  0  0  0  0
   13.8283    3.7526   20.5107 H   0  0  0  0  0  0  0  0  0  0  0  0
   15.7264    3.5563   18.9240 H   0  0  0  0  0  0  0  0  0  0  0  0
   17.1202    1.5156   18.8994 H   0  0  0  0  0  0  0  0  0  0  0  0
   17.0191   -1.6782   16.9466 H   0  0  0  0  0  0  0  0  0  0  0  0
   16.3987   -2.9519   15.1373 H   0  0  0  0  0  0  0  0  0  0  0  0
   15.2866   -3.8712   16.1288 H   0  0  0  0  0  0  0  0  0  0  0  0
   15.7743   -0.6527   14.3114 H   0  0  0  0  0  0  0  0  0  0  0  0
   13.9418    0.6297   13.2913 H   0  0  0  0  0  0  0  0  0  0  0  0
   11.5827   -0.0721   13.5633 H   0  0  0  0  0  0  0  0  0  0  0  0
   12.3725   -4.4606   17.8807 H   0  0  0  0  0  0  0  0  0  0  0  0
   13.7438   -3.5586   17.8778 H   0  0  0  0  0  0  0  0  0  0  0  0
  1  2  1  0
  2  3  1  0
  3  4  1  0
  4  5  2  0
  5  6  1  0
  6  7  2  0
  7  8  1  0
  8  9  2  0
  2 10  1  0
 10 11  2  0
 10 12  1  0
 12 13  1  0
 13 14  1  0
 14 15  2  0
 15 16  1  0
 16 17  2  0
 17 18  1  0
 18 19  2  0
 19 20  1  0
 20 21  2  0
 21 22  1  0
 21 23  1  0
  9  4  1  0
 23 14  1  0
 23 18  1  0
  1 24  1  0
  1 25  1  0
  1 26  1  0
  3 27  1  0
  3 28  1  0
  5 29  1  0
  6 30  1  0
  7 31  1  0
  8 32  1  0
  9 33  1  0
 12 34  1  0
 13 35  1  0
 13 36  1  0
 15 37  1  0
 16 38  1  0
 17 39  1  0
 22 40  1  0
 22 41  1  0
M  END
>  <Energy>  (603) 
43.527530140512042

>  <compound_id>  (603) 
881

>  <target_id>  (603) 
1

>  <reference_id>  (603) 
66

>  <inspiration_ids>  (603) 
[71, 66]

>  <energy_score>  (603) 
49.884940449931854

>  <distance_score>  (603) 
2.502229250235052

>  <path>  (603) 
/opt/xchem-fragalysis-2/maxwin/BulkDock/SCRATCH/505733/C881-P66/C881-P66.minimised.mol

>  <scratch_subdir>  (603) 
/opt/xchem-fragalysis-2/maxwin/BulkDock/SCRATCH/505733/C881-P66

>  <fragmenstein_runtime>  (603) 
2.841468334197998

>  <fragmenstein_outcome>  (603) 
too moved

>  <fragmenstein_mode>  (603) 
expansion

>  <fragmenstein_error>  (603) 


$$$$
C881-P71
     RDKit          2D

  0  0  0  0  0  0  0  0  0  0999 V2000
M  END
>  <compound_id>  (604) 
881

>  <target_id>  (604) 
1

>  <reference_id>  (604) 
71

>  <inspiration_ids>  (604) 
[71, 76]

>  <energy_score>  (604) 
nan

>  <distance_score>  (604) 
nan

>  <path>  (604) 
/opt/xchem-fragalysis-2/maxwin/BulkDock/SCRATCH/505733/C881-P71/C881-P71.minimised.mol

>  <scratch_subdir>  (604) 
/opt/xchem-fragalysis-2/maxwin/BulkDock/SCRATCH/505733/C881-P71

>  <fragmenstein_runtime>  (604) 
0.47791433334350586

>  <fragmenstein_outcome>  (604) 
crashed

>  <fragmenstein_mode>  (604) 
expansion

>  <fragmenstein_error>  (604) 
PoisonError: None has poison atoms [17, 22]

$$$$
C882-P71
     RDKit          3D

 37 40  0  0  0  0  0  0  0  0999 V2000
   14.7347    2.8349   21.9608 C   0  0  0  0  0  0  0  0  0  0  0  0
   15.8970    2.8061   21.1320 O   0  0  0  0  0  0  0  0  0  0  0  0
   15.8425    1.8246   20.1809 C   0  0  0  0  0  0  0  0  0  0  0  0
   15.9241    2.2525   18.8486 C   0  0  0  0  0  0  0  0  0  0  0  0
   15.7885    1.3406   17.8024 C   0  0  0  0  0  0  0  0  0  0  0  0
   15.5784   -0.0006   18.1027 C   0  0  0  0  0  0  0  0  0  0  0  0
   15.1836   -1.0113   17.1016 C   0  0  0  0  0  0  0  0  0  0  0  0
   15.8852   -2.1787   17.1848 C   0  0  0  0  0  0  0  0  0  0  0  0
   15.2686   -3.4745   16.8963 C   0  0  0  0  0  0  0  0  0  0  0  0
   13.9653   -3.4701   16.5946 C   0  0  0  0  0  0  0  0  0  0  0  0
   13.0258   -4.4492   16.3997 N   0  0  0  0  0  0  0  0  0  0  0  0
   11.8637   -3.8836   15.8186 N   0  0  0  0  0  0  0  0  0  0  0  0
   12.1097   -2.5905   15.7987 C   0  0  0  0  0  0  0  0  0  0  0  0
   11.2699   -1.5109   15.2529 C   0  0  0  0  0  0  0  0  0  0  0  0
   11.8032   -0.2751   15.3450 C   0  0  0  0  0  0  0  0  0  0  0  0
   13.1071   -0.0053   15.9805 C   0  0  0  0  0  0  0  0  0  0  0  0
   13.8582   -1.0300   16.4450 C   0  0  0  0  0  0  0  0  0  0  0  0
   13.3291   -2.2883   16.3318 N   0  0  0  0  0  0  0  0  0  0  0  0
   15.5756   -0.4235   19.4547 C   0  0  0  0  0  0  0  0  0  0  0  0
   15.7240    0.4726   20.5023 C   0  0  0  0  0  0  0  0  0  0  0  0
   15.7363    0.1361   21.8275 O   0  0  0  0  0  0  0  0  0  0  0  0
   15.4403   -1.2129   22.1685 C   0  0  0  0  0  0  0  0  0  0  0  0
   14.5625    3.8755   22.2532 H   0  0  0  0  0  0  0  0  0  0  0  0
   13.8342    2.4800   21.4455 H   0  0  0  0  0  0  0  0  0  0  0  0
   14.9067    2.2593   22.8749 H   0  0  0  0  0  0  0  0  0  0  0  0
   16.0524    3.3103   18.6341 H   0  0  0  0  0  0  0  0  0  0  0  0
   15.8050    1.6895   16.7744 H   0  0  0  0  0  0  0  0  0  0  0  0
   16.8291   -2.2376   17.7242 H   0  0  0  0  0  0  0  0  0  0  0  0
   15.8231   -4.3848   17.0796 H   0  0  0  0  0  0  0  0  0  0  0  0
   13.3302   -5.3684   16.0927 H   0  0  0  0  0  0  0  0  0  0  0  0
   10.3193   -1.7534   14.8072 H   0  0  0  0  0  0  0  0  0  0  0  0
   11.2649    0.5801   14.9489 H   0  0  0  0  0  0  0  0  0  0  0  0
   13.4367    1.0253   16.0397 H   0  0  0  0  0  0  0  0  0  0  0  0
   15.3915   -1.4725   19.6716 H   0  0  0  0  0  0  0  0  0  0  0  0
   16.2229   -1.8878   21.8068 H   0  0  0  0  0  0  0  0  0  0  0  0
   15.4172   -1.2840   23.2601 H   0  0  0  0  0  0  0  0  0  0  0  0
   14.4569   -1.5120   21.7945 H   0  0  0  0  0  0  0  0  0  0  0  0
  1  2  1  0
  2  3  1  0
  3  4  2  0
  4  5  1  0
  5  6  2  0
  6  7  1  0
  7  8  2  0
  8  9  1  0
  9 10  2  0
 10 11  1  0
 11 12  1  0
 12 13  2  0
 13 14  1  0
 14 15  2  0
 15 16  1  0
 16 17  2  0
 17 18  1  0
  6 19  1  0
 19 20  2  0
 20 21  1  0
 21 22  1  0
 20  3  1  0
 17  7  1  0
 18 10  1  0
 18 13  1  0
  1 23  1  0
  1 24  1  0
  1 25  1  0
  4 26  1  0
  5 27  1  0
  8 28  1  0
  9 29  1  0
 11 30  1  0
 14 31  1  0
 15 32  1  0
 16 33  1  0
 19 34  1  0
 22 35  1  0
 22 36  1  0
 22 37  1  0
M  END
>  <Energy>  (605) 
121.99595486659211

>  <compound_id>  (605) 
882

>  <target_id>  (605) 
1

>  <reference_id>  (605) 
71

>  <inspiration_ids>  (605) 
[71, 81]

>  <energy_score>  (605) 
-24.85673256196955

>  <distance_score>  (605) 
1.557168772275754

>  <path>  (605) 
/opt/xchem-fragalysis-2/maxwin/BulkDock/SCRATCH/505733/C882-P71/C882-P71.minimised.mol

>  <scratch_subdir>  (605) 
/opt/xchem-fragalysis-2/maxwin/BulkDock/SCRATCH/505733/C882-P71

>  <fragmenstein_runtime>  (605) 
4.014336585998535

>  <fragmenstein_outcome>  (605) 
too moved

>  <fragmenstein_mode>  (605) 
expansion

>  <fragmenstein_error>  (605) 


$$$$
C882-P81
     RDKit          3D

 37 40  0  0  0  0  0  0  0  0999 V2000
   14.4637    3.1022   21.5757 C   0  0  0  0  0  0  0  0  0  0  0  0
   15.7925    2.8173   21.1315 O   0  0  0  0  0  0  0  0  0  0  0  0
   15.7671    1.8661   20.1478 C   0  0  0  0  0  0  0  0  0  0  0  0
   15.8565    2.2958   18.8179 C   0  0  0  0  0  0  0  0  0  0  0  0
   15.7429    1.3766   17.7756 C   0  0  0  0  0  0  0  0  0  0  0  0
   15.5464    0.0333   18.0808 C   0  0  0  0  0  0  0  0  0  0  0  0
   15.1769   -0.9869   17.0795 C   0  0  0  0  0  0  0  0  0  0  0  0
   15.8953   -2.1425   17.1819 C   0  0  0  0  0  0  0  0  0  0  0  0
   15.2985   -3.4500   16.9088 C   0  0  0  0  0  0  0  0  0  0  0  0
   13.9982   -3.4669   16.5957 C   0  0  0  0  0  0  0  0  0  0  0  0
   13.0752   -4.4605   16.4078 N   0  0  0  0  0  0  0  0  0  0  0  0
   11.9108   -3.9236   15.8060 N   0  0  0  0  0  0  0  0  0  0  0  0
   12.1388   -2.6275   15.7643 C   0  0  0  0  0  0  0  0  0  0  0  0
   11.2938   -1.5695   15.1818 C   0  0  0  0  0  0  0  0  0  0  0  0
   11.8080   -0.3245   15.2664 C   0  0  0  0  0  0  0  0  0  0  0  0
   13.0982   -0.0255   15.9195 C   0  0  0  0  0  0  0  0  0  0  0  0
   13.8578   -1.0320   16.4097 C   0  0  0  0  0  0  0  0  0  0  0  0
   13.3472   -2.2988   16.3089 N   0  0  0  0  0  0  0  0  0  0  0  0
   15.5342   -0.3860   19.4350 C   0  0  0  0  0  0  0  0  0  0  0  0
   15.6598    0.5168   20.4778 C   0  0  0  0  0  0  0  0  0  0  0  0
   15.6415    0.2030   21.8085 O   0  0  0  0  0  0  0  0  0  0  0  0
   15.3587   -1.1456   22.1608 C   0  0  0  0  0  0  0  0  0  0  0  0
   14.5215    3.9322   22.2863 H   0  0  0  0  0  0  0  0  0  0  0  0
   13.8245    3.4155   20.7424 H   0  0  0  0  0  0  0  0  0  0  0  0
   14.0187    2.2466   22.0940 H   0  0  0  0  0  0  0  0  0  0  0  0
   15.9781    3.3538   18.6032 H   0  0  0  0  0  0  0  0  0  0  0  0
   15.7684    1.7191   16.7457 H   0  0  0  0  0  0  0  0  0  0  0  0
   16.8348   -2.1815   17.7311 H   0  0  0  0  0  0  0  0  0  0  0  0
   15.8629   -4.3498   17.1115 H   0  0  0  0  0  0  0  0  0  0  0  0
   13.3902   -5.3925   16.1504 H   0  0  0  0  0  0  0  0  0  0  0  0
   10.3587   -1.8338   14.7134 H   0  0  0  0  0  0  0  0  0  0  0  0
   11.2672    0.5149   14.8413 H   0  0  0  0  0  0  0  0  0  0  0  0
   13.4162    1.0093   15.9629 H   0  0  0  0  0  0  0  0  0  0  0  0
   15.3579   -1.4353   19.6568 H   0  0  0  0  0  0  0  0  0  0  0  0
   16.1591   -1.8128   21.8247 H   0  0  0  0  0  0  0  0  0  0  0  0
   15.3122   -1.2035   23.2524 H   0  0  0  0  0  0  0  0  0  0  0  0
   14.3890   -1.4645   21.7683 H   0  0  0  0  0  0  0  0  0  0  0  0
  1  2  1  0
  2  3  1  0
  3  4  2  0
  4  5  1  0
  5  6  2  0
  6  7  1  0
  7  8  2  0
  8  9  1  0
  9 10  2  0
 10 11  1  0
 11 12  1  0
 12 13  2  0
 13 14  1  0
 14 15  2  0
 15 16  1  0
 16 17  2  0
 17 18  1  0
  6 19  1  0
 19 20  2  0
 20 21  1  0
 21 22  1  0
 20  3  1  0
 17  7  1  0
 18 10  1  0
 18 13  1  0
  1 23  1  0
  1 24  1  0
  1 25  1  0
  4 26  1  0
  5 27  1  0
  8 28  1  0
  9 29  1  0
 11 30  1  0
 14 31  1  0
 15 32  1  0
 16 33  1  0
 19 34  1  0
 22 35  1  0
 22 36  1  0
 22 37  1  0
M  END
>  <Energy>  (606) 
122.86734512132345

>  <compound_id>  (606) 
882

>  <target_id>  (606) 
1

>  <reference_id>  (606) 
81

>  <inspiration_ids>  (606) 
[71, 81]

>  <energy_score>  (606) 
-23.98534230723652

>  <distance_score>  (606) 
1.5455587121646204

>  <path>  (606) 
/opt/xchem-fragalysis-2/maxwin/BulkDock/SCRATCH/505733/C882-P81/C882-P81.minimised.mol

>  <scratch_subdir>  (606) 
/opt/xchem-fragalysis-2/maxwin/BulkDock/SCRATCH/505733/C882-P81

>  <fragmenstein_runtime>  (606) 
3.6048736572265625

>  <fragmenstein_outcome>  (606) 
too moved

>  <fragmenstein_mode>  (606) 
expansion

>  <fragmenstein_error>  (606) 


$$$$
C884-P71
     RDKit          3D

 36 39  0  0  0  0  0  0  0  0999 V2000
   13.6809   -5.2907   21.5221 C   0  0  0  0  0  0  0  0  0  0  0  0
   13.5788   -4.5280   20.3155 N   0  0  0  0  0  0  0  0  0  0  0  0
   14.2673   -4.7138   18.9587 C   0  0  0  0  0  0  0  0  0  0  0  0
   14.9685   -5.5595   18.5788 O   0  0  0  0  0  0  0  0  0  0  0  0
   14.0132   -3.5726   18.0678 C   0  0  0  0  0  0  0  0  0  0  0  0
   13.3610   -3.7118   16.8368 C   0  0  0  0  0  0  0  0  0  0  0  0
   13.2824   -2.6147   15.9671 C   0  0  0  0  0  0  0  0  0  0  0  0
   13.8665   -1.3945   16.3312 C   0  0  0  0  0  0  0  0  0  0  0  0
   13.8765   -0.1805   15.4861 C   0  0  0  0  0  0  0  0  0  0  0  0
   15.0665    0.4863   15.3848 C   0  0  0  0  0  0  0  0  0  0  0  0
   15.1760    1.8568   14.8726 C   0  0  0  0  0  0  0  0  0  0  0  0
   14.0602    2.4336   14.4204 C   0  0  0  0  0  0  0  0  0  0  0  0
   13.7639    3.6728   13.8970 N   0  0  0  0  0  0  0  0  0  0  0  0
   12.3636    3.8005   13.7062 N   0  0  0  0  0  0  0  0  0  0  0  0
   11.9011    2.6022   14.0251 C   0  0  0  0  0  0  0  0  0  0  0  0
   10.5055    2.1305   13.9900 C   0  0  0  0  0  0  0  0  0  0  0  0
   10.3177    0.8653   14.4213 C   0  0  0  0  0  0  0  0  0  0  0  0
   11.4024    0.0192   14.9413 C   0  0  0  0  0  0  0  0  0  0  0  0
   12.6733    0.4777   14.9500 C   0  0  0  0  0  0  0  0  0  0  0  0
   12.8832    1.7442   14.4501 N   0  0  0  0  0  0  0  0  0  0  0  0
   14.4786   -1.2826   17.5954 C   0  0  0  0  0  0  0  0  0  0  0  0
   14.5748   -2.3651   18.4523 C   0  0  0  0  0  0  0  0  0  0  0  0
   13.1570   -4.7670   22.3238 H   0  0  0  0  0  0  0  0  0  0  0  0
   13.2397   -6.2748   21.3527 H   0  0  0  0  0  0  0  0  0  0  0  0
   14.7373   -5.4156   21.7704 H   0  0  0  0  0  0  0  0  0  0  0  0
   12.9685   -3.7158   20.2777 H   0  0  0  0  0  0  0  0  0  0  0  0
   12.9491   -4.6738   16.5424 H   0  0  0  0  0  0  0  0  0  0  0  0
   12.8045   -2.7332   14.9973 H   0  0  0  0  0  0  0  0  0  0  0  0
   15.9927    0.0683   15.7727 H   0  0  0  0  0  0  0  0  0  0  0  0
   16.1346    2.3580   14.8764 H   0  0  0  0  0  0  0  0  0  0  0  0
   14.3189    4.4736   14.1803 H   0  0  0  0  0  0  0  0  0  0  0  0
    9.7452    2.7903   13.6114 H   0  0  0  0  0  0  0  0  0  0  0  0
    9.3304    0.4105   14.3902 H   0  0  0  0  0  0  0  0  0  0  0  0
   11.1229   -0.9609   15.3063 H   0  0  0  0  0  0  0  0  0  0  0  0
   14.9092   -0.3373   17.9245 H   0  0  0  0  0  0  0  0  0  0  0  0
   15.1012   -2.2668   19.3985 H   0  0  0  0  0  0  0  0  0  0  0  0
  1  2  1  0
  2  3  1  0
  3  4  2  0
  3  5  1  0
  5  6  2  0
  6  7  1  0
  7  8  2  0
  8  9  1  0
  9 10  2  0
 10 11  1  0
 11 12  2  0
 12 13  1  0
 13 14  1  0
 14 15  2  0
 15 16  1  0
 16 17  2  0
 17 18  1  0
 18 19  2  0
 19 20  1  0
  8 21  1  0
 21 22  2  0
 22  5  1  0
 19  9  1  0
 20 12  1  0
 20 15  1  0
  1 23  1  0
  1 24  1  0
  1 25  1  0
  2 26  1  0
  6 27  1  0
  7 28  1  0
 10 29  1  0
 11 30  1  0
 13 31  1  0
 16 32  1  0
 17 33  1  0
 18 34  1  0
 21 35  1  0
 22 36  1  0
M  END
>  <Energy>  (607) 
104.54842771240176

>  <compound_id>  (607) 
884

>  <target_id>  (607) 
1

>  <reference_id>  (607) 
71

>  <inspiration_ids>  (607) 
[71, 93]

>  <energy_score>  (607) 
-12.294371627797744

>  <distance_score>  (607) 
3.832300424887387

>  <path>  (607) 
/opt/xchem-fragalysis-2/maxwin/BulkDock/SCRATCH/505733/C884-P71/C884-P71.minimised.mol

>  <scratch_subdir>  (607) 
/opt/xchem-fragalysis-2/maxwin/BulkDock/SCRATCH/505733/C884-P71

>  <fragmenstein_runtime>  (607) 
3.1981747150421143

>  <fragmenstein_outcome>  (607) 
too moved

>  <fragmenstein_mode>  (607) 
expansion

>  <fragmenstein_error>  (607) 


$$$$
C884-P93
     RDKit          3D

 36 39  0  0  0  0  0  0  0  0999 V2000
   16.6055   -6.0198   19.9710 C   0  0  0  0  0  0  0  0  0  0  0  0
   15.9648   -5.0609   19.1172 N   0  0  0  0  0  0  0  0  0  0  0  0
   14.4888   -4.6337   19.0243 C   0  0  0  0  0  0  0  0  0  0  0  0
   13.5486   -5.0463   19.5714 O   0  0  0  0  0  0  0  0  0  0  0  0
   14.2992   -3.5538   18.0156 C   0  0  0  0  0  0  0  0  0  0  0  0
   13.2075   -3.5883   17.1274 C   0  0  0  0  0  0  0  0  0  0  0  0
   12.9718   -2.5199   16.2505 C   0  0  0  0  0  0  0  0  0  0  0  0
   13.8344   -1.4200   16.2720 C   0  0  0  0  0  0  0  0  0  0  0  0
   13.6158   -0.1906   15.4973 C   0  0  0  0  0  0  0  0  0  0  0  0
   13.2978    0.9230   16.2203 C   0  0  0  0  0  0  0  0  0  0  0  0
   13.2341    2.2667   15.6364 C   0  0  0  0  0  0  0  0  0  0  0  0
   13.4855    2.3708   14.3266 C   0  0  0  0  0  0  0  0  0  0  0  0
   13.5728    3.4290   13.4469 N   0  0  0  0  0  0  0  0  0  0  0  0
   14.0839    2.9834   12.1953 N   0  0  0  0  0  0  0  0  0  0  0  0
   14.1685    1.6705   12.3435 C   0  0  0  0  0  0  0  0  0  0  0  0
   14.6486    0.6690   11.3641 C   0  0  0  0  0  0  0  0  0  0  0  0
   14.7148   -0.5986   11.8271 C   0  0  0  0  0  0  0  0  0  0  0  0
   14.3676   -0.9731   13.2081 C   0  0  0  0  0  0  0  0  0  0  0  0
   13.9185   -0.0334   14.0685 C   0  0  0  0  0  0  0  0  0  0  0  0
   13.7886    1.2535   13.5967 N   0  0  0  0  0  0  0  0  0  0  0  0
   14.9528   -1.4267   17.1225 C   0  0  0  0  0  0  0  0  0  0  0  0
   15.1734   -2.4720   18.0076 C   0  0  0  0  0  0  0  0  0  0  0  0
   15.8485   -6.6469   20.4469 H   0  0  0  0  0  0  0  0  0  0  0  0
   17.2822   -6.6281   19.3674 H   0  0  0  0  0  0  0  0  0  0  0  0
   17.1721   -5.4799   20.7328 H   0  0  0  0  0  0  0  0  0  0  0  0
   16.5335   -4.4333   18.5640 H   0  0  0  0  0  0  0  0  0  0  0  0
   12.5244   -4.4358   17.1428 H   0  0  0  0  0  0  0  0  0  0  0  0
   12.1091   -2.5390   15.5882 H   0  0  0  0  0  0  0  0  0  0  0  0
   13.1565    0.8788   17.2950 H   0  0  0  0  0  0  0  0  0  0  0  0
   13.0122    3.1204   16.2623 H   0  0  0  0  0  0  0  0  0  0  0  0
   13.8424    4.3393   13.8057 H   0  0  0  0  0  0  0  0  0  0  0  0
   14.9126    0.9827   10.3663 H   0  0  0  0  0  0  0  0  0  0  0  0
   15.0528   -1.4019   11.1781 H   0  0  0  0  0  0  0  0  0  0  0  0
   14.5251   -2.0044   13.5030 H   0  0  0  0  0  0  0  0  0  0  0  0
   15.6348   -0.5766   17.1380 H   0  0  0  0  0  0  0  0  0  0  0  0
   15.9927   -2.3943   18.7167 H   0  0  0  0  0  0  0  0  0  0  0  0
  1  2  1  0
  2  3  1  0
  3  4  2  0
  3  5  1  0
  5  6  2  0
  6  7  1  0
  7  8  2  0
  8  9  1  0
  9 10  2  0
 10 11  1  0
 11 12  2  0
 12 13  1  0
 13 14  1  0
 14 15  2  0
 15 16  1  0
 16 17  2  0
 17 18  1  0
 18 19  2  0
 19 20  1  0
  8 21  1  0
 21 22  2  0
 22  5  1  0
 19  9  1  0
 20 12  1  0
 20 15  1  0
  1 23  1  0
  1 24  1  0
  1 25  1  0
  2 26  1  0
  6 27  1  0
  7 28  1  0
 10 29  1  0
 11 30  1  0
 13 31  1  0
 16 32  1  0
 17 33  1  0
 18 34  1  0
 21 35  1  0
 22 36  1  0
M  END
>  <Energy>  (608) 
100.33245102641571

>  <compound_id>  (608) 
884

>  <target_id>  (608) 
1

>  <reference_id>  (608) 
93

>  <inspiration_ids>  (608) 
[71, 93]

>  <energy_score>  (608) 
-16.510348313781662

>  <distance_score>  (608) 
3.6199993141288784

>  <path>  (608) 
/opt/xchem-fragalysis-2/maxwin/BulkDock/SCRATCH/505733/C884-P93/C884-P93.minimised.mol

>  <scratch_subdir>  (608) 
/opt/xchem-fragalysis-2/maxwin/BulkDock/SCRATCH/505733/C884-P93

>  <fragmenstein_runtime>  (608) 
2.835501194000244

>  <fragmenstein_outcome>  (608) 
too moved

>  <fragmenstein_mode>  (608) 
expansion

>  <fragmenstein_error>  (608) 


$$$$
C886-P71
     RDKit          3D

 47 50  0  0  0  0  0  0  0  0999 V2000
   11.1017    2.6578   16.0952 N   0  0  0  0  0  0  0  0  0  0  0  0
   10.6284    1.4031   15.9081 C   0  0  0  0  0  0  0  0  0  0  0  0
    9.4593    0.9455   16.3097 N   0  0  0  0  0  0  0  0  0  0  0  0
    9.4118   -0.4049   16.0639 N   0  0  0  0  0  0  0  0  0  0  0  0
   10.5378   -0.7404   15.4695 C   0  0  0  0  0  0  0  0  0  0  0  0
   11.0241   -1.9811   14.9824 C   0  0  0  0  0  0  0  0  0  0  0  0
   12.2257   -2.0345   14.3839 C   0  0  0  0  0  0  0  0  0  0  0  0
   13.0783   -0.8658   14.2825 C   0  0  0  0  0  0  0  0  0  0  0  0
   12.6334    0.3108   14.7691 C   0  0  0  0  0  0  0  0  0  0  0  0
   13.5869    1.4459   14.7242 C   0  0  0  0  0  0  0  0  0  0  0  0
   13.8988    1.9845   13.7502 O   0  0  0  0  0  0  0  0  0  0  0  0
   14.0572    1.5900   16.1949 N   0  0  0  0  0  0  0  0  0  0  0  0
   15.2858    3.0016   16.8161 C   0  0  0  0  0  0  0  0  0  0  0  0
   15.5029    3.5090   18.4897 C   0  0  0  0  0  0  0  0  0  0  0  0
   15.9229    2.2514   19.2153 C   0  0  0  0  0  0  0  0  0  0  0  0
   15.9609    1.2532   18.0635 C   0  0  0  0  0  0  0  0  0  0  0  0
   15.5012   -0.1692   18.3103 C   0  0  0  0  0  0  0  0  0  0  0  0
   15.2165   -0.6692   19.5868 C   0  0  0  0  0  0  0  0  0  0  0  0
   14.7459   -1.9766   19.7634 C   0  0  0  0  0  0  0  0  0  0  0  0
   14.5610   -2.8224   18.6665 C   0  0  0  0  0  0  0  0  0  0  0  0
   13.9715   -4.1951   18.8314 C   0  0  0  0  0  0  0  0  0  0  0  0
   14.8786   -5.1832   18.3522 O   0  0  0  0  0  0  0  0  0  0  0  0
   14.9075   -2.3560   17.3968 C   0  0  0  0  0  0  0  0  0  0  0  0
   15.3856   -1.0550   17.2273 C   0  0  0  0  0  0  0  0  0  0  0  0
   14.9984    2.2447   16.7927 C   0  0  0  0  0  0  0  0  0  0  0  0
   11.3629    0.3722   15.3424 N   0  0  0  0  0  0  0  0  0  0  0  0
   10.6263    3.1638   16.8443 H   0  0  0  0  0  0  0  0  0  0  0  0
   12.1064    2.7450   16.2392 H   0  0  0  0  0  0  0  0  0  0  0  0
   10.3867   -2.8558   15.0196 H   0  0  0  0  0  0  0  0  0  0  0  0
   12.5658   -2.9593   13.9397 H   0  0  0  0  0  0  0  0  0  0  0  0
   14.0613   -0.9779   13.8347 H   0  0  0  0  0  0  0  0  0  0  0  0
   14.7151    3.9942   16.4034 H   0  0  0  0  0  0  0  0  0  0  0  0
   16.3131    3.2487   16.1586 H   0  0  0  0  0  0  0  0  0  0  0  0
   16.2737    4.2864   18.5002 H   0  0  0  0  0  0  0  0  0  0  0  0
   14.5558    3.9182   18.8612 H   0  0  0  0  0  0  0  0  0  0  0  0
   15.1741    2.0228   19.9786 H   0  0  0  0  0  0  0  0  0  0  0  0
   16.8945    2.3533   19.7078 H   0  0  0  0  0  0  0  0  0  0  0  0
   16.9950    1.2187   17.6819 H   0  0  0  0  0  0  0  0  0  0  0  0
   15.3317   -0.0573   20.4774 H   0  0  0  0  0  0  0  0  0  0  0  0
   14.4907   -2.3134   20.7678 H   0  0  0  0  0  0  0  0  0  0  0  0
   13.0414   -4.2751   18.2618 H   0  0  0  0  0  0  0  0  0  0  0  0
   13.7512   -4.4167   19.8804 H   0  0  0  0  0  0  0  0  0  0  0  0
   15.7745   -4.8592   18.5571 H   0  0  0  0  0  0  0  0  0  0  0  0
   14.7940   -3.0031   16.5288 H   0  0  0  0  0  0  0  0  0  0  0  0
   15.6504   -0.7376   16.2219 H   0  0  0  0  0  0  0  0  0  0  0  0
   14.1050    2.0080   17.6470 H   0  0  0  0  0  0  0  0  0  0  0  0
   15.6604    1.4783   16.0506 H   0  0  0  0  0  0  0  0  0  0  0  0
  1  2  1  0
  2  3  2  0
  3  4  1  0
  4  5  2  0
  5  6  1  0
  6  7  2  0
  7  8  1  0
  8  9  2  0
  9 10  1  0
 10 11  2  0
 10 12  1  0
 12 13  1  0
 13 14  1  0
 14 15  1  0
 15 16  1  0
 16 17  1  0
 17 18  2  0
 18 19  1  0
 19 20  2  0
 20 21  1  0
 21 22  1  0
 20 23  1  0
 23 24  2  0
 16 25  1  0
  9 26  1  0
 26  2  1  0
 26  5  1  0
 25 12  1  0
 24 17  1  0
  1 27  1  0
  1 28  1  0
  6 29  1  0
  7 30  1  0
  8 31  1  0
 13 32  1  0
 13 33  1  0
 14 34  1  0
 14 35  1  0
 15 36  1  0
 15 37  1  0
 16 38  1  0
 18 39  1  0
 19 40  1  0
 21 41  1  0
 21 42  1  0
 22 43  1  0
 23 44  1  0
 24 45  1  0
 25 46  1  0
 25 47  1  0
M  END
>  <Energy>  (609) 
822.13536633007175

>  <compound_id>  (609) 
886

>  <target_id>  (609) 
1

>  <reference_id>  (609) 
71

>  <inspiration_ids>  (609) 
[71, 98]

>  <energy_score>  (609) 
732.4474668420498

>  <distance_score>  (609) 
2.9860674235362294

>  <path>  (609) 
/opt/xchem-fragalysis-2/maxwin/BulkDock/SCRATCH/505733/C886-P71/C886-P71.minimised.mol

>  <scratch_subdir>  (609) 
/opt/xchem-fragalysis-2/maxwin/BulkDock/SCRATCH/505733/C886-P71

>  <fragmenstein_runtime>  (609) 
14.980143308639526

>  <fragmenstein_outcome>  (609) 
too moved

>  <fragmenstein_mode>  (609) 
expansion

>  <fragmenstein_error>  (609) 


$$$$
C886-P98
     RDKit          3D

 47 50  0  0  0  0  0  0  0  0999 V2000
   13.4550    2.5178   13.9225 N   0  0  0  0  0  0  0  0  0  0  0  0
   12.4016    1.6886   14.0998 C   0  0  0  0  0  0  0  0  0  0  0  0
   11.1604    1.8991   13.7148 N   0  0  0  0  0  0  0  0  0  0  0  0
   10.4145    0.7899   14.0372 N   0  0  0  0  0  0  0  0  0  0  0  0
   11.2174   -0.0853   14.6051 C   0  0  0  0  0  0  0  0  0  0  0  0
   11.0159   -1.4094   15.0876 C   0  0  0  0  0  0  0  0  0  0  0  0
   12.0311   -2.0716   15.6740 C   0  0  0  0  0  0  0  0  0  0  0  0
   13.3271   -1.4411   15.8697 C   0  0  0  0  0  0  0  0  0  0  0  0
   13.5299   -0.1968   15.3857 C   0  0  0  0  0  0  0  0  0  0  0  0
   14.8581    0.4281   15.5739 C   0  0  0  0  0  0  0  0  0  0  0  0
   15.5855    0.5979   14.6476 O   0  0  0  0  0  0  0  0  0  0  0  0
   15.0157    0.7321   16.9586 N   0  0  0  0  0  0  0  0  0  0  0  0
   15.9332    1.4051   17.5702 C   0  0  0  0  0  0  0  0  0  0  0  0
   14.8595    2.0283   18.9844 C   0  0  0  0  0  0  0  0  0  0  0  0
   15.5879    1.5265   20.2098 C   0  0  0  0  0  0  0  0  0  0  0  0
   16.5860    0.5970   19.5572 C   0  0  0  0  0  0  0  0  0  0  0  0
   16.2522   -0.8844   19.4804 C   0  0  0  0  0  0  0  0  0  0  0  0
   17.0034   -1.7205   18.6381 C   0  0  0  0  0  0  0  0  0  0  0  0
   16.7108   -3.0833   18.5159 C   0  0  0  0  0  0  0  0  0  0  0  0
   15.6795   -3.6589   19.2612 C   0  0  0  0  0  0  0  0  0  0  0  0
   15.3510   -5.1171   19.1180 C   0  0  0  0  0  0  0  0  0  0  0  0
   14.3144   -5.2935   18.1587 O   0  0  0  0  0  0  0  0  0  0  0  0
   14.9420   -2.8431   20.1216 C   0  0  0  0  0  0  0  0  0  0  0  0
   15.2296   -1.4779   20.2337 C   0  0  0  0  0  0  0  0  0  0  0  0
   16.5939    1.3645   17.9569 C   0  0  0  0  0  0  0  0  0  0  0  0
   12.4899    0.4554   14.7255 N   0  0  0  0  0  0  0  0  0  0  0  0
   13.3117    3.2519   13.2346 H   0  0  0  0  0  0  0  0  0  0  0  0
   14.3848    2.1010   13.8248 H   0  0  0  0  0  0  0  0  0  0  0  0
   10.0521   -1.8772   14.9220 H   0  0  0  0  0  0  0  0  0  0  0  0
   11.9120   -3.1002   16.0054 H   0  0  0  0  0  0  0  0  0  0  0  0
   14.1050   -1.9960   16.3879 H   0  0  0  0  0  0  0  0  0  0  0  0
   15.3416    2.4615   17.1942 H   0  0  0  0  0  0  0  0  0  0  0  0
   16.3967    1.9986   16.4164 H   0  0  0  0  0  0  0  0  0  0  0  0
   14.8308    3.1271   18.9750 H   0  0  0  0  0  0  0  0  0  0  0  0
   13.8523    1.6094   18.8781 H   0  0  0  0  0  0  0  0  0  0  0  0
   14.9246    1.1154   20.9701 H   0  0  0  0  0  0  0  0  0  0  0  0
   16.1198    2.3660   20.6742 H   0  0  0  0  0  0  0  0  0  0  0  0
   17.5841    0.7247   19.9944 H   0  0  0  0  0  0  0  0  0  0  0  0
   17.8325   -1.3292   18.0538 H   0  0  0  0  0  0  0  0  0  0  0  0
   17.2996   -3.6940   17.8336 H   0  0  0  0  0  0  0  0  0  0  0  0
   15.0185   -5.5360   20.0739 H   0  0  0  0  0  0  0  0  0  0  0  0
   16.2248   -5.6927   18.7957 H   0  0  0  0  0  0  0  0  0  0  0  0
   13.6733   -4.5734   18.3038 H   0  0  0  0  0  0  0  0  0  0  0  0
   14.1320   -3.2590   20.7208 H   0  0  0  0  0  0  0  0  0  0  0  0
   14.6203   -0.9090   20.9305 H   0  0  0  0  0  0  0  0  0  0  0  0
   17.5857    0.7757   17.4886 H   0  0  0  0  0  0  0  0  0  0  0  0
   17.1040    2.5468   18.1201 H   0  0  0  0  0  0  0  0  0  0  0  0
  1  2  1  0
  2  3  2  0
  3  4  1  0
  4  5  2  0
  5  6  1  0
  6  7  2  0
  7  8  1  0
  8  9  2  0
  9 10  1  0
 10 11  2  0
 10 12  1  0
 12 13  1  0
 13 14  1  0
 14 15  1  0
 15 16  1  0
 16 17  1  0
 17 18  2  0
 18 19  1  0
 19 20  2  0
 20 21  1  0
 21 22  1  0
 20 23  1  0
 23 24  2  0
 16 25  1  0
  9 26  1  0
 26  2  1  0
 26  5  1  0
 25 12  1  0
 24 17  1  0
  1 27  1  0
  1 28  1  0
  6 29  1  0
  7 30  1  0
  8 31  1  0
 13 32  1  0
 13 33  1  0
 14 34  1  0
 14 35  1  0
 15 36  1  0
 15 37  1  0
 16 38  1  0
 18 39  1  0
 19 40  1  0
 21 41  1  0
 21 42  1  0
 22 43  1  0
 23 44  1  0
 24 45  1  0
 25 46  1  0
 25 47  1  0
M  END
>  <Energy>  (610) 
859.23237696815738

>  <compound_id>  (610) 
886

>  <target_id>  (610) 
1

>  <reference_id>  (610) 
98

>  <inspiration_ids>  (610) 
[71, 98]

>  <energy_score>  (610) 
769.5444774801406

>  <distance_score>  (610) 
2.14750194398059

>  <path>  (610) 
/opt/xchem-fragalysis-2/maxwin/BulkDock/SCRATCH/505733/C886-P98/C886-P98.minimised.mol

>  <scratch_subdir>  (610) 
/opt/xchem-fragalysis-2/maxwin/BulkDock/SCRATCH/505733/C886-P98

>  <fragmenstein_runtime>  (610) 
14.621504783630371

>  <fragmenstein_outcome>  (610) 
too moved

>  <fragmenstein_mode>  (610) 
expansion

>  <fragmenstein_error>  (610) 


$$$$
C886-P71
     RDKit          3D

 47 50  0  0  0  0  0  0  0  0999 V2000
   14.0591    0.1009   18.4290 N   0  0  0  0  0  0  0  0  0  0  0  0
   13.4407    0.0235   17.2339 C   0  0  0  0  0  0  0  0  0  0  0  0
   12.8398    1.0051   16.5982 N   0  0  0  0  0  0  0  0  0  0  0  0
   12.0478    0.4639   15.6251 N   0  0  0  0  0  0  0  0  0  0  0  0
   12.1785   -0.8396   15.7064 C   0  0  0  0  0  0  0  0  0  0  0  0
   11.4383   -1.8880   15.1236 C   0  0  0  0  0  0  0  0  0  0  0  0
   11.7506   -3.1579   15.4172 C   0  0  0  0  0  0  0  0  0  0  0  0
   12.8844   -3.4823   16.2665 C   0  0  0  0  0  0  0  0  0  0  0  0
   13.5996   -2.4908   16.8467 C   0  0  0  0  0  0  0  0  0  0  0  0
   14.7657   -2.9560   17.6822 C   0  0  0  0  0  0  0  0  0  0  0  0
   14.6838   -3.9252   18.3092 O   0  0  0  0  0  0  0  0  0  0  0  0
   15.9568   -1.9730   17.4060 N   0  0  0  0  0  0  0  0  0  0  0  0
   17.8041   -2.3295   17.9852 C   0  0  0  0  0  0  0  0  0  0  0  0
   19.2569   -1.6413   17.2554 C   0  0  0  0  0  0  0  0  0  0  0  0
   19.1890   -0.1784   17.6189 C   0  0  0  0  0  0  0  0  0  0  0  0
   17.8007   -0.1083   18.2293 C   0  0  0  0  0  0  0  0  0  0  0  0
   16.9923    1.0768   17.7723 C   0  0  0  0  0  0  0  0  0  0  0  0
   16.6246    2.0617   18.7013 C   0  0  0  0  0  0  0  0  0  0  0  0
   15.7485    3.0889   18.3385 C   0  0  0  0  0  0  0  0  0  0  0  0
   15.2438    3.1667   17.0357 C   0  0  0  0  0  0  0  0  0  0  0  0
   14.1621    4.1564   16.6962 C   0  0  0  0  0  0  0  0  0  0  0  0
   14.5856    5.4788   17.0045 O   0  0  0  0  0  0  0  0  0  0  0  0
   15.6981    2.2525   16.0817 C   0  0  0  0  0  0  0  0  0  0  0  0
   16.5666    1.2217   16.4457 C   0  0  0  0  0  0  0  0  0  0  0  0
   17.1722   -1.8440   17.8558 C   0  0  0  0  0  0  0  0  0  0  0  0
   13.1853   -1.1758   16.6074 N   0  0  0  0  0  0  0  0  0  0  0  0
   14.2534    1.0600   18.7049 H   0  0  0  0  0  0  0  0  0  0  0  0
   14.9005   -0.4578   18.5138 H   0  0  0  0  0  0  0  0  0  0  0  0
   10.5893   -1.6336   14.5085 H   0  0  0  0  0  0  0  0  0  0  0  0
   11.1435   -3.9637   15.0229 H   0  0  0  0  0  0  0  0  0  0  0  0
   13.1185   -4.5329   16.4146 H   0  0  0  0  0  0  0  0  0  0  0  0
   17.9373   -3.4653   17.5677 H   0  0  0  0  0  0  0  0  0  0  0  0
   18.0256   -2.6796   19.1603 H   0  0  0  0  0  0  0  0  0  0  0  0
   20.1233   -2.1478   17.6925 H   0  0  0  0  0  0  0  0  0  0  0  0
   19.2303   -1.8179   16.1732 H   0  0  0  0  0  0  0  0  0  0  0  0
   19.9580    0.0915   18.3502 H   0  0  0  0  0  0  0  0  0  0  0  0
   19.3312    0.4520   16.7356 H   0  0  0  0  0  0  0  0  0  0  0  0
   17.9088   -0.0896   19.3265 H   0  0  0  0  0  0  0  0  0  0  0  0
   16.9634    2.0059   19.7339 H   0  0  0  0  0  0  0  0  0  0  0  0
   15.4151    3.8018   19.0916 H   0  0  0  0  0  0  0  0  0  0  0  0
   13.2517    3.9347   17.2623 H   0  0  0  0  0  0  0  0  0  0  0  0
   13.9153    4.1261   15.6301 H   0  0  0  0  0  0  0  0  0  0  0  0
   15.5492    5.5020   16.8791 H   0  0  0  0  0  0  0  0  0  0  0  0
   15.3198    2.2906   15.0619 H   0  0  0  0  0  0  0  0  0  0  0  0
   16.8551    0.5074   15.6790 H   0  0  0  0  0  0  0  0  0  0  0  0
   17.1426   -1.3359   16.7133 H   0  0  0  0  0  0  0  0  0  0  0  0
   16.5050   -1.5525   18.8707 H   0  0  0  0  0  0  0  0  0  0  0  0
  1  2  1  0
  2  3  2  0
  3  4  1  0
  4  5  2  0
  5  6  1  0
  6  7  2  0
  7  8  1  0
  8  9  2  0
  9 10  1  0
 10 11  2  0
 10 12  1  0
 12 13  1  0
 13 14  1  0
 14 15  1  0
 15 16  1  0
 16 17  1  0
 17 18  2  0
 18 19  1  0
 19 20  2  0
 20 21  1  0
 21 22  1  0
 20 23  1  0
 23 24  2  0
 16 25  1  0
  9 26  1  0
 26  2  1  0
 26  5  1  0
 25 12  1  0
 24 17  1  0
  1 27  1  0
  1 28  1  0
  6 29  1  0
  7 30  1  0
  8 31  1  0
 13 32  1  0
 13 33  1  0
 14 34  1  0
 14 35  1  0
 15 36  1  0
 15 37  1  0
 16 38  1  0
 18 39  1  0
 19 40  1  0
 21 41  1  0
 21 42  1  0
 22 43  1  0
 23 44  1  0
 24 45  1  0
 25 46  1  0
 25 47  1  0
M  END
>  <Energy>  (611) 
820.3833217912686

>  <compound_id>  (611) 
886

>  <target_id>  (611) 
1

>  <reference_id>  (611) 
71

>  <inspiration_ids>  (611) 
[71, 103]

>  <energy_score>  (611) 
713.1879291773985

>  <distance_score>  (611) 
2.887923824037139

>  <path>  (611) 
/opt/xchem-fragalysis-2/maxwin/BulkDock/SCRATCH/505733/C886-P71/C886-P71.minimised.mol

>  <scratch_subdir>  (611) 
/opt/xchem-fragalysis-2/maxwin/BulkDock/SCRATCH/505733/C886-P71

>  <fragmenstein_runtime>  (611) 
6.350176572799683

>  <fragmenstein_outcome>  (611) 
too moved

>  <fragmenstein_mode>  (611) 
expansion

>  <fragmenstein_error>  (611) 


$$$$
C886-P103
     RDKit          3D

 47 50  0  0  0  0  0  0  0  0999 V2000
   14.0096    0.3240   18.4880 N   0  0  0  0  0  0  0  0  0  0  0  0
   13.4369    0.2314   17.2726 C   0  0  0  0  0  0  0  0  0  0  0  0
   12.8927    1.2218   16.6015 N   0  0  0  0  0  0  0  0  0  0  0  0
   12.2423    0.7075   15.5209 N   0  0  0  0  0  0  0  0  0  0  0  0
   12.3731   -0.5962   15.5787 C   0  0  0  0  0  0  0  0  0  0  0  0
   11.7476   -1.6120   14.8273 C   0  0  0  0  0  0  0  0  0  0  0  0
   11.9766   -2.8944   15.1375 C   0  0  0  0  0  0  0  0  0  0  0  0
   12.9332   -3.2557   16.1690 C   0  0  0  0  0  0  0  0  0  0  0  0
   13.5802   -2.3017   16.8848 C   0  0  0  0  0  0  0  0  0  0  0  0
   14.5673   -2.8720   17.8929 C   0  0  0  0  0  0  0  0  0  0  0  0
   14.3857   -3.9428   18.2933 O   0  0  0  0  0  0  0  0  0  0  0  0
   15.7359   -1.8489   18.1045 N   0  0  0  0  0  0  0  0  0  0  0  0
   17.3877   -2.3016   19.0398 C   0  0  0  0  0  0  0  0  0  0  0  0
   18.6389   -2.5764   17.8745 C   0  0  0  0  0  0  0  0  0  0  0  0
   18.7329   -1.2471   17.1753 C   0  0  0  0  0  0  0  0  0  0  0  0
   17.8372   -0.4294   18.0876 C   0  0  0  0  0  0  0  0  0  0  0  0
   17.1229    0.7519   17.4828 C   0  0  0  0  0  0  0  0  0  0  0  0
   16.9322    1.9046   18.2613 C   0  0  0  0  0  0  0  0  0  0  0  0
   16.1548    2.9648   17.7897 C   0  0  0  0  0  0  0  0  0  0  0  0
   15.5741    2.9104   16.5188 C   0  0  0  0  0  0  0  0  0  0  0  0
   14.5906    3.9653   16.0846 C   0  0  0  0  0  0  0  0  0  0  0  0
   15.1263    5.2660   16.3001 O   0  0  0  0  0  0  0  0  0  0  0  0
   15.8290    1.7983   15.7097 C   0  0  0  0  0  0  0  0  0  0  0  0
   16.5841    0.7253   16.1915 C   0  0  0  0  0  0  0  0  0  0  0  0
   16.8088   -1.7978   18.8685 C   0  0  0  0  0  0  0  0  0  0  0  0
   13.2317   -0.9668   16.6175 N   0  0  0  0  0  0  0  0  0  0  0  0
   14.3047    1.2712   18.7126 H   0  0  0  0  0  0  0  0  0  0  0  0
   14.7706   -0.3307   18.6362 H   0  0  0  0  0  0  0  0  0  0  0  0
   11.0556   -1.3211   14.0505 H   0  0  0  0  0  0  0  0  0  0  0  0
   11.4597   -3.6814   14.5986 H   0  0  0  0  0  0  0  0  0  0  0  0
   13.1047   -4.3181   16.3259 H   0  0  0  0  0  0  0  0  0  0  0  0
   17.9219   -1.9708   20.1705 H   0  0  0  0  0  0  0  0  0  0  0  0
   17.2279   -3.4918   19.3058 H   0  0  0  0  0  0  0  0  0  0  0  0
   19.5512   -2.8484   18.4146 H   0  0  0  0  0  0  0  0  0  0  0  0
   18.3371   -3.3868   17.2022 H   0  0  0  0  0  0  0  0  0  0  0  0
   19.7556   -0.8610   17.1311 H   0  0  0  0  0  0  0  0  0  0  0  0
   18.3658   -1.3448   16.1510 H   0  0  0  0  0  0  0  0  0  0  0  0
   18.4870   -0.0661   18.9055 H   0  0  0  0  0  0  0  0  0  0  0  0
   17.3424    1.9678   19.2670 H   0  0  0  0  0  0  0  0  0  0  0  0
   15.9635    3.8195   18.4369 H   0  0  0  0  0  0  0  0  0  0  0  0
   13.6584    3.8746   16.6501 H   0  0  0  0  0  0  0  0  0  0  0  0
   14.3584    3.8755   15.0186 H   0  0  0  0  0  0  0  0  0  0  0  0
   16.0762    5.2106   16.1012 H   0  0  0  0  0  0  0  0  0  0  0  0
   15.3663    1.7207   14.7274 H   0  0  0  0  0  0  0  0  0  0  0  0
   16.6839   -0.1502   15.5559 H   0  0  0  0  0  0  0  0  0  0  0  0
   16.5014   -0.7162   19.3907 H   0  0  0  0  0  0  0  0  0  0  0  0
   16.0326   -1.8581   19.9684 H   0  0  0  0  0  0  0  0  0  0  0  0
  1  2  1  0
  2  3  2  0
  3  4  1  0
  4  5  2  0
  5  6  1  0
  6  7  2  0
  7  8  1  0
  8  9  2  0
  9 10  1  0
 10 11  2  0
 10 12  1  0
 12 13  1  0
 13 14  1  0
 14 15  1  0
 15 16  1  0
 16 17  1  0
 17 18  2  0
 18 19  1  0
 19 20  2  0
 20 21  1  0
 21 22  1  0
 20 23  1  0
 23 24  2  0
 16 25  1  0
  9 26  1  0
 26  2  1  0
 26  5  1  0
 25 12  1  0
 24 17  1  0
  1 27  1  0
  1 28  1  0
  6 29  1  0
  7 30  1  0
  8 31  1  0
 13 32  1  0
 13 33  1  0
 14 34  1  0
 14 35  1  0
 15 36  1  0
 15 37  1  0
 16 38  1  0
 18 39  1  0
 19 40  1  0
 21 41  1  0
 21 42  1  0
 22 43  1  0
 23 44  1  0
 24 45  1  0
 25 46  1  0
 25 47  1  0
M  END
>  <Energy>  (612) 
815.79843765062355

>  <compound_id>  (612) 
886

>  <target_id>  (612) 
1

>  <reference_id>  (612) 
103

>  <inspiration_ids>  (612) 
[71, 103]

>  <energy_score>  (612) 
708.6030450367589

>  <distance_score>  (612) 
2.944056282654401

>  <path>  (612) 
/opt/xchem-fragalysis-2/maxwin/BulkDock/SCRATCH/505733/C886-P103/C886-P103.minimised.mol

>  <scratch_subdir>  (612) 
/opt/xchem-fragalysis-2/maxwin/BulkDock/SCRATCH/505733/C886-P103

>  <fragmenstein_runtime>  (612) 
5.463651657104492

>  <fragmenstein_outcome>  (612) 
too moved

>  <fragmenstein_mode>  (612) 
expansion

>  <fragmenstein_error>  (612) 


$$$$
C892-P71
     RDKit          3D

 51 55  0  0  0  0  0  0  0  0999 V2000
   14.0621   -4.9130   17.4114 N   0  0  0  0  0  0  0  0  0  0  0  0
   14.0817   -3.5412   17.9011 C   0  0  0  0  0  0  0  0  0  0  0  0
   15.3741   -3.2637   18.6967 C   0  0  0  0  0  0  0  0  0  0  0  0
   15.5209   -1.7978   19.1319 C   0  0  0  0  0  0  0  0  0  0  0  0
   15.4127   -0.8770   17.9275 C   0  0  0  0  0  0  0  0  0  0  0  0
   15.3939    0.6227   18.3054 C   0  0  0  0  0  0  0  0  0  0  0  0
   15.2127    1.4447   17.0063 C   0  0  0  0  0  0  0  0  0  0  0  0
   13.8683    1.0111   16.2832 C   0  0  0  0  0  0  0  0  0  0  0  0
   13.8671   -0.4509   15.9091 C   0  0  0  0  0  0  0  0  0  0  0  0
   12.5739   -1.1127   15.4050 C   0  0  0  0  0  0  0  0  0  0  0  0
   12.6795   -2.5725   15.9023 C   0  0  0  0  0  0  0  0  0  0  0  0
   13.9912   -2.6189   16.7022 C   0  0  0  0  0  0  0  0  0  0  0  0
   14.1223   -1.2036   17.1805 C   0  0  0  0  0  0  0  0  0  0  0  0
   16.4694    1.1964   16.2574 N   0  0  0  0  0  0  0  0  0  0  0  0
   17.0615    2.5091   16.0598 N   0  0  0  0  0  0  0  0  0  0  0  0
   15.9222    3.4101   16.0226 C   0  0  0  0  0  0  0  0  0  0  0  0
   15.1426    3.3485   14.6887 C   0  0  0  0  0  0  0  0  0  0  0  0
   15.4976    2.4671   13.6363 C   0  0  0  0  0  0  0  0  0  0  0  0
   14.6795    2.2649   12.5295 C   0  0  0  0  0  0  0  0  0  0  0  0
   13.5114    2.9967   12.4122 C   0  0  0  0  0  0  0  0  0  0  0  0
   13.1690    3.9260   13.3942 C   0  0  0  0  0  0  0  0  0  0  0  0
   13.9729    4.1033   14.5252 C   0  0  0  0  0  0  0  0  0  0  0  0
   15.1687    2.8940   17.1754 N   0  0  0  0  0  0  0  0  0  0  0  0
   13.1629   -5.0699   16.9438 H   0  0  0  0  0  0  0  0  0  0  0  0
   14.7537   -4.9816   16.6576 H   0  0  0  0  0  0  0  0  0  0  0  0
   13.2246   -3.3981   18.5677 H   0  0  0  0  0  0  0  0  0  0  0  0
   16.2493   -3.5386   18.0922 H   0  0  0  0  0  0  0  0  0  0  0  0
   15.3999   -3.9030   19.5881 H   0  0  0  0  0  0  0  0  0  0  0  0
   14.7416   -1.5611   19.8672 H   0  0  0  0  0  0  0  0  0  0  0  0
   16.4857   -1.6569   19.6324 H   0  0  0  0  0  0  0  0  0  0  0  0
   16.2717   -1.0892   17.2777 H   0  0  0  0  0  0  0  0  0  0  0  0
   16.3212    0.8927   18.8276 H   0  0  0  0  0  0  0  0  0  0  0  0
   14.5693    0.8320   18.9995 H   0  0  0  0  0  0  0  0  0  0  0  0
   13.0295    1.2237   16.9616 H   0  0  0  0  0  0  0  0  0  0  0  0
   13.6416    1.5683   15.3802 H   0  0  0  0  0  0  0  0  0  0  0  0
   14.6549   -0.6442   15.1690 H   0  0  0  0  0  0  0  0  0  0  0  0
   11.6856   -0.6332   15.8318 H   0  0  0  0  0  0  0  0  0  0  0  0
   12.4945   -1.0590   14.3145 H   0  0  0  0  0  0  0  0  0  0  0  0
   12.6885   -3.2744   15.0664 H   0  0  0  0  0  0  0  0  0  0  0  0
   11.8152   -2.8185   16.5248 H   0  0  0  0  0  0  0  0  0  0  0  0
   14.8124   -2.8452   16.0035 H   0  0  0  0  0  0  0  0  0  0  0  0
   13.3026   -0.9778   17.8651 H   0  0  0  0  0  0  0  0  0  0  0  0
   16.2384    0.7267   15.3847 H   0  0  0  0  0  0  0  0  0  0  0  0
   17.6506    2.6038   15.2369 H   0  0  0  0  0  0  0  0  0  0  0  0
   16.2432    4.4420   16.1993 H   0  0  0  0  0  0  0  0  0  0  0  0
   16.4198    1.8938   13.6596 H   0  0  0  0  0  0  0  0  0  0  0  0
   14.9657    1.5586   11.7551 H   0  0  0  0  0  0  0  0  0  0  0  0
   12.8685    2.8626   11.5461 H   0  0  0  0  0  0  0  0  0  0  0  0
   12.2566    4.5087   13.2879 H   0  0  0  0  0  0  0  0  0  0  0  0
   13.6618    4.8081   15.2935 H   0  0  0  0  0  0  0  0  0  0  0  0
   14.2180    3.2412   17.1511 H   0  0  0  0  0  0  0  0  0  0  0  0
  1  2  1  0
  2  3  1  0
  3  4  1  0
  4  5  1  0
  5  6  1  0
  6  7  1  0
  7  8  1  0
  8  9  1  0
  9 10  1  0
 10 11  1  0
 11 12  1  0
 12 13  1  0
  7 14  1  0
 14 15  1  0
 15 16  1  0
 16 17  1  0
 17 18  2  0
 18 19  1  0
 19 20  2  0
 20 21  1  0
 21 22  2  0
 16 23  1  0
 12  2  1  0
 22 17  1  0
 13  5  1  0
 23  7  1  0
 13  9  1  0
  1 24  1  0
  1 25  1  0
  2 26  1  0
  3 27  1  0
  3 28  1  0
  4 29  1  0
  4 30  1  0
  5 31  1  0
  6 32  1  0
  6 33  1  0
  8 34  1  0
  8 35  1  0
  9 36  1  0
 10 37  1  0
 10 38  1  0
 11 39  1  0
 11 40  1  0
 12 41  1  0
 13 42  1  0
 14 43  1  0
 15 44  1  0
 16 45  1  0
 18 46  1  0
 19 47  1  0
 20 48  1  0
 21 49  1  0
 22 50  1  0
 23 51  1  0
M  END
>  <Energy>  (613) 
55.386979748676943

>  <compound_id>  (613) 
892

>  <target_id>  (613) 
1

>  <reference_id>  (613) 
71

>  <inspiration_ids>  (613) 
[71, 120]

>  <energy_score>  (613) 
-26.13147823865083

>  <distance_score>  (613) 
2.4663292598702786

>  <path>  (613) 
/opt/xchem-fragalysis-2/maxwin/BulkDock/SCRATCH/505733/C892-P71/C892-P71.minimised.mol

>  <scratch_subdir>  (613) 
/opt/xchem-fragalysis-2/maxwin/BulkDock/SCRATCH/505733/C892-P71

>  <fragmenstein_runtime>  (613) 
22.120246648788452

>  <fragmenstein_outcome>  (613) 
too moved

>  <fragmenstein_mode>  (613) 
expansion

>  <fragmenstein_error>  (613) 


$$$$
C892-P120
     RDKit          3D

 51 55  0  0  0  0  0  0  0  0999 V2000
   14.5315   -4.8213   19.0966 N   0  0  0  0  0  0  0  0  0  0  0  0
   14.5104   -3.3638   19.0255 C   0  0  0  0  0  0  0  0  0  0  0  0
   15.7602   -2.8162   19.7485 C   0  0  0  0  0  0  0  0  0  0  0  0
   15.8566   -1.2934   19.7392 C   0  0  0  0  0  0  0  0  0  0  0  0
   15.7465   -0.7527   18.3243 C   0  0  0  0  0  0  0  0  0  0  0  0
   15.6174    0.7774   18.3365 C   0  0  0  0  0  0  0  0  0  0  0  0
   15.3591    1.2898   16.9030 C   0  0  0  0  0  0  0  0  0  0  0  0
   14.0835    0.5858   16.2860 C   0  0  0  0  0  0  0  0  0  0  0  0
   14.2381   -0.9223   16.2457 C   0  0  0  0  0  0  0  0  0  0  0  0
   13.0299   -1.8034   15.8853 C   0  0  0  0  0  0  0  0  0  0  0  0
   13.2223   -3.0924   16.7280 C   0  0  0  0  0  0  0  0  0  0  0  0
   14.4706   -2.8443   17.5894 C   0  0  0  0  0  0  0  0  0  0  0  0
   14.5037   -1.3382   17.6651 C   0  0  0  0  0  0  0  0  0  0  0  0
   16.5940    1.0625   16.1125 N   0  0  0  0  0  0  0  0  0  0  0  0
   17.0482    2.3916   15.7133 N   0  0  0  0  0  0  0  0  0  0  0  0
   15.8322    3.1901   15.6797 C   0  0  0  0  0  0  0  0  0  0  0  0
   14.9936    2.9974   14.4086 C   0  0  0  0  0  0  0  0  0  0  0  0
   15.2216    1.9385   13.4967 C   0  0  0  0  0  0  0  0  0  0  0  0
   14.3912    1.7155   12.4053 C   0  0  0  0  0  0  0  0  0  0  0  0
   13.3319    2.5774   12.1775 C   0  0  0  0  0  0  0  0  0  0  0  0
   13.0954    3.6439   13.0446 C   0  0  0  0  0  0  0  0  0  0  0  0
   13.9121    3.8508   14.1579 C   0  0  0  0  0  0  0  0  0  0  0  0
   15.1579    2.7346   16.8942 N   0  0  0  0  0  0  0  0  0  0  0  0
   15.4566   -5.1536   18.8086 H   0  0  0  0  0  0  0  0  0  0  0  0
   14.4556   -5.0936   20.0790 H   0  0  0  0  0  0  0  0  0  0  0  0
   13.6186   -3.0286   19.5658 H   0  0  0  0  0  0  0  0  0  0  0  0
   16.6675   -3.2262   19.2836 H   0  0  0  0  0  0  0  0  0  0  0  0
   15.7647   -3.1596   20.7911 H   0  0  0  0  0  0  0  0  0  0  0  0
   15.0550   -0.8862   20.3692 H   0  0  0  0  0  0  0  0  0  0  0  0
   16.8041   -0.9798   20.1929 H   0  0  0  0  0  0  0  0  0  0  0  0
   16.6386   -1.0628   17.7665 H   0  0  0  0  0  0  0  0  0  0  0  0
   16.5219    1.2286   18.7665 H   0  0  0  0  0  0  0  0  0  0  0  0
   14.7849    1.0799   18.9874 H   0  0  0  0  0  0  0  0  0  0  0  0
   13.8287    0.9211   15.2847 H   0  0  0  0  0  0  0  0  0  0  0  0
   13.2101    0.8515   16.8994 H   0  0  0  0  0  0  0  0  0  0  0  0
   15.0778   -1.1956   15.5927 H   0  0  0  0  0  0  0  0  0  0  0  0
   12.0867   -1.3164   16.1582 H   0  0  0  0  0  0  0  0  0  0  0  0
   12.9969   -2.0213   14.8133 H   0  0  0  0  0  0  0  0  0  0  0  0
   13.3562   -3.9709   16.0937 H   0  0  0  0  0  0  0  0  0  0  0  0
   12.3389   -3.2728   17.3420 H   0  0  0  0  0  0  0  0  0  0  0  0
   15.3500   -3.2126   17.0405 H   0  0  0  0  0  0  0  0  0  0  0  0
   13.6615   -0.9920   18.2704 H   0  0  0  0  0  0  0  0  0  0  0  0
   17.3114    0.6467   16.7086 H   0  0  0  0  0  0  0  0  0  0  0  0
   17.4954    2.4044   14.7974 H   0  0  0  0  0  0  0  0  0  0  0  0
   16.0934    4.2507   15.7655 H   0  0  0  0  0  0  0  0  0  0  0  0
   16.0338    1.2307   13.6446 H   0  0  0  0  0  0  0  0  0  0  0  0
   14.5760    0.8788   11.7376 H   0  0  0  0  0  0  0  0  0  0  0  0
   12.6801    2.4224   11.3217 H   0  0  0  0  0  0  0  0  0  0  0  0
   12.2597    4.3141   12.8576 H   0  0  0  0  0  0  0  0  0  0  0  0
   13.6962    4.6771   14.8316 H   0  0  0  0  0  0  0  0  0  0  0  0
   14.1720    2.9616   16.8327 H   0  0  0  0  0  0  0  0  0  0  0  0
  1  2  1  0
  2  3  1  0
  3  4  1  0
  4  5  1  0
  5  6  1  0
  6  7  1  0
  7  8  1  0
  8  9  1  0
  9 10  1  0
 10 11  1  0
 11 12  1  0
 12 13  1  0
  7 14  1  0
 14 15  1  0
 15 16  1  0
 16 17  1  0
 17 18  2  0
 18 19  1  0
 19 20  2  0
 20 21  1  0
 21 22  2  0
 16 23  1  0
 12  2  1  0
 22 17  1  0
 13  5  1  0
 23  7  1  0
 13  9  1  0
  1 24  1  0
  1 25  1  0
  2 26  1  0
  3 27  1  0
  3 28  1  0
  4 29  1  0
  4 30  1  0
  5 31  1  0
  6 32  1  0
  6 33  1  0
  8 34  1  0
  8 35  1  0
  9 36  1  0
 10 37  1  0
 10 38  1  0
 11 39  1  0
 11 40  1  0
 12 41  1  0
 13 42  1  0
 14 43  1  0
 15 44  1  0
 16 45  1  0
 18 46  1  0
 19 47  1  0
 20 48  1  0
 21 49  1  0
 22 50  1  0
 23 51  1  0
M  END
>  <Energy>  (614) 
44.253119155305967

>  <compound_id>  (614) 
892

>  <target_id>  (614) 
1

>  <reference_id>  (614) 
120

>  <inspiration_ids>  (614) 
[71, 120]

>  <energy_score>  (614) 
-37.26533883201978

>  <distance_score>  (614) 
2.586254479238028

>  <path>  (614) 
/opt/xchem-fragalysis-2/maxwin/BulkDock/SCRATCH/505733/C892-P120/C892-P120.minimised.mol

>  <scratch_subdir>  (614) 
/opt/xchem-fragalysis-2/maxwin/BulkDock/SCRATCH/505733/C892-P120

>  <fragmenstein_runtime>  (614) 
20.916550636291504

>  <fragmenstein_outcome>  (614) 
too moved

>  <fragmenstein_mode>  (614) 
expansion

>  <fragmenstein_error>  (614) 


$$$$
C894-P71
     RDKit          3D

 44 48  0  0  0  0  0  0  0  0999 V2000
   15.4062    0.2928   15.8761 O   0  0  0  0  0  0  0  0  0  0  0  0
   14.6559   -0.7419   16.5590 S   0  0  0  0  0  0  0  0  0  0  0  0
   13.7786   -0.3370   17.6399 O   0  0  0  0  0  0  0  0  0  0  0  0
   15.7666   -1.9607   17.2812 C   0  0  0  0  0  0  0  0  0  0  0  0
   17.1155   -1.9611   16.5811 C   0  0  0  0  0  0  0  0  0  0  0  0
   18.0115   -0.9310   16.9260 C   0  0  0  0  0  0  0  0  0  0  0  0
   19.2681   -0.8263   16.3349 C   0  0  0  0  0  0  0  0  0  0  0  0
   19.6644   -1.7563   15.3836 C   0  0  0  0  0  0  0  0  0  0  0  0
   18.8104   -2.7987   15.0402 C   0  0  0  0  0  0  0  0  0  0  0  0
   17.5501   -2.9044   15.6390 C   0  0  0  0  0  0  0  0  0  0  0  0
   15.0624   -3.2749   17.6263 C   0  0  0  0  0  0  0  0  0  0  0  0
   14.1491   -3.8692   16.5655 C   0  0  0  0  0  0  0  0  0  0  0  0
   13.0711   -2.9171   16.0546 C   0  0  0  0  0  0  0  0  0  0  0  0
   13.6081   -1.6498   15.3463 C   0  0  0  0  0  0  0  0  0  0  0  0
   14.3985   -1.9969   14.0605 C   0  0  0  0  0  0  0  0  0  0  0  0
   14.8872   -0.8179   13.2087 C   0  0  0  0  0  0  0  0  0  0  0  0
   13.8019    0.1678   13.0400 C   0  0  0  0  0  0  0  0  0  0  0  0
   13.6306    1.0790   12.1046 N   0  0  0  0  0  0  0  0  0  0  0  0
   12.4413    1.7356   12.3668 N   0  0  0  0  0  0  0  0  0  0  0  0
   11.9247    1.1985   13.4498 C   0  0  0  0  0  0  0  0  0  0  0  0
   10.7573    1.4537   14.2054 C   0  0  0  0  0  0  0  0  0  0  0  0
   10.4343    0.6223   15.2148 C   0  0  0  0  0  0  0  0  0  0  0  0
   11.2978   -0.4922   15.5894 C   0  0  0  0  0  0  0  0  0  0  0  0
   12.4845   -0.6652   14.9716 C   0  0  0  0  0  0  0  0  0  0  0  0
   12.7390    0.1794   13.8906 N   0  0  0  0  0  0  0  0  0  0  0  0
   15.9835   -1.5288   18.2721 H   0  0  0  0  0  0  0  0  0  0  0  0
   17.7274   -0.1687   17.6521 H   0  0  0  0  0  0  0  0  0  0  0  0
   19.9313   -0.0096   16.6089 H   0  0  0  0  0  0  0  0  0  0  0  0
   20.6419   -1.6737   14.9157 H   0  0  0  0  0  0  0  0  0  0  0  0
   19.1264   -3.5368   14.3072 H   0  0  0  0  0  0  0  0  0  0  0  0
   16.9276   -3.7491   15.3584 H   0  0  0  0  0  0  0  0  0  0  0  0
   15.8019   -4.0264   17.9296 H   0  0  0  0  0  0  0  0  0  0  0  0
   14.4385   -3.0965   18.5138 H   0  0  0  0  0  0  0  0  0  0  0  0
   14.7554   -4.2580   15.7482 H   0  0  0  0  0  0  0  0  0  0  0  0
   13.6373   -4.7326   17.0036 H   0  0  0  0  0  0  0  0  0  0  0  0
   12.4063   -3.4619   15.3732 H   0  0  0  0  0  0  0  0  0  0  0  0
   12.4580   -2.6444   16.9209 H   0  0  0  0  0  0  0  0  0  0  0  0
   15.2509   -2.6423   14.2648 H   0  0  0  0  0  0  0  0  0  0  0  0
   13.7123   -2.5498   13.4067 H   0  0  0  0  0  0  0  0  0  0  0  0
   15.7778   -0.3489   13.6328 H   0  0  0  0  0  0  0  0  0  0  0  0
   15.1873   -1.1965   12.2238 H   0  0  0  0  0  0  0  0  0  0  0  0
   10.1738    2.3323   13.9686 H   0  0  0  0  0  0  0  0  0  0  0  0
    9.5574    0.8145   15.8252 H   0  0  0  0  0  0  0  0  0  0  0  0
   11.0076   -1.0904   16.4348 H   0  0  0  0  0  0  0  0  0  0  0  0
  1  2  2  0
  2  3  2  0
  2  4  1  0
  4  5  1  0
  5  6  2  0
  6  7  1  0
  7  8  2  0
  8  9  1  0
  9 10  2  0
  4 11  1  0
 11 12  1  0
 12 13  1  0
 13 14  1  0
 14 15  1  0
 15 16  1  0
 16 17  1  0
 17 18  2  0
 18 19  1  0
 19 20  2  0
 20 21  1  0
 21 22  2  0
 22 23  1  0
 23 24  2  0
 24 25  1  0
 14  2  1  0
 25 17  1  0
 10  5  1  0
 24 14  1  0
 25 20  1  0
  4 26  1  0
  6 27  1  0
  7 28  1  0
  8 29  1  0
  9 30  1  0
 10 31  1  0
 11 32  1  0
 11 33  1  0
 12 34  1  0
 12 35  1  0
 13 36  1  0
 13 37  1  0
 15 38  1  0
 15 39  1  0
 16 40  1  0
 16 41  1  0
 21 42  1  0
 22 43  1  0
 23 44  1  0
M  END
>  <Energy>  (615) 
100.33036528534664

>  <compound_id>  (615) 
894

>  <target_id>  (615) 
1

>  <reference_id>  (615) 
71

>  <inspiration_ids>  (615) 
[71, 146]

>  <energy_score>  (615) 
-50.244031376066914

>  <distance_score>  (615) 
2.2628508959621585

>  <path>  (615) 
/opt/xchem-fragalysis-2/maxwin/BulkDock/SCRATCH/505733/C894-P71/C894-P71.minimised.mol

>  <scratch_subdir>  (615) 
/opt/xchem-fragalysis-2/maxwin/BulkDock/SCRATCH/505733/C894-P71

>  <fragmenstein_runtime>  (615) 
4.15025782585144

>  <fragmenstein_outcome>  (615) 
too moved

>  <fragmenstein_mode>  (615) 
expansion

>  <fragmenstein_error>  (615) 


$$$$
C894-P146
     RDKit          3D

 44 48  0  0  0  0  0  0  0  0999 V2000
   16.2014   -0.1909   15.3896 O   0  0  0  0  0  0  0  0  0  0  0  0
   15.4948   -1.1174   16.2466 S   0  0  0  0  0  0  0  0  0  0  0  0
   14.9908   -0.6176   17.4996 O   0  0  0  0  0  0  0  0  0  0  0  0
   16.5841   -2.4505   16.7708 C   0  0  0  0  0  0  0  0  0  0  0  0
   17.9916   -2.1424   16.3157 C   0  0  0  0  0  0  0  0  0  0  0  0
   18.7559   -1.2945   17.1329 C   0  0  0  0  0  0  0  0  0  0  0  0
   20.0232   -0.8866   16.7379 C   0  0  0  0  0  0  0  0  0  0  0  0
   20.5490   -1.3281   15.5276 C   0  0  0  0  0  0  0  0  0  0  0  0
   19.8148   -2.1843   14.7130 C   0  0  0  0  0  0  0  0  0  0  0  0
   18.5395   -2.5868   15.1005 C   0  0  0  0  0  0  0  0  0  0  0  0
   16.0700   -3.8566   16.5138 C   0  0  0  0  0  0  0  0  0  0  0  0
   14.6161   -4.0285   16.9098 C   0  0  0  0  0  0  0  0  0  0  0  0
   13.6157   -3.1358   16.1757 C   0  0  0  0  0  0  0  0  0  0  0  0
   14.1220   -1.9601   15.2894 C   0  0  0  0  0  0  0  0  0  0  0  0
   14.7186   -2.3243   13.8979 C   0  0  0  0  0  0  0  0  0  0  0  0
   15.1389   -1.1284   13.0125 C   0  0  0  0  0  0  0  0  0  0  0  0
   14.1440   -0.0436   13.0518 C   0  0  0  0  0  0  0  0  0  0  0  0
   13.9622    0.9529   12.2108 N   0  0  0  0  0  0  0  0  0  0  0  0
   12.7460    1.5370   12.5119 N   0  0  0  0  0  0  0  0  0  0  0  0
   12.2294    0.8672   13.5183 C   0  0  0  0  0  0  0  0  0  0  0  0
   10.9616    0.8748   14.1395 C   0  0  0  0  0  0  0  0  0  0  0  0
   10.6603   -0.0990   15.0175 C   0  0  0  0  0  0  0  0  0  0  0  0
   11.6514   -1.0942   15.4248 C   0  0  0  0  0  0  0  0  0  0  0  0
   12.9276   -1.0155   14.9736 C   0  0  0  0  0  0  0  0  0  0  0  0
   13.1315   -0.0762   13.9574 N   0  0  0  0  0  0  0  0  0  0  0  0
   16.5902   -2.3661   17.8689 H   0  0  0  0  0  0  0  0  0  0  0  0
   18.3580   -0.9108   18.0713 H   0  0  0  0  0  0  0  0  0  0  0  0
   20.6003   -0.2134   17.3667 H   0  0  0  0  0  0  0  0  0  0  0  0
   21.5390   -1.0022   15.2177 H   0  0  0  0  0  0  0  0  0  0  0  0
   20.2339   -2.5235   13.7690 H   0  0  0  0  0  0  0  0  0  0  0  0
   17.9859   -3.2358   14.4316 H   0  0  0  0  0  0  0  0  0  0  0  0
   16.2289   -4.1702   15.4839 H   0  0  0  0  0  0  0  0  0  0  0  0
   16.6741   -4.5598   17.1038 H   0  0  0  0  0  0  0  0  0  0  0  0
   14.3256   -5.0780   16.7837 H   0  0  0  0  0  0  0  0  0  0  0  0
   14.5278   -3.8402   17.9888 H   0  0  0  0  0  0  0  0  0  0  0  0
   12.9301   -3.7535   15.5887 H   0  0  0  0  0  0  0  0  0  0  0  0
   12.9963   -2.7326   16.9867 H   0  0  0  0  0  0  0  0  0  0  0  0
   13.9626   -2.8868   13.3328 H   0  0  0  0  0  0  0  0  0  0  0  0
   15.6081   -2.9464   13.9775 H   0  0  0  0  0  0  0  0  0  0  0  0
   16.1394   -0.7616   13.2478 H   0  0  0  0  0  0  0  0  0  0  0  0
   15.2334   -1.4866   11.9892 H   0  0  0  0  0  0  0  0  0  0  0  0
   10.2634    1.6478   13.8625 H   0  0  0  0  0  0  0  0  0  0  0  0
    9.6792   -0.1340   15.4786 H   0  0  0  0  0  0  0  0  0  0  0  0
   11.3089   -1.8461   16.1237 H   0  0  0  0  0  0  0  0  0  0  0  0
  1  2  2  0
  2  3  2  0
  2  4  1  0
  4  5  1  0
  5  6  2  0
  6  7  1  0
  7  8  2  0
  8  9  1  0
  9 10  2  0
  4 11  1  0
 11 12  1  0
 12 13  1  0
 13 14  1  0
 14 15  1  0
 15 16  1  0
 16 17  1  0
 17 18  2  0
 18 19  1  0
 19 20  2  0
 20 21  1  0
 21 22  2  0
 22 23  1  0
 23 24  2  0
 24 25  1  0
 14  2  1  0
 25 17  1  0
 10  5  1  0
 24 14  1  0
 25 20  1  0
  4 26  1  0
  6 27  1  0
  7 28  1  0
  8 29  1  0
  9 30  1  0
 10 31  1  0
 11 32  1  0
 11 33  1  0
 12 34  1  0
 12 35  1  0
 13 36  1  0
 13 37  1  0
 15 38  1  0
 15 39  1  0
 16 40  1  0
 16 41  1  0
 21 42  1  0
 22 43  1  0
 23 44  1  0
M  END
>  <Energy>  (616) 
118.13814777614708

>  <compound_id>  (616) 
894

>  <target_id>  (616) 
1

>  <reference_id>  (616) 
146

>  <inspiration_ids>  (616) 
[71, 146]

>  <energy_score>  (616) 
-32.436248885264035

>  <distance_score>  (616) 
2.258599109777178

>  <path>  (616) 
/opt/xchem-fragalysis-2/maxwin/BulkDock/SCRATCH/505733/C894-P146/C894-P146.minimised.mol

>  <scratch_subdir>  (616) 
/opt/xchem-fragalysis-2/maxwin/BulkDock/SCRATCH/505733/C894-P146

>  <fragmenstein_runtime>  (616) 
3.678912401199341

>  <fragmenstein_outcome>  (616) 
too moved

>  <fragmenstein_mode>  (616) 
expansion

>  <fragmenstein_error>  (616) 


$$$$
C896-P72
     RDKit          3D

 31 33  0  0  0  0  0  0  0  0999 V2000
    2.4196   -5.1201   34.0334 N   0  0  0  0  0  0  0  0  0  0  0  0
    1.3060   -5.8098   33.6196 C   0  0  0  0  0  0  0  0  0  0  0  0
    1.2257   -6.5907   32.5378 C   0  0  0  0  0  0  0  0  0  0  0  0
    0.0382   -7.2627   32.2825 N   0  0  0  0  0  0  0  0  0  0  0  0
   -0.4746   -7.8240   31.1404 C   0  0  0  0  0  0  0  0  0  0  0  0
    0.0239   -7.5775   29.9102 N   0  0  0  0  0  0  0  0  0  0  0  0
   -1.5707   -8.4819   31.4281 N   0  0  0  0  0  0  0  0  0  0  0  0
   -1.8802   -8.2214   32.7440 N   0  0  0  0  0  0  0  0  0  0  0  0
   -0.9669   -7.4045   33.2185 C   0  0  0  0  0  0  0  0  0  0  0  0
   -0.9300   -6.5038   34.3238 C   0  0  0  0  0  0  0  0  0  0  0  0
    0.0064   -5.5344   34.2341 C   0  0  0  0  0  0  0  0  0  0  0  0
   -0.4599   -4.2308   34.0789 O   0  0  0  0  0  0  0  0  0  0  0  0
   -0.0550   -3.5323   32.8711 C   0  0  0  0  0  0  0  0  0  0  0  0
   -0.4358   -4.2256   31.6139 N   0  0  0  0  0  0  0  0  0  0  0  0
    0.3855   -4.1646   30.5301 C   0  0  0  0  0  0  0  0  0  0  0  0
    1.7951   -4.2025   30.4314 C   0  0  0  0  0  0  0  0  0  0  0  0
    2.2213   -4.2063   29.1640 N   0  0  0  0  0  0  0  0  0  0  0  0
    1.0960   -3.9735   28.4777 N   0  0  0  0  0  0  0  0  0  0  0  0
   -0.0338   -4.0587   29.2341 C   0  0  0  0  0  0  0  0  0  0  0  0
    3.2997   -5.5892   33.8388 H   0  0  0  0  0  0  0  0  0  0  0  0
    2.3552   -4.8290   35.0099 H   0  0  0  0  0  0  0  0  0  0  0  0
    2.0156   -6.6706   31.8178 H   0  0  0  0  0  0  0  0  0  0  0  0
    0.4174   -6.6419   29.8041 H   0  0  0  0  0  0  0  0  0  0  0  0
   -0.7117   -7.7224   29.2199 H   0  0  0  0  0  0  0  0  0  0  0  0
   -1.8806   -6.2933   34.7831 H   0  0  0  0  0  0  0  0  0  0  0  0
    1.0085   -3.2748   32.9231 H   0  0  0  0  0  0  0  0  0  0  0  0
   -0.5877   -2.5742   32.8905 H   0  0  0  0  0  0  0  0  0  0  0  0
   -1.4223   -4.0598   31.4449 H   0  0  0  0  0  0  0  0  0  0  0  0
    2.5290   -4.2581   31.2244 H   0  0  0  0  0  0  0  0  0  0  0  0
    1.1673   -3.7550   27.4963 H   0  0  0  0  0  0  0  0  0  0  0  0
   -1.0084   -3.9435   28.7854 H   0  0  0  0  0  0  0  0  0  0  0  0
  1  2  1  0
  2  3  2  0
  3  4  1  0
  4  5  1  0
  5  6  1  0
  5  7  2  0
  7  8  1  0
  8  9  2  0
  9 10  1  0
 10 11  2  0
 11 12  1  0
 12 13  1  0
 13 14  1  0
 14 15  1  0
 15 16  1  0
 16 17  2  0
 17 18  1  0
 18 19  1  0
 11  2  1  0
 19 15  2  0
  9  4  1  0
  1 20  1  0
  1 21  1  0
  3 22  1  0
  6 23  1  0
  6 24  1  0
 10 25  1  0
 13 26  1  0
 13 27  1  0
 14 28  1  0
 16 29  1  0
 18 30  1  0
 19 31  1  0
M  END
>  <Energy>  (617) 
43.133906536309368

>  <compound_id>  (617) 
896

>  <target_id>  (617) 
1

>  <reference_id>  (617) 
72

>  <inspiration_ids>  (617) 
[72, 40]

>  <energy_score>  (617) 
-12.103746787772792

>  <distance_score>  (617) 
1.7318967167922503

>  <path>  (617) 
/opt/xchem-fragalysis-2/maxwin/BulkDock/SCRATCH/505733/C896-P72/C896-P72.minimised.mol

>  <scratch_subdir>  (617) 
/opt/xchem-fragalysis-2/maxwin/BulkDock/SCRATCH/505733/C896-P72

>  <fragmenstein_runtime>  (617) 
2.2381129264831543

>  <fragmenstein_outcome>  (617) 
too moved

>  <fragmenstein_mode>  (617) 
expansion

>  <fragmenstein_error>  (617) 


$$$$
C896-P40
     RDKit          3D

 31 33  0  0  0  0  0  0  0  0999 V2000
    2.1623   -4.4207   33.4650 N   0  0  0  0  0  0  0  0  0  0  0  0
    1.1435   -5.3080   33.2402 C   0  0  0  0  0  0  0  0  0  0  0  0
    1.1408   -6.3024   32.3448 C   0  0  0  0  0  0  0  0  0  0  0  0
    0.0318   -7.1439   32.2560 N   0  0  0  0  0  0  0  0  0  0  0  0
   -0.4708   -7.9602   31.2637 C   0  0  0  0  0  0  0  0  0  0  0  0
    0.1295   -8.2010   30.0717 N   0  0  0  0  0  0  0  0  0  0  0  0
   -1.6033   -8.4933   31.6421 N   0  0  0  0  0  0  0  0  0  0  0  0
   -1.8794   -8.0309   32.8993 N   0  0  0  0  0  0  0  0  0  0  0  0
   -0.9491   -7.1666   33.2313 C   0  0  0  0  0  0  0  0  0  0  0  0
   -0.8845   -6.1283   34.2158 C   0  0  0  0  0  0  0  0  0  0  0  0
   -0.1862   -5.0488   33.7863 C   0  0  0  0  0  0  0  0  0  0  0  0
   -0.9371   -4.1217   33.0262 O   0  0  0  0  0  0  0  0  0  0  0  0
   -0.4432   -3.5548   31.7759 C   0  0  0  0  0  0  0  0  0  0  0  0
   -0.3381   -4.5258   30.6734 N   0  0  0  0  0  0  0  0  0  0  0  0
    0.5836   -4.4194   29.6786 C   0  0  0  0  0  0  0  0  0  0  0  0
    1.2433   -3.2760   29.1815 C   0  0  0  0  0  0  0  0  0  0  0  0
    2.1283   -3.5634   28.2189 N   0  0  0  0  0  0  0  0  0  0  0  0
    2.0202   -4.8853   28.0746 N   0  0  0  0  0  0  0  0  0  0  0  0
    1.1042   -5.4393   28.9204 C   0  0  0  0  0  0  0  0  0  0  0  0
    2.8205   -4.3138   32.6977 H   0  0  0  0  0  0  0  0  0  0  0  0
    1.8653   -3.5317   33.8630 H   0  0  0  0  0  0  0  0  0  0  0  0
    1.9118   -6.3359   31.6099 H   0  0  0  0  0  0  0  0  0  0  0  0
   -0.5886   -8.3963   29.3772 H   0  0  0  0  0  0  0  0  0  0  0  0
    0.5630   -9.1316   30.1767 H   0  0  0  0  0  0  0  0  0  0  0  0
   -1.8121   -5.9861   34.7424 H   0  0  0  0  0  0  0  0  0  0  0  0
    0.4926   -3.0160   31.9604 H   0  0  0  0  0  0  0  0  0  0  0  0
   -1.1836   -2.8022   31.4837 H   0  0  0  0  0  0  0  0  0  0  0  0
   -0.8724   -5.3677   30.8240 H   0  0  0  0  0  0  0  0  0  0  0  0
    1.1190   -2.2416   29.4747 H   0  0  0  0  0  0  0  0  0  0  0  0
    2.6169   -5.3434   27.3933 H   0  0  0  0  0  0  0  0  0  0  0  0
    0.9433   -6.4944   28.8897 H   0  0  0  0  0  0  0  0  0  0  0  0
  1  2  1  0
  2  3  2  0
  3  4  1  0
  4  5  1  0
  5  6  1  0
  5  7  2  0
  7  8  1  0
  8  9  2  0
  9 10  1  0
 10 11  2  0
 11 12  1  0
 12 13  1  0
 13 14  1  0
 14 15  1  0
 15 16  1  0
 16 17  2  0
 17 18  1  0
 18 19  1  0
 11  2  1  0
 19 15  2  0
  9  4  1  0
  1 20  1  0
  1 21  1  0
  3 22  1  0
  6 23  1  0
  6 24  1  0
 10 25  1  0
 13 26  1  0
 13 27  1  0
 14 28  1  0
 16 29  1  0
 18 30  1  0
 19 31  1  0
M  END
>  <Energy>  (618) 
71.269800771210342

>  <compound_id>  (618) 
896

>  <target_id>  (618) 
1

>  <reference_id>  (618) 
40

>  <inspiration_ids>  (618) 
[72, 40]

>  <energy_score>  (618) 
16.03214744712716

>  <distance_score>  (618) 
1.4551343513411394

>  <path>  (618) 
/opt/xchem-fragalysis-2/maxwin/BulkDock/SCRATCH/505733/C896-P40/C896-P40.minimised.mol

>  <scratch_subdir>  (618) 
/opt/xchem-fragalysis-2/maxwin/BulkDock/SCRATCH/505733/C896-P40

>  <fragmenstein_runtime>  (618) 
1.4637107849121094

>  <fragmenstein_outcome>  (618) 
too moved

>  <fragmenstein_mode>  (618) 
expansion

>  <fragmenstein_error>  (618) 


$$$$
C897-P72
     RDKit          3D

 39 42  0  0  0  0  0  0  0  0999 V2000
    4.7763   -5.2203   34.8520 C   0  0  0  0  0  0  0  0  0  0  0  0
    3.7011   -5.0248   35.6285 C   0  0  0  0  0  0  0  0  0  0  0  0
    3.0736   -3.6798   35.8839 C   0  0  0  0  0  0  0  0  0  0  0  0
    1.7388   -3.4853   35.3529 N   0  0  0  0  0  0  0  0  0  0  0  0
    1.3978   -3.3728   34.0383 C   0  0  0  0  0  0  0  0  0  0  0  0
    1.8666   -4.5421   32.8608 S   0  0  0  0  0  0  0  0  0  0  0  0
    0.6839   -5.7750   33.2544 C   0  0  0  0  0  0  0  0  0  0  0  0
    0.5757   -6.2366   34.5176 C   0  0  0  0  0  0  0  0  0  0  0  0
   -0.4618   -7.1555   34.8984 C   0  0  0  0  0  0  0  0  0  0  0  0
   -1.2541   -7.7071   33.9758 C   0  0  0  0  0  0  0  0  0  0  0  0
   -1.0351   -7.4285   32.6155 C   0  0  0  0  0  0  0  0  0  0  0  0
   -1.5442   -7.9798   31.5412 N   0  0  0  0  0  0  0  0  0  0  0  0
   -1.0318   -7.3121   30.4695 N   0  0  0  0  0  0  0  0  0  0  0  0
   -0.2498   -6.3455   30.9058 C   0  0  0  0  0  0  0  0  0  0  0  0
    0.3293   -5.3973   30.1489 N   0  0  0  0  0  0  0  0  0  0  0  0
   -0.1271   -6.4195   32.2837 N   0  0  0  0  0  0  0  0  0  0  0  0
    0.3734   -2.5661   33.9208 N   0  0  0  0  0  0  0  0  0  0  0  0
   -0.1335   -2.4058   35.1845 N   0  0  0  0  0  0  0  0  0  0  0  0
    0.5600   -3.1845   36.0042 C   0  0  0  0  0  0  0  0  0  0  0  0
    0.0220   -3.7460   37.2383 C   0  0  0  0  0  0  0  0  0  0  0  0
    0.4582   -4.9303   37.8357 C   0  0  0  0  0  0  0  0  0  0  0  0
   -0.1741   -5.4010   38.9895 C   0  0  0  0  0  0  0  0  0  0  0  0
   -1.2289   -4.6728   39.5138 C   0  0  0  0  0  0  0  0  0  0  0  0
   -1.6793   -3.5265   38.9697 N   0  0  0  0  0  0  0  0  0  0  0  0
   -1.0565   -3.1006   37.8459 C   0  0  0  0  0  0  0  0  0  0  0  0
    5.2497   -4.4071   34.3077 H   0  0  0  0  0  0  0  0  0  0  0  0
    5.2152   -6.2079   34.7425 H   0  0  0  0  0  0  0  0  0  0  0  0
    3.3053   -5.8762   36.1753 H   0  0  0  0  0  0  0  0  0  0  0  0
    3.0304   -3.5051   36.9648 H   0  0  0  0  0  0  0  0  0  0  0  0
    3.6892   -2.8745   35.4633 H   0  0  0  0  0  0  0  0  0  0  0  0
    1.2192   -5.9352   35.3185 H   0  0  0  0  0  0  0  0  0  0  0  0
   -0.6135   -7.3747   35.9513 H   0  0  0  0  0  0  0  0  0  0  0  0
   -2.0599   -8.3756   34.2481 H   0  0  0  0  0  0  0  0  0  0  0  0
   -0.0415   -5.3106   29.1994 H   0  0  0  0  0  0  0  0  0  0  0  0
    0.5317   -4.4874   30.5551 H   0  0  0  0  0  0  0  0  0  0  0  0
    1.2891   -5.5023   37.4470 H   0  0  0  0  0  0  0  0  0  0  0  0
    0.1466   -6.3185   39.4714 H   0  0  0  0  0  0  0  0  0  0  0  0
   -1.7619   -5.0045   40.4013 H   0  0  0  0  0  0  0  0  0  0  0  0
   -1.4727   -2.1864   37.4251 H   0  0  0  0  0  0  0  0  0  0  0  0
  1  2  2  0
  2  3  1  0
  3  4  1  0
  4  5  1  0
  5  6  1  0
  6  7  1  0
  7  8  2  0
  8  9  1  0
  9 10  2  0
 10 11  1  0
 11 12  2  0
 12 13  1  0
 13 14  2  0
 14 15  1  0
 14 16  1  0
  5 17  2  0
 17 18  1  0
 18 19  2  0
 19 20  1  0
 20 21  2  0
 21 22  1  0
 22 23  2  0
 23 24  1  0
 24 25  2  0
 19  4  1  0
 25 20  1  0
 16  7  1  0
 16 11  1  0
  1 26  1  0
  1 27  1  0
  2 28  1  0
  3 29  1  0
  3 30  1  0
  8 31  1  0
  9 32  1  0
 10 33  1  0
 15 34  1  0
 15 35  1  0
 21 36  1  0
 22 37  1  0
 23 38  1  0
 25 39  1  0
M  END
>  <Energy>  (619) 
99.965721250984274

>  <compound_id>  (619) 
897

>  <target_id>  (619) 
1

>  <reference_id>  (619) 
72

>  <inspiration_ids>  (619) 
[72, 41]

>  <energy_score>  (619) 
-20.856117896225612

>  <distance_score>  (619) 
2.2387360034075887

>  <path>  (619) 
/opt/xchem-fragalysis-2/maxwin/BulkDock/SCRATCH/505733/C897-P72/C897-P72.minimised.mol

>  <scratch_subdir>  (619) 
/opt/xchem-fragalysis-2/maxwin/BulkDock/SCRATCH/505733/C897-P72

>  <fragmenstein_runtime>  (619) 
2.345256805419922

>  <fragmenstein_outcome>  (619) 
too moved

>  <fragmenstein_mode>  (619) 
expansion

>  <fragmenstein_error>  (619) 


$$$$
C897-P41
     RDKit          3D

 39 42  0  0  0  0  0  0  0  0999 V2000
    4.7848   -5.2746   34.8569 C   0  0  0  0  0  0  0  0  0  0  0  0
    3.7075   -5.0647   35.6266 C   0  0  0  0  0  0  0  0  0  0  0  0
    3.1171   -3.7069   35.9027 C   0  0  0  0  0  0  0  0  0  0  0  0
    1.7826   -3.4729   35.3878 N   0  0  0  0  0  0  0  0  0  0  0  0
    1.4264   -3.3556   34.0776 C   0  0  0  0  0  0  0  0  0  0  0  0
    1.8621   -4.5327   32.8945 S   0  0  0  0  0  0  0  0  0  0  0  0
    0.6552   -5.7417   33.2889 C   0  0  0  0  0  0  0  0  0  0  0  0
    0.5183   -6.1845   34.5558 C   0  0  0  0  0  0  0  0  0  0  0  0
   -0.5441   -7.0764   34.9322 C   0  0  0  0  0  0  0  0  0  0  0  0
   -1.3287   -7.6290   34.0037 C   0  0  0  0  0  0  0  0  0  0  0  0
   -1.0746   -7.3814   32.6437 C   0  0  0  0  0  0  0  0  0  0  0  0
   -1.5662   -7.9458   31.5683 N   0  0  0  0  0  0  0  0  0  0  0  0
   -1.0280   -7.2979   30.4972 N   0  0  0  0  0  0  0  0  0  0  0  0
   -0.2462   -6.3319   30.9345 C   0  0  0  0  0  0  0  0  0  0  0  0
    0.3544   -5.3978   30.1765 N   0  0  0  0  0  0  0  0  0  0  0  0
   -0.1480   -6.3891   32.3143 N   0  0  0  0  0  0  0  0  0  0  0  0
    0.4134   -2.5329   33.9735 N   0  0  0  0  0  0  0  0  0  0  0  0
   -0.0742   -2.3643   35.2439 N   0  0  0  0  0  0  0  0  0  0  0  0
    0.6169   -3.1546   36.0544 C   0  0  0  0  0  0  0  0  0  0  0  0
    0.0806   -3.7152   37.2904 C   0  0  0  0  0  0  0  0  0  0  0  0
    0.5058   -4.9074   37.8806 C   0  0  0  0  0  0  0  0  0  0  0  0
   -0.1296   -5.3786   39.0326 C   0  0  0  0  0  0  0  0  0  0  0  0
   -1.1757   -4.6426   39.5633 C   0  0  0  0  0  0  0  0  0  0  0  0
   -1.6131   -3.4871   39.0284 N   0  0  0  0  0  0  0  0  0  0  0  0
   -0.9882   -3.0609   37.9058 C   0  0  0  0  0  0  0  0  0  0  0  0
    5.2875   -4.4641   34.3354 H   0  0  0  0  0  0  0  0  0  0  0  0
    5.1966   -6.2718   34.7308 H   0  0  0  0  0  0  0  0  0  0  0  0
    3.2803   -5.9160   36.1491 H   0  0  0  0  0  0  0  0  0  0  0  0
    3.7482   -2.9126   35.4843 H   0  0  0  0  0  0  0  0  0  0  0  0
    3.0891   -3.5432   36.9858 H   0  0  0  0  0  0  0  0  0  0  0  0
    1.1538   -5.8848   35.3632 H   0  0  0  0  0  0  0  0  0  0  0  0
   -0.7219   -7.2701   35.9859 H   0  0  0  0  0  0  0  0  0  0  0  0
   -2.1550   -8.2746   34.2702 H   0  0  0  0  0  0  0  0  0  0  0  0
   -0.0099   -5.3157   29.2232 H   0  0  0  0  0  0  0  0  0  0  0  0
    0.5540   -4.4842   30.5762 H   0  0  0  0  0  0  0  0  0  0  0  0
    1.3304   -5.4860   37.4880 H   0  0  0  0  0  0  0  0  0  0  0  0
    0.1819   -6.3025   39.5082 H   0  0  0  0  0  0  0  0  0  0  0  0
   -1.7115   -4.9751   40.4487 H   0  0  0  0  0  0  0  0  0  0  0  0
   -1.3952   -2.1392   37.4925 H   0  0  0  0  0  0  0  0  0  0  0  0
  1  2  2  0
  2  3  1  0
  3  4  1  0
  4  5  1  0
  5  6  1  0
  6  7  1  0
  7  8  2  0
  8  9  1  0
  9 10  2  0
 10 11  1  0
 11 12  2  0
 12 13  1  0
 13 14  2  0
 14 15  1  0
 14 16  1  0
  5 17  2  0
 17 18  1  0
 18 19  2  0
 19 20  1  0
 20 21  2  0
 21 22  1  0
 22 23  2  0
 23 24  1  0
 24 25  2  0
 19  4  1  0
 25 20  1  0
 16  7  1  0
 16 11  1  0
  1 26  1  0
  1 27  1  0
  2 28  1  0
  3 29  1  0
  3 30  1  0
  8 31  1  0
  9 32  1  0
 10 33  1  0
 15 34  1  0
 15 35  1  0
 21 36  1  0
 22 37  1  0
 23 38  1  0
 25 39  1  0
M  END
>  <Energy>  (620) 
100.40219601910374

>  <compound_id>  (620) 
897

>  <target_id>  (620) 
1

>  <reference_id>  (620) 
41

>  <inspiration_ids>  (620) 
[72, 41]

>  <energy_score>  (620) 
-20.419643128106088

>  <distance_score>  (620) 
2.2372775838040737

>  <path>  (620) 
/opt/xchem-fragalysis-2/maxwin/BulkDock/SCRATCH/505733/C897-P41/C897-P41.minimised.mol

>  <scratch_subdir>  (620) 
/opt/xchem-fragalysis-2/maxwin/BulkDock/SCRATCH/505733/C897-P41

>  <fragmenstein_runtime>  (620) 
1.8425798416137695

>  <fragmenstein_outcome>  (620) 
too moved

>  <fragmenstein_mode>  (620) 
expansion

>  <fragmenstein_error>  (620) 


$$$$
C897-P72
     RDKit          3D

 39 42  0  0  0  0  0  0  0  0999 V2000
    1.5022   -7.9846   36.2368 C   0  0  0  0  0  0  0  0  0  0  0  0
    1.8118   -6.9881   35.3993 C   0  0  0  0  0  0  0  0  0  0  0  0
    2.5113   -5.7270   35.7995 C   0  0  0  0  0  0  0  0  0  0  0  0
    1.7087   -4.5215   35.8610 N   0  0  0  0  0  0  0  0  0  0  0  0
    1.4741   -3.6478   34.8254 C   0  0  0  0  0  0  0  0  0  0  0  0
    1.1210   -4.0965   33.1646 S   0  0  0  0  0  0  0  0  0  0  0  0
   -0.0874   -5.3411   33.4160 C   0  0  0  0  0  0  0  0  0  0  0  0
   -0.7602   -5.4137   34.5841 C   0  0  0  0  0  0  0  0  0  0  0  0
   -1.4203   -6.6318   34.9714 C   0  0  0  0  0  0  0  0  0  0  0  0
   -1.6093   -7.6214   34.0952 C   0  0  0  0  0  0  0  0  0  0  0  0
   -1.1444   -7.4768   32.7691 C   0  0  0  0  0  0  0  0  0  0  0  0
   -1.3273   -8.2244   31.7080 N   0  0  0  0  0  0  0  0  0  0  0  0
   -0.6753   -7.6238   30.6693 N   0  0  0  0  0  0  0  0  0  0  0  0
   -0.0923   -6.5287   31.1096 C   0  0  0  0  0  0  0  0  0  0  0  0
    0.5865   -5.6418   30.3551 N   0  0  0  0  0  0  0  0  0  0  0  0
   -0.3619   -6.3596   32.4628 N   0  0  0  0  0  0  0  0  0  0  0  0
    1.3510   -2.4401   35.3226 N   0  0  0  0  0  0  0  0  0  0  0  0
    1.2834   -2.5541   36.6920 N   0  0  0  0  0  0  0  0  0  0  0  0
    1.3355   -3.8352   37.0066 C   0  0  0  0  0  0  0  0  0  0  0  0
    1.0242   -4.3773   38.3241 C   0  0  0  0  0  0  0  0  0  0  0  0
    1.2864   -3.6441   39.4825 C   0  0  0  0  0  0  0  0  0  0  0  0
    0.9385   -4.1576   40.7319 C   0  0  0  0  0  0  0  0  0  0  0  0
    0.3178   -5.3942   40.7856 C   0  0  0  0  0  0  0  0  0  0  0  0
    0.0199   -6.1263   39.6917 N   0  0  0  0  0  0  0  0  0  0  0  0
    0.3583   -5.5854   38.4968 C   0  0  0  0  0  0  0  0  0  0  0  0
    1.0043   -8.8871   35.8952 H   0  0  0  0  0  0  0  0  0  0  0  0
    1.7235   -7.9393   37.3010 H   0  0  0  0  0  0  0  0  0  0  0  0
    1.6248   -7.1335   34.3425 H   0  0  0  0  0  0  0  0  0  0  0  0
    2.9942   -5.8477   36.7773 H   0  0  0  0  0  0  0  0  0  0  0  0
    3.3274   -5.5348   35.0916 H   0  0  0  0  0  0  0  0  0  0  0  0
   -0.7878   -4.6252   35.3292 H   0  0  0  0  0  0  0  0  0  0  0  0
   -1.7344   -6.7130   36.0011 H   0  0  0  0  0  0  0  0  0  0  0  0
   -2.1566   -8.5102   34.3678 H   0  0  0  0  0  0  0  0  0  0  0  0
    0.3781   -5.6833   29.3569 H   0  0  0  0  0  0  0  0  0  0  0  0
    0.6528   -4.6751   30.6667 H   0  0  0  0  0  0  0  0  0  0  0  0
    1.7598   -2.6658   39.4180 H   0  0  0  0  0  0  0  0  0  0  0  0
    1.1396   -3.5988   41.6396 H   0  0  0  0  0  0  0  0  0  0  0  0
    0.0258   -5.8339   41.7354 H   0  0  0  0  0  0  0  0  0  0  0  0
    0.0297   -6.1744   37.6501 H   0  0  0  0  0  0  0  0  0  0  0  0
  1  2  2  0
  2  3  1  0
  3  4  1  0
  4  5  1  0
  5  6  1  0
  6  7  1  0
  7  8  2  0
  8  9  1  0
  9 10  2  0
 10 11  1  0
 11 12  2  0
 12 13  1  0
 13 14  2  0
 14 15  1  0
 14 16  1  0
  5 17  2  0
 17 18  1  0
 18 19  2  0
 19 20  1  0
 20 21  2  0
 21 22  1  0
 22 23  2  0
 23 24  1  0
 24 25  2  0
 19  4  1  0
 25 20  1  0
 16  7  1  0
 16 11  1  0
  1 26  1  0
  1 27  1  0
  2 28  1  0
  3 29  1  0
  3 30  1  0
  8 31  1  0
  9 32  1  0
 10 33  1  0
 15 34  1  0
 15 35  1  0
 21 36  1  0
 22 37  1  0
 23 38  1  0
 25 39  1  0
M  END
>  <Energy>  (621) 
96.564437423233542

>  <compound_id>  (621) 
897

>  <target_id>  (621) 
1

>  <reference_id>  (621) 
72

>  <inspiration_ids>  (621) 
[72, 56]

>  <energy_score>  (621) 
-18.20839286282461

>  <distance_score>  (621) 
1.5641531388945524

>  <path>  (621) 
/opt/xchem-fragalysis-2/maxwin/BulkDock/SCRATCH/505733/C897-P72/C897-P72.minimised.mol

>  <scratch_subdir>  (621) 
/opt/xchem-fragalysis-2/maxwin/BulkDock/SCRATCH/505733/C897-P72

>  <fragmenstein_runtime>  (621) 
3.25628662109375

>  <fragmenstein_outcome>  (621) 
too moved

>  <fragmenstein_mode>  (621) 
expansion

>  <fragmenstein_error>  (621) 


$$$$
C897-P56
     RDKit          3D

 39 42  0  0  0  0  0  0  0  0999 V2000
    3.6015   -6.6920   35.2878 C   0  0  0  0  0  0  0  0  0  0  0  0
    2.5426   -5.9126   35.0405 C   0  0  0  0  0  0  0  0  0  0  0  0
    2.5731   -4.4295   35.2368 C   0  0  0  0  0  0  0  0  0  0  0  0
    1.3357   -3.8468   35.7005 N   0  0  0  0  0  0  0  0  0  0  0  0
    0.2443   -3.6250   34.9017 C   0  0  0  0  0  0  0  0  0  0  0  0
    0.0230   -4.2800   33.3060 S   0  0  0  0  0  0  0  0  0  0  0  0
   -0.5795   -5.8839   33.6963 C   0  0  0  0  0  0  0  0  0  0  0  0
   -0.8400   -6.2797   34.9675 C   0  0  0  0  0  0  0  0  0  0  0  0
   -1.3001   -7.6169   35.2575 C   0  0  0  0  0  0  0  0  0  0  0  0
   -1.6369   -8.4591   34.2737 C   0  0  0  0  0  0  0  0  0  0  0  0
   -1.4678   -8.0531   32.9302 C   0  0  0  0  0  0  0  0  0  0  0  0
   -1.7901   -8.6558   31.8117 N   0  0  0  0  0  0  0  0  0  0  0  0
   -1.3144   -7.8917   30.7864 N   0  0  0  0  0  0  0  0  0  0  0  0
   -0.7061   -6.8395   31.2883 C   0  0  0  0  0  0  0  0  0  0  0  0
   -0.0103   -5.9323   30.5716 N   0  0  0  0  0  0  0  0  0  0  0  0
   -0.8658   -6.8183   32.6694 N   0  0  0  0  0  0  0  0  0  0  0  0
   -0.6624   -2.9680   35.5759 N   0  0  0  0  0  0  0  0  0  0  0  0
   -0.2074   -2.8085   36.8494 N   0  0  0  0  0  0  0  0  0  0  0  0
    1.0084   -3.3115   36.9335 C   0  0  0  0  0  0  0  0  0  0  0  0
    1.7687   -3.2177   38.1704 C   0  0  0  0  0  0  0  0  0  0  0  0
    1.1398   -3.5205   39.3861 C   0  0  0  0  0  0  0  0  0  0  0  0
    1.8041   -3.2965   40.5902 C   0  0  0  0  0  0  0  0  0  0  0  0
    3.0824   -2.7648   40.5447 C   0  0  0  0  0  0  0  0  0  0  0  0
    3.7251   -2.4478   39.4005 N   0  0  0  0  0  0  0  0  0  0  0  0
    3.0435   -2.6659   38.2442 C   0  0  0  0  0  0  0  0  0  0  0  0
    3.5836   -7.7655   35.1449 H   0  0  0  0  0  0  0  0  0  0  0  0
    4.5405   -6.2815   35.6503 H   0  0  0  0  0  0  0  0  0  0  0  0
    1.6797   -6.4073   34.6348 H   0  0  0  0  0  0  0  0  0  0  0  0
    2.8144   -3.9458   34.2819 H   0  0  0  0  0  0  0  0  0  0  0  0
    3.3690   -4.1381   35.9239 H   0  0  0  0  0  0  0  0  0  0  0  0
   -0.7466   -5.6470   35.8428 H   0  0  0  0  0  0  0  0  0  0  0  0
   -1.3719   -7.9230   36.2949 H   0  0  0  0  0  0  0  0  0  0  0  0
   -1.9952   -9.4631   34.4772 H   0  0  0  0  0  0  0  0  0  0  0  0
    0.3315   -6.3164   29.6907 H   0  0  0  0  0  0  0  0  0  0  0  0
    0.7295   -5.4264   31.0507 H   0  0  0  0  0  0  0  0  0  0  0  0
    0.1209   -3.9015   39.3957 H   0  0  0  0  0  0  0  0  0  0  0  0
    1.3268   -3.5143   41.5383 H   0  0  0  0  0  0  0  0  0  0  0  0
    3.6359   -2.5633   41.4572 H   0  0  0  0  0  0  0  0  0  0  0  0
    3.5738   -2.3420   37.3539 H   0  0  0  0  0  0  0  0  0  0  0  0
  1  2  2  0
  2  3  1  0
  3  4  1  0
  4  5  1  0
  5  6  1  0
  6  7  1  0
  7  8  2  0
  8  9  1  0
  9 10  2  0
 10 11  1  0
 11 12  2  0
 12 13  1  0
 13 14  2  0
 14 15  1  0
 14 16  1  0
  5 17  2  0
 17 18  1  0
 18 19  2  0
 19 20  1  0
 20 21  2  0
 21 22  1  0
 22 23  2  0
 23 24  1  0
 24 25  2  0
 19  4  1  0
 25 20  1  0
 16  7  1  0
 16 11  1  0
  1 26  1  0
  1 27  1  0
  2 28  1  0
  3 29  1  0
  3 30  1  0
  8 31  1  0
  9 32  1  0
 10 33  1  0
 15 34  1  0
 15 35  1  0
 21 36  1  0
 22 37  1  0
 23 38  1  0
 25 39  1  0
M  END
>  <Energy>  (622) 
90.024271145057767

>  <compound_id>  (622) 
897

>  <target_id>  (622) 
1

>  <reference_id>  (622) 
56

>  <inspiration_ids>  (622) 
[72, 56]

>  <energy_score>  (622) 
-24.7485591410001

>  <distance_score>  (622) 
1.9164895361896204

>  <path>  (622) 
/opt/xchem-fragalysis-2/maxwin/BulkDock/SCRATCH/505733/C897-P56/C897-P56.minimised.mol

>  <scratch_subdir>  (622) 
/opt/xchem-fragalysis-2/maxwin/BulkDock/SCRATCH/505733/C897-P56

>  <fragmenstein_runtime>  (622) 
3.3393280506134033

>  <fragmenstein_outcome>  (622) 
too moved

>  <fragmenstein_mode>  (622) 
expansion

>  <fragmenstein_error>  (622) 


$$$$
C898-P72
     RDKit          3D

 28 30  0  0  0  0  0  0  0  0999 V2000
    4.4769   -4.5823   33.4199 N   0  0  0  0  0  0  0  0  0  0  0  0
    3.2455   -4.1879   33.8151 C   0  0  0  0  0  0  0  0  0  0  0  0
    2.6982   -3.0045   33.6601 N   0  0  0  0  0  0  0  0  0  0  0  0
    1.3917   -3.0663   34.0887 N   0  0  0  0  0  0  0  0  0  0  0  0
    1.1581   -4.3005   34.4684 C   0  0  0  0  0  0  0  0  0  0  0  0
   -0.0610   -4.9995   34.6863 C   0  0  0  0  0  0  0  0  0  0  0  0
   -0.0017   -6.3489   34.6096 C   0  0  0  0  0  0  0  0  0  0  0  0
   -1.0747   -7.0838   33.8497 C   0  0  0  0  0  0  0  0  0  0  0  0
   -0.7350   -7.1815   32.3647 C   0  0  0  0  0  0  0  0  0  0  0  0
   -1.0050   -8.3409   31.6541 C   0  0  0  0  0  0  0  0  0  0  0  0
   -0.5020   -8.4704   30.3662 C   0  0  0  0  0  0  0  0  0  0  0  0
    0.2039   -7.5307   29.7253 N   0  0  0  0  0  0  0  0  0  0  0  0
    0.3394   -6.3617   30.3717 C   0  0  0  0  0  0  0  0  0  0  0  0
   -0.1234   -6.1411   31.6546 C   0  0  0  0  0  0  0  0  0  0  0  0
    1.2457   -7.0663   34.8630 C   0  0  0  0  0  0  0  0  0  0  0  0
    2.3951   -6.4020   34.6750 C   0  0  0  0  0  0  0  0  0  0  0  0
    2.3225   -5.0471   34.3677 N   0  0  0  0  0  0  0  0  0  0  0  0
    5.0723   -3.8010   33.1463 H   0  0  0  0  0  0  0  0  0  0  0  0
    4.9884   -5.2129   34.0291 H   0  0  0  0  0  0  0  0  0  0  0  0
   -0.9698   -4.4475   34.4641 H   0  0  0  0  0  0  0  0  0  0  0  0
   -1.2194   -8.0769   34.2835 H   0  0  0  0  0  0  0  0  0  0  0  0
   -2.0172   -6.5601   33.9505 H   0  0  0  0  0  0  0  0  0  0  0  0
   -1.5462   -9.1552   32.1122 H   0  0  0  0  0  0  0  0  0  0  0  0
   -0.6244   -9.3915   29.8066 H   0  0  0  0  0  0  0  0  0  0  0  0
    0.8478   -5.5702   29.8261 H   0  0  0  0  0  0  0  0  0  0  0  0
    0.0409   -5.1574   32.0782 H   0  0  0  0  0  0  0  0  0  0  0  0
    1.2106   -8.1138   35.1368 H   0  0  0  0  0  0  0  0  0  0  0  0
    3.3733   -6.8565   34.7374 H   0  0  0  0  0  0  0  0  0  0  0  0
  1  2  1  0
  2  3  2  0
  3  4  1  0
  4  5  2  0
  5  6  1  0
  6  7  2  0
  7  8  1  0
  8  9  1  0
  9 10  2  0
 10 11  1  0
 11 12  2  0
 12 13  1  0
 13 14  2  0
  7 15  1  0
 15 16  2  0
 16 17  1  0
 17  2  1  0
 17  5  1  0
 14  9  1  0
  1 18  1  0
  1 19  1  0
  6 20  1  0
  8 21  1  0
  8 22  1  0
 10 23  1  0
 11 24  1  0
 13 25  1  0
 14 26  1  0
 15 27  1  0
 16 28  1  0
M  END
>  <Energy>  (623) 
76.496169802084495

>  <compound_id>  (623) 
898

>  <target_id>  (623) 
1

>  <reference_id>  (623) 
72

>  <inspiration_ids>  (623) 
[72, 116]

>  <energy_score>  (623) 
-0.6972995231730579

>  <distance_score>  (623) 
5.405882694790256

>  <path>  (623) 
/opt/xchem-fragalysis-2/maxwin/BulkDock/SCRATCH/505733/C898-P72/C898-P72.minimised.mol

>  <scratch_subdir>  (623) 
/opt/xchem-fragalysis-2/maxwin/BulkDock/SCRATCH/505733/C898-P72

>  <fragmenstein_runtime>  (623) 
3.468289852142334

>  <fragmenstein_outcome>  (623) 
too moved

>  <fragmenstein_mode>  (623) 
expansion

>  <fragmenstein_error>  (623) 


$$$$
C898-P116
     RDKit          3D

 28 30  0  0  0  0  0  0  0  0999 V2000
   -1.8489   -7.4039   30.2035 N   0  0  0  0  0  0  0  0  0  0  0  0
   -2.4222   -7.8475   31.3722 C   0  0  0  0  0  0  0  0  0  0  0  0
   -3.4573   -8.6559   31.5245 N   0  0  0  0  0  0  0  0  0  0  0  0
   -3.2885   -9.3413   32.6730 N   0  0  0  0  0  0  0  0  0  0  0  0
   -2.0028   -9.2307   32.8204 C   0  0  0  0  0  0  0  0  0  0  0  0
   -1.0662  -10.1533   32.3313 C   0  0  0  0  0  0  0  0  0  0  0  0
   -0.0487   -9.7397   31.5722 C   0  0  0  0  0  0  0  0  0  0  0  0
    0.8000  -10.9239   31.0534 C   0  0  0  0  0  0  0  0  0  0  0  0
    0.6752  -11.5091   29.6743 C   0  0  0  0  0  0  0  0  0  0  0  0
   -0.3053  -11.1398   28.7787 C   0  0  0  0  0  0  0  0  0  0  0  0
   -0.5456  -11.9537   27.6901 C   0  0  0  0  0  0  0  0  0  0  0  0
    0.1577  -13.0675   27.4272 N   0  0  0  0  0  0  0  0  0  0  0  0
    1.1396  -13.3971   28.2770 C   0  0  0  0  0  0  0  0  0  0  0  0
    1.4327  -12.6555   29.3983 C   0  0  0  0  0  0  0  0  0  0  0  0
    0.3431   -8.2771   31.8318 C   0  0  0  0  0  0  0  0  0  0  0  0
   -0.4329   -7.4375   32.5171 C   0  0  0  0  0  0  0  0  0  0  0  0
   -1.7046   -7.8977   32.5489 N   0  0  0  0  0  0  0  0  0  0  0  0
   -1.2393   -6.5797   30.3421 H   0  0  0  0  0  0  0  0  0  0  0  0
   -1.1730   -8.0604   29.8131 H   0  0  0  0  0  0  0  0  0  0  0  0
   -1.1908  -11.2005   32.5219 H   0  0  0  0  0  0  0  0  0  0  0  0
    0.3979  -11.8058   31.5595 H   0  0  0  0  0  0  0  0  0  0  0  0
    1.8503  -10.8784   31.3651 H   0  0  0  0  0  0  0  0  0  0  0  0
   -0.9079  -10.2754   28.9744 H   0  0  0  0  0  0  0  0  0  0  0  0
   -1.3507  -11.7480   26.9944 H   0  0  0  0  0  0  0  0  0  0  0  0
    1.6742  -14.3109   28.0422 H   0  0  0  0  0  0  0  0  0  0  0  0
    2.1866  -13.0073   30.0923 H   0  0  0  0  0  0  0  0  0  0  0  0
    1.3153   -7.8762   31.7242 H   0  0  0  0  0  0  0  0  0  0  0  0
   -0.2161   -6.4127   32.7753 H   0  0  0  0  0  0  0  0  0  0  0  0
  1  2  1  0
  2  3  2  0
  3  4  1  0
  4  5  2  0
  5  6  1  0
  6  7  2  0
  7  8  1  0
  8  9  1  0
  9 10  2  0
 10 11  1  0
 11 12  2  0
 12 13  1  0
 13 14  2  0
  7 15  1  0
 15 16  2  0
 16 17  1  0
 17  2  1  0
 17  5  1  0
 14  9  1  0
  1 18  1  0
  1 19  1  0
  6 20  1  0
  8 21  1  0
  8 22  1  0
 10 23  1  0
 11 24  1  0
 13 25  1  0
 14 26  1  0
 15 27  1  0
 16 28  1  0
M  END
>  <Energy>  (624) 
184.69315887183325

>  <compound_id>  (624) 
898

>  <target_id>  (624) 
1

>  <reference_id>  (624) 
116

>  <inspiration_ids>  (624) 
[72, 116]

>  <energy_score>  (624) 
107.49968954657504

>  <distance_score>  (624) 
2.659394045775309

>  <path>  (624) 
/opt/xchem-fragalysis-2/maxwin/BulkDock/SCRATCH/505733/C898-P116/C898-P116.minimised.mol

>  <scratch_subdir>  (624) 
/opt/xchem-fragalysis-2/maxwin/BulkDock/SCRATCH/505733/C898-P116

>  <fragmenstein_runtime>  (624) 
2.2299511432647705

>  <fragmenstein_outcome>  (624) 
too moved

>  <fragmenstein_mode>  (624) 
expansion

>  <fragmenstein_error>  (624) 


$$$$
C900-P72
     RDKit          3D

 53 57  0  0  0  0  0  0  0  0999 V2000
    2.8247   -4.4523   31.2590 O   0  0  0  0  0  0  0  0  0  0  0  0
    2.5496   -3.3177   31.3471 C   0  0  0  0  0  0  0  0  0  0  0  0
    3.3139   -2.1451   32.0278 N   0  0  0  0  0  0  0  0  0  0  0  0
    4.5272   -2.1477   32.8224 C   0  0  0  0  0  0  0  0  0  0  0  0
    4.2393   -2.9743   34.1170 C   0  0  0  0  0  0  0  0  0  0  0  0
    4.0823   -4.2800   34.1244 N   0  0  0  0  0  0  0  0  0  0  0  0
    3.7372   -4.6555   35.3988 N   0  0  0  0  0  0  0  0  0  0  0  0
    3.6374   -3.5685   36.1353 C   0  0  0  0  0  0  0  0  0  0  0  0
    3.2054   -3.5061   37.4991 C   0  0  0  0  0  0  0  0  0  0  0  0
    2.9704   -2.3813   38.2705 C   0  0  0  0  0  0  0  0  0  0  0  0
    2.5446   -2.7013   39.5950 C   0  0  0  0  0  0  0  0  0  0  0  0
    2.4690   -4.0598   39.7968 C   0  0  0  0  0  0  0  0  0  0  0  0
    2.9089   -4.9382   38.4001 S   0  0  0  0  0  0  0  0  0  0  0  0
    3.9776   -2.4878   35.3655 N   0  0  0  0  0  0  0  0  0  0  0  0
    5.8021   -2.5724   32.0519 C   0  0  0  0  0  0  0  0  0  0  0  0
    6.5544   -1.4480   32.7912 C   0  0  0  0  0  0  0  0  0  0  0  0
    5.1906   -0.7630   33.0106 C   0  0  0  0  0  0  0  0  0  0  0  0
    1.2053   -2.7640   30.7759 C   0  0  0  0  0  0  0  0  0  0  0  0
    0.5560   -1.3552   31.7888 S   0  0  0  0  0  0  0  0  0  0  0  0
    1.5647   -2.1196   29.1426 Cl  0  0  0  0  0  0  0  0  0  0  0  0
    0.1150   -3.8503   30.7588 C   0  0  0  0  0  0  0  0  0  0  0  0
    0.3909   -5.0655   29.8659 C   0  0  0  0  0  0  0  0  0  0  0  0
    0.9051   -6.2088   30.6103 N   0  0  0  0  0  0  0  0  0  0  0  0
    0.0045   -6.8829   31.3742 C   0  0  0  0  0  0  0  0  0  0  0  0
   -1.0797   -7.5323   30.9980 N   0  0  0  0  0  0  0  0  0  0  0  0
   -1.7247   -7.9858   32.1271 N   0  0  0  0  0  0  0  0  0  0  0  0
   -1.0567   -7.5489   33.1734 C   0  0  0  0  0  0  0  0  0  0  0  0
   -1.2883   -7.6219   34.5740 C   0  0  0  0  0  0  0  0  0  0  0  0
   -0.4201   -7.0515   35.4304 C   0  0  0  0  0  0  0  0  0  0  0  0
    0.7650   -6.3634   34.9547 C   0  0  0  0  0  0  0  0  0  0  0  0
    0.9925   -6.2951   33.6338 C   0  0  0  0  0  0  0  0  0  0  0  0
    0.0785   -6.8777   32.7552 N   0  0  0  0  0  0  0  0  0  0  0  0
    2.7465   -1.3002   31.9875 H   0  0  0  0  0  0  0  0  0  0  0  0
    3.0874   -1.3643   37.9193 H   0  0  0  0  0  0  0  0  0  0  0  0
    2.3049   -1.9725   40.3602 H   0  0  0  0  0  0  0  0  0  0  0  0
    2.1766   -4.5824   40.6977 H   0  0  0  0  0  0  0  0  0  0  0  0
    3.9728   -1.5221   35.6528 H   0  0  0  0  0  0  0  0  0  0  0  0
    5.7477   -2.4178   30.9670 H   0  0  0  0  0  0  0  0  0  0  0  0
    6.1797   -3.5826   32.2359 H   0  0  0  0  0  0  0  0  0  0  0  0
    7.0383   -1.7757   33.7184 H   0  0  0  0  0  0  0  0  0  0  0  0
    7.2766   -0.8869   32.1930 H   0  0  0  0  0  0  0  0  0  0  0  0
    4.9426   -0.0351   32.2276 H   0  0  0  0  0  0  0  0  0  0  0  0
    5.0691   -0.2711   33.9794 H   0  0  0  0  0  0  0  0  0  0  0  0
   -0.4143   -1.0111   30.9267 H   0  0  0  0  0  0  0  0  0  0  0  0
   -0.8107   -3.3949   30.3764 H   0  0  0  0  0  0  0  0  0  0  0  0
   -0.1100   -4.1665   31.7843 H   0  0  0  0  0  0  0  0  0  0  0  0
    1.1004   -4.8279   29.0691 H   0  0  0  0  0  0  0  0  0  0  0  0
   -0.5457   -5.3450   29.3804 H   0  0  0  0  0  0  0  0  0  0  0  0
    1.7893   -5.9367   31.0559 H   0  0  0  0  0  0  0  0  0  0  0  0
   -2.1537   -8.1675   34.9261 H   0  0  0  0  0  0  0  0  0  0  0  0
   -0.5705   -7.1174   36.5038 H   0  0  0  0  0  0  0  0  0  0  0  0
    1.4488   -5.9305   35.6759 H   0  0  0  0  0  0  0  0  0  0  0  0
    1.8633   -5.7972   33.2290 H   0  0  0  0  0  0  0  0  0  0  0  0
  1  2  2  0
  2  3  1  0
  3  4  1  0
  4  5  1  0
  5  6  2  0
  6  7  1  0
  7  8  2  0
  8  9  1  0
  9 10  2  0
 10 11  1  0
 11 12  2  0
 12 13  1  0
  8 14  1  0
  4 15  1  0
 15 16  1  0
 16 17  1  0
  2 18  1  0
 18 19  1  0
 18 20  1  0
 18 21  1  0
 21 22  1  0
 22 23  1  0
 23 24  1  0
 24 25  2  0
 25 26  1  0
 26 27  2  0
 27 28  1  0
 28 29  2  0
 29 30  1  0
 30 31  2  0
 31 32  1  0
 17  4  1  0
 32 24  1  0
 14  5  1  0
 32 27  1  0
 13  9  1  0
  3 33  1  0
 10 34  1  0
 11 35  1  0
 12 36  1  0
 14 37  1  0
 15 38  1  0
 15 39  1  0
 16 40  1  0
 16 41  1  0
 17 42  1  0
 17 43  1  0
 19 44  1  0
 21 45  1  0
 21 46  1  0
 22 47  1  0
 22 48  1  0
 23 49  1  0
 28 50  1  0
 29 51  1  0
 30 52  1  0
 31 53  1  0
M  END
>  <Energy>  (625) 
88.098969636921595

>  <compound_id>  (625) 
900

>  <target_id>  (625) 
1

>  <reference_id>  (625) 
72

>  <inspiration_ids>  (625) 
[72, 129]

>  <energy_score>  (625) 
-70.06170557488429

>  <distance_score>  (625) 
0.9989323355210806

>  <path>  (625) 
/opt/xchem-fragalysis-2/maxwin/BulkDock/SCRATCH/505733/C900-P72/C900-P72.minimised.mol

>  <scratch_subdir>  (625) 
/opt/xchem-fragalysis-2/maxwin/BulkDock/SCRATCH/505733/C900-P72

>  <fragmenstein_runtime>  (625) 
3.752837896347046

>  <fragmenstein_outcome>  (625) 
acceptable

>  <fragmenstein_mode>  (625) 
expansion

>  <fragmenstein_error>  (625) 


$$$$
C900-P129
     RDKit          3D

 53 57  0  0  0  0  0  0  0  0999 V2000
    2.7987   -4.3951   31.2847 O   0  0  0  0  0  0  0  0  0  0  0  0
    2.5091   -3.2632   31.3546 C   0  0  0  0  0  0  0  0  0  0  0  0
    3.2498   -2.0733   32.0309 N   0  0  0  0  0  0  0  0  0  0  0  0
    4.4524   -2.0515   32.8426 C   0  0  0  0  0  0  0  0  0  0  0  0
    4.1891   -2.9200   34.1150 C   0  0  0  0  0  0  0  0  0  0  0  0
    4.1209   -4.2332   34.0998 N   0  0  0  0  0  0  0  0  0  0  0  0
    3.7833   -4.6525   35.3631 N   0  0  0  0  0  0  0  0  0  0  0  0
    3.5993   -3.5868   36.1144 C   0  0  0  0  0  0  0  0  0  0  0  0
    3.1474   -3.5751   37.4729 C   0  0  0  0  0  0  0  0  0  0  0  0
    2.7708   -2.4857   38.2389 C   0  0  0  0  0  0  0  0  0  0  0  0
    2.3680   -2.8536   39.5581 C   0  0  0  0  0  0  0  0  0  0  0  0
    2.4517   -4.2114   39.7614 C   0  0  0  0  0  0  0  0  0  0  0  0
    3.0136   -5.0318   38.3731 S   0  0  0  0  0  0  0  0  0  0  0  0
    3.8736   -2.4731   35.3658 N   0  0  0  0  0  0  0  0  0  0  0  0
    5.7509   -2.4054   32.0747 C   0  0  0  0  0  0  0  0  0  0  0  0
    6.4516   -1.2728   32.8509 C   0  0  0  0  0  0  0  0  0  0  0  0
    5.0603   -0.6469   33.0732 C   0  0  0  0  0  0  0  0  0  0  0  0
    1.1772   -2.7310   30.7361 C   0  0  0  0  0  0  0  0  0  0  0  0
    0.4828   -1.3209   31.7153 S   0  0  0  0  0  0  0  0  0  0  0  0
    1.5834   -2.0979   29.1088 Cl  0  0  0  0  0  0  0  0  0  0  0  0
    0.0990   -3.8283   30.6882 C   0  0  0  0  0  0  0  0  0  0  0  0
    0.4240   -5.0566   29.8291 C   0  0  0  0  0  0  0  0  0  0  0  0
    0.9213   -6.1710   30.6234 N   0  0  0  0  0  0  0  0  0  0  0  0
    0.0070   -6.8361   31.3793 C   0  0  0  0  0  0  0  0  0  0  0  0
   -1.0796   -7.4731   30.9919 N   0  0  0  0  0  0  0  0  0  0  0  0
   -1.7410   -7.9191   32.1139 N   0  0  0  0  0  0  0  0  0  0  0  0
   -1.0715   -7.5043   33.1681 C   0  0  0  0  0  0  0  0  0  0  0  0
   -1.3014   -7.6018   34.5675 C   0  0  0  0  0  0  0  0  0  0  0  0
   -0.4218   -7.0619   35.4321 C   0  0  0  0  0  0  0  0  0  0  0  0
    0.7681   -6.3738   34.9677 C   0  0  0  0  0  0  0  0  0  0  0  0
    0.9951   -6.2847   33.6480 C   0  0  0  0  0  0  0  0  0  0  0  0
    0.0745   -6.8438   32.7608 N   0  0  0  0  0  0  0  0  0  0  0  0
    2.6731   -1.2358   31.9720 H   0  0  0  0  0  0  0  0  0  0  0  0
    2.7673   -1.4627   37.8856 H   0  0  0  0  0  0  0  0  0  0  0  0
    2.0306   -2.1585   40.3176 H   0  0  0  0  0  0  0  0  0  0  0  0
    2.2089   -4.7653   40.6584 H   0  0  0  0  0  0  0  0  0  0  0  0
    3.8006   -1.5149   35.6684 H   0  0  0  0  0  0  0  0  0  0  0  0
    5.7008   -2.2244   30.9936 H   0  0  0  0  0  0  0  0  0  0  0  0
    6.1663   -3.4046   32.2358 H   0  0  0  0  0  0  0  0  0  0  0  0
    6.9390   -1.6058   33.7744 H   0  0  0  0  0  0  0  0  0  0  0  0
    7.1574   -0.6687   32.2753 H   0  0  0  0  0  0  0  0  0  0  0  0
    4.7920    0.0912   32.3067 H   0  0  0  0  0  0  0  0  0  0  0  0
    4.9105   -0.1857   34.0531 H   0  0  0  0  0  0  0  0  0  0  0  0
   -0.4623   -0.9934   30.8192 H   0  0  0  0  0  0  0  0  0  0  0  0
   -0.8135   -3.3881   30.2592 H   0  0  0  0  0  0  0  0  0  0  0  0
   -0.1669   -4.1308   31.7085 H   0  0  0  0  0  0  0  0  0  0  0  0
    1.1603   -4.8286   29.0535 H   0  0  0  0  0  0  0  0  0  0  0  0
   -0.4862   -5.3598   29.3107 H   0  0  0  0  0  0  0  0  0  0  0  0
    1.7903   -5.8797   31.0869 H   0  0  0  0  0  0  0  0  0  0  0  0
   -2.1645   -8.1548   34.9156 H   0  0  0  0  0  0  0  0  0  0  0  0
   -0.5644   -7.1661   36.5038 H   0  0  0  0  0  0  0  0  0  0  0  0
    1.4575   -5.9636   35.6965 H   0  0  0  0  0  0  0  0  0  0  0  0
    1.8718   -5.7909   33.2508 H   0  0  0  0  0  0  0  0  0  0  0  0
  1  2  2  0
  2  3  1  0
  3  4  1  0
  4  5  1  0
  5  6  2  0
  6  7  1  0
  7  8  2  0
  8  9  1  0
  9 10  2  0
 10 11  1  0
 11 12  2  0
 12 13  1  0
  8 14  1  0
  4 15  1  0
 15 16  1  0
 16 17  1  0
  2 18  1  0
 18 19  1  0
 18 20  1  0
 18 21  1  0
 21 22  1  0
 22 23  1  0
 23 24  1  0
 24 25  2  0
 25 26  1  0
 26 27  2  0
 27 28  1  0
 28 29  2  0
 29 30  1  0
 30 31  2  0
 31 32  1  0
 17  4  1  0
 32 24  1  0
 14  5  1  0
 32 27  1  0
 13  9  1  0
  3 33  1  0
 10 34  1  0
 11 35  1  0
 12 36  1  0
 14 37  1  0
 15 38  1  0
 15 39  1  0
 16 40  1  0
 16 41  1  0
 17 42  1  0
 17 43  1  0
 19 44  1  0
 21 45  1  0
 21 46  1  0
 22 47  1  0
 22 48  1  0
 23 49  1  0
 28 50  1  0
 29 51  1  0
 30 52  1  0
 31 53  1  0
M  END
>  <Energy>  (626) 
87.30182801262238

>  <compound_id>  (626) 
900

>  <target_id>  (626) 
1

>  <reference_id>  (626) 
129

>  <inspiration_ids>  (626) 
[72, 129]

>  <energy_score>  (626) 
-70.85884719918496

>  <distance_score>  (626) 
1.0024355892601766

>  <path>  (626) 
/opt/xchem-fragalysis-2/maxwin/BulkDock/SCRATCH/505733/C900-P129/C900-P129.minimised.mol

>  <scratch_subdir>  (626) 
/opt/xchem-fragalysis-2/maxwin/BulkDock/SCRATCH/505733/C900-P129

>  <fragmenstein_runtime>  (626) 
4.458721160888672

>  <fragmenstein_outcome>  (626) 
too moved

>  <fragmenstein_mode>  (626) 
expansion

>  <fragmenstein_error>  (626) 


$$$$
C902-P72
     RDKit          3D

 30 33  0  0  0  0  0  0  0  0999 V2000
   -0.5482   -4.0163   28.9332 N   0  0  0  0  0  0  0  0  0  0  0  0
   -0.6832   -3.1623   29.9679 C   0  0  0  0  0  0  0  0  0  0  0  0
   -0.7633   -1.8584   29.8370 N   0  0  0  0  0  0  0  0  0  0  0  0
   -0.7735   -1.3029   31.0782 N   0  0  0  0  0  0  0  0  0  0  0  0
   -0.7202   -2.2814   31.9481 C   0  0  0  0  0  0  0  0  0  0  0  0
   -0.6864   -2.2249   33.3591 C   0  0  0  0  0  0  0  0  0  0  0  0
   -0.7857   -3.3529   34.0659 C   0  0  0  0  0  0  0  0  0  0  0  0
   -0.9173   -4.6260   33.3961 C   0  0  0  0  0  0  0  0  0  0  0  0
   -0.8293   -4.7415   32.0471 C   0  0  0  0  0  0  0  0  0  0  0  0
   -0.8617   -6.3565   31.3167 S   0  0  0  0  0  0  0  0  0  0  0  0
    0.4039   -6.9353   32.3100 C   0  0  0  0  0  0  0  0  0  0  0  0
    1.5963   -6.3930   32.3342 N   0  0  0  0  0  0  0  0  0  0  0  0
    1.9542   -6.4266   33.6524 C   0  0  0  0  0  0  0  0  0  0  0  0
    3.0514   -5.8427   34.3042 C   0  0  0  0  0  0  0  0  0  0  0  0
    3.1691   -6.0017   35.6905 C   0  0  0  0  0  0  0  0  0  0  0  0
    2.2096   -6.7182   36.4013 C   0  0  0  0  0  0  0  0  0  0  0  0
    2.3456   -6.8456   37.7280 F   0  0  0  0  0  0  0  0  0  0  0  0
    1.1094   -7.3081   35.7770 C   0  0  0  0  0  0  0  0  0  0  0  0
    1.0271   -7.1534   34.3960 C   0  0  0  0  0  0  0  0  0  0  0  0
    0.0955   -7.5755   33.4748 N   0  0  0  0  0  0  0  0  0  0  0  0
   -0.7383   -3.5265   31.3099 N   0  0  0  0  0  0  0  0  0  0  0  0
    0.0054   -3.5609   28.2056 H   0  0  0  0  0  0  0  0  0  0  0  0
   -1.4361   -4.0917   28.4099 H   0  0  0  0  0  0  0  0  0  0  0  0
   -0.6075   -1.2572   33.8414 H   0  0  0  0  0  0  0  0  0  0  0  0
   -0.7929   -3.3389   35.1515 H   0  0  0  0  0  0  0  0  0  0  0  0
   -1.0998   -5.4524   34.0699 H   0  0  0  0  0  0  0  0  0  0  0  0
    3.7793   -5.2667   33.7423 H   0  0  0  0  0  0  0  0  0  0  0  0
    4.0045   -5.5560   36.2232 H   0  0  0  0  0  0  0  0  0  0  0  0
    0.3706   -7.8581   36.3502 H   0  0  0  0  0  0  0  0  0  0  0  0
   -0.7871   -8.0202   33.6925 H   0  0  0  0  0  0  0  0  0  0  0  0
  1  2  1  0
  2  3  2  0
  3  4  1  0
  4  5  2  0
  5  6  1  0
  6  7  2  0
  7  8  1  0
  8  9  2  0
  9 10  1  0
 10 11  1  0
 11 12  2  0
 12 13  1  0
 13 14  2  0
 14 15  1  0
 15 16  2  0
 16 17  1  0
 16 18  1  0
 18 19  2  0
 19 20  1  0
  9 21  1  0
 21  2  1  0
 21  5  1  0
 20 11  1  0
 19 13  1  0
  1 22  1  0
  1 23  1  0
  6 24  1  0
  7 25  1  0
  8 26  1  0
 14 27  1  0
 15 28  1  0
 18 29  1  0
 20 30  1  0
M  END
>  <Energy>  (627) 
56.92048860112682

>  <compound_id>  (627) 
902

>  <target_id>  (627) 
1

>  <reference_id>  (627) 
72

>  <inspiration_ids>  (627) 
[72, 131]

>  <energy_score>  (627) 
-21.108758370657824

>  <distance_score>  (627) 
2.2547379781555934

>  <path>  (627) 
/opt/xchem-fragalysis-2/maxwin/BulkDock/SCRATCH/505733/C902-P72/C902-P72.minimised.mol

>  <scratch_subdir>  (627) 
/opt/xchem-fragalysis-2/maxwin/BulkDock/SCRATCH/505733/C902-P72

>  <fragmenstein_runtime>  (627) 
8.967894554138184

>  <fragmenstein_outcome>  (627) 
too moved

>  <fragmenstein_mode>  (627) 
expansion

>  <fragmenstein_error>  (627) 


$$$$
C902-P131
     RDKit          3D

 30 33  0  0  0  0  0  0  0  0999 V2000
   -0.5447   -4.0365   28.9677 N   0  0  0  0  0  0  0  0  0  0  0  0
   -0.7004   -3.1795   29.9976 C   0  0  0  0  0  0  0  0  0  0  0  0
   -0.8074   -1.8789   29.8539 N   0  0  0  0  0  0  0  0  0  0  0  0
   -0.8093   -1.3105   31.0885 N   0  0  0  0  0  0  0  0  0  0  0  0
   -0.7270   -2.2784   31.9680 C   0  0  0  0  0  0  0  0  0  0  0  0
   -0.6701   -2.2037   33.3773 C   0  0  0  0  0  0  0  0  0  0  0  0
   -0.7352   -3.3245   34.0990 C   0  0  0  0  0  0  0  0  0  0  0  0
   -0.8588   -4.6068   33.4462 C   0  0  0  0  0  0  0  0  0  0  0  0
   -0.7996   -4.7394   32.0977 C   0  0  0  0  0  0  0  0  0  0  0  0
   -0.8448   -6.3602   31.3876 S   0  0  0  0  0  0  0  0  0  0  0  0
    0.4115   -6.9549   32.3801 C   0  0  0  0  0  0  0  0  0  0  0  0
    1.6236   -6.4577   32.3755 N   0  0  0  0  0  0  0  0  0  0  0  0
    2.0056   -6.4982   33.6865 C   0  0  0  0  0  0  0  0  0  0  0  0
    3.1385   -5.9552   34.3129 C   0  0  0  0  0  0  0  0  0  0  0  0
    3.2737   -6.1025   35.6991 C   0  0  0  0  0  0  0  0  0  0  0  0
    2.2942   -6.7632   36.4362 C   0  0  0  0  0  0  0  0  0  0  0  0
    2.4511   -6.8815   37.7616 F   0  0  0  0  0  0  0  0  0  0  0  0
    1.1565   -7.3066   35.8386 C   0  0  0  0  0  0  0  0  0  0  0  0
    1.0615   -7.1719   34.4560 C   0  0  0  0  0  0  0  0  0  0  0  0
    0.0960   -7.5653   33.5579 N   0  0  0  0  0  0  0  0  0  0  0  0
   -0.7362   -3.5317   31.3444 N   0  0  0  0  0  0  0  0  0  0  0  0
    0.0416   -3.5876   28.2625 H   0  0  0  0  0  0  0  0  0  0  0  0
   -1.4143   -4.0928   28.4141 H   0  0  0  0  0  0  0  0  0  0  0  0
   -0.6019   -1.2292   33.8469 H   0  0  0  0  0  0  0  0  0  0  0  0
   -0.7270   -3.2996   35.1843 H   0  0  0  0  0  0  0  0  0  0  0  0
   -1.0261   -5.4247   34.1347 H   0  0  0  0  0  0  0  0  0  0  0  0
    3.8785   -5.4148   33.7322 H   0  0  0  0  0  0  0  0  0  0  0  0
    4.1364   -5.6870   36.2117 H   0  0  0  0  0  0  0  0  0  0  0  0
    0.3989   -7.8127   36.4300 H   0  0  0  0  0  0  0  0  0  0  0  0
   -0.7985   -7.9768   33.7979 H   0  0  0  0  0  0  0  0  0  0  0  0
  1  2  1  0
  2  3  2  0
  3  4  1  0
  4  5  2  0
  5  6  1  0
  6  7  2  0
  7  8  1  0
  8  9  2  0
  9 10  1  0
 10 11  1  0
 11 12  2  0
 12 13  1  0
 13 14  2  0
 14 15  1  0
 15 16  2  0
 16 17  1  0
 16 18  1  0
 18 19  2  0
 19 20  1  0
  9 21  1  0
 21  2  1  0
 21  5  1  0
 20 11  1  0
 19 13  1  0
  1 22  1  0
  1 23  1  0
  6 24  1  0
  7 25  1  0
  8 26  1  0
 14 27  1  0
 15 28  1  0
 18 29  1  0
 20 30  1  0
M  END
>  <Energy>  (628) 
56.773205826188345

>  <compound_id>  (628) 
902

>  <target_id>  (628) 
1

>  <reference_id>  (628) 
131

>  <inspiration_ids>  (628) 
[72, 131]

>  <energy_score>  (628) 
-21.256041145598942

>  <distance_score>  (628) 
2.2670607190959084

>  <path>  (628) 
/opt/xchem-fragalysis-2/maxwin/BulkDock/SCRATCH/505733/C902-P131/C902-P131.minimised.mol

>  <scratch_subdir>  (628) 
/opt/xchem-fragalysis-2/maxwin/BulkDock/SCRATCH/505733/C902-P131

>  <fragmenstein_runtime>  (628) 
8.278171300888062

>  <fragmenstein_outcome>  (628) 
too moved

>  <fragmenstein_mode>  (628) 
expansion

>  <fragmenstein_error>  (628) 


$$$$
C904-P72
     RDKit          3D

 30 32  0  0  0  0  0  0  0  0999 V2000
    1.6643   -1.7886   31.3191 O   0  0  0  0  0  0  0  0  0  0  0  0
    1.3300   -2.6535   32.4259 S   0  0  0  0  0  0  0  0  0  0  0  0
    0.0319   -2.6223   33.0542 O   0  0  0  0  0  0  0  0  0  0  0  0
    1.6077   -4.2133   31.8523 N   0  0  0  0  0  0  0  0  0  0  0  0
    0.5998   -4.6090   30.8704 C   0  0  0  0  0  0  0  0  0  0  0  0
    0.7247   -6.0409   30.6112 N   0  0  0  0  0  0  0  0  0  0  0  0
   -0.0590   -6.8422   31.3930 C   0  0  0  0  0  0  0  0  0  0  0  0
   -1.0501   -7.6072   30.9826 N   0  0  0  0  0  0  0  0  0  0  0  0
   -1.7189   -8.0697   32.0935 N   0  0  0  0  0  0  0  0  0  0  0  0
   -1.1065   -7.5965   33.1592 C   0  0  0  0  0  0  0  0  0  0  0  0
   -1.3689   -7.6775   34.5540 C   0  0  0  0  0  0  0  0  0  0  0  0
   -0.4859   -7.1750   35.4378 C   0  0  0  0  0  0  0  0  0  0  0  0
    0.7568   -6.5693   34.9993 C   0  0  0  0  0  0  0  0  0  0  0  0
    0.9882   -6.4594   33.6822 C   0  0  0  0  0  0  0  0  0  0  0  0
    0.0328   -6.9141   32.7730 N   0  0  0  0  0  0  0  0  0  0  0  0
    2.4935   -2.2079   33.6554 C   0  0  0  0  0  0  0  0  0  0  0  0
    3.4639   -1.2210   33.7444 C   0  0  0  0  0  0  0  0  0  0  0  0
    4.0668   -1.2391   35.0270 C   0  0  0  0  0  0  0  0  0  0  0  0
    3.6444   -2.1810   35.8643 N   0  0  0  0  0  0  0  0  0  0  0  0
    2.4429   -3.0529   35.1240 S   0  0  0  0  0  0  0  0  0  0  0  0
    2.5306   -4.2669   31.4245 H   0  0  0  0  0  0  0  0  0  0  0  0
   -0.4190   -4.3638   31.1933 H   0  0  0  0  0  0  0  0  0  0  0  0
    0.7925   -4.0756   29.9320 H   0  0  0  0  0  0  0  0  0  0  0  0
    0.4617   -6.1855   29.6368 H   0  0  0  0  0  0  0  0  0  0  0  0
   -2.2680   -8.1827   34.8816 H   0  0  0  0  0  0  0  0  0  0  0  0
   -0.6643   -7.2518   36.5063 H   0  0  0  0  0  0  0  0  0  0  0  0
    1.4704   -6.2389   35.7467 H   0  0  0  0  0  0  0  0  0  0  0  0
    1.9041   -6.0483   33.2891 H   0  0  0  0  0  0  0  0  0  0  0  0
    3.6843   -0.5180   32.9514 H   0  0  0  0  0  0  0  0  0  0  0  0
    4.8389   -0.5674   35.3820 H   0  0  0  0  0  0  0  0  0  0  0  0
  1  2  2  0
  2  3  2  0
  2  4  1  0
  4  5  1  0
  5  6  1  0
  6  7  1  0
  7  8  2  0
  8  9  1  0
  9 10  2  0
 10 11  1  0
 11 12  2  0
 12 13  1  0
 13 14  2  0
 14 15  1  0
  2 16  1  0
 16 17  2  0
 17 18  1  0
 18 19  2  0
 19 20  1  0
 15  7  1  0
 20 16  1  0
 15 10  1  0
  4 21  1  0
  5 22  1  0
  5 23  1  0
  6 24  1  0
 11 25  1  0
 12 26  1  0
 13 27  1  0
 14 28  1  0
 17 29  1  0
 18 30  1  0
M  END
>  <Energy>  (629) 
-108.71800409163816

>  <compound_id>  (629) 
904

>  <target_id>  (629) 
1

>  <reference_id>  (629) 
72

>  <inspiration_ids>  (629) 
[72, 133]

>  <energy_score>  (629) 
-39.05913053517858

>  <distance_score>  (629) 
1.046267985962757

>  <path>  (629) 
/opt/xchem-fragalysis-2/maxwin/BulkDock/SCRATCH/505733/C904-P72/C904-P72.minimised.mol

>  <scratch_subdir>  (629) 
/opt/xchem-fragalysis-2/maxwin/BulkDock/SCRATCH/505733/C904-P72

>  <fragmenstein_runtime>  (629) 
1.5350244045257568

>  <fragmenstein_outcome>  (629) 
too moved

>  <fragmenstein_mode>  (629) 
expansion

>  <fragmenstein_error>  (629) 


$$$$
C904-P133
     RDKit          3D

 30 32  0  0  0  0  0  0  0  0999 V2000
    1.6968   -1.8018   31.3033 O   0  0  0  0  0  0  0  0  0  0  0  0
    1.3397   -2.6582   32.4099 S   0  0  0  0  0  0  0  0  0  0  0  0
    0.0331   -2.6114   33.0190 O   0  0  0  0  0  0  0  0  0  0  0  0
    1.6129   -4.2227   31.8480 N   0  0  0  0  0  0  0  0  0  0  0  0
    0.6190   -4.6142   30.8502 C   0  0  0  0  0  0  0  0  0  0  0  0
    0.7381   -6.0476   30.5972 N   0  0  0  0  0  0  0  0  0  0  0  0
   -0.0616   -6.8370   31.3756 C   0  0  0  0  0  0  0  0  0  0  0  0
   -1.0574   -7.5895   30.9563 N   0  0  0  0  0  0  0  0  0  0  0  0
   -1.7511   -8.0286   32.0608 N   0  0  0  0  0  0  0  0  0  0  0  0
   -1.1400   -7.5689   33.1332 C   0  0  0  0  0  0  0  0  0  0  0  0
   -1.4083   -7.6576   34.5265 C   0  0  0  0  0  0  0  0  0  0  0  0
   -0.5174   -7.1797   35.4162 C   0  0  0  0  0  0  0  0  0  0  0  0
    0.7336   -6.5841   34.9875 C   0  0  0  0  0  0  0  0  0  0  0  0
    0.9736   -6.4714   33.6723 C   0  0  0  0  0  0  0  0  0  0  0  0
    0.0159   -6.9082   32.7567 N   0  0  0  0  0  0  0  0  0  0  0  0
    2.4900   -2.2144   33.6525 C   0  0  0  0  0  0  0  0  0  0  0  0
    3.4599   -1.2279   33.7516 C   0  0  0  0  0  0  0  0  0  0  0  0
    4.0510   -1.2480   35.0395 C   0  0  0  0  0  0  0  0  0  0  0  0
    3.6210   -2.1910   35.8716 N   0  0  0  0  0  0  0  0  0  0  0  0
    2.4248   -3.0611   35.1194 S   0  0  0  0  0  0  0  0  0  0  0  0
    2.5430   -4.2884   31.4385 H   0  0  0  0  0  0  0  0  0  0  0  0
   -0.4032   -4.3600   31.1548 H   0  0  0  0  0  0  0  0  0  0  0  0
    0.8318   -4.0856   29.9134 H   0  0  0  0  0  0  0  0  0  0  0  0
    0.4854   -6.1990   29.6199 H   0  0  0  0  0  0  0  0  0  0  0  0
   -2.3077   -8.1648   34.8521 H   0  0  0  0  0  0  0  0  0  0  0  0
   -0.6926   -7.2850   36.4827 H   0  0  0  0  0  0  0  0  0  0  0  0
    1.4469   -6.2700   35.7418 H   0  0  0  0  0  0  0  0  0  0  0  0
    1.8971   -6.0725   33.2850 H   0  0  0  0  0  0  0  0  0  0  0  0
    3.6880   -0.5243   32.9613 H   0  0  0  0  0  0  0  0  0  0  0  0
    4.8202   -0.5771   35.4024 H   0  0  0  0  0  0  0  0  0  0  0  0
  1  2  2  0
  2  3  2  0
  2  4  1  0
  4  5  1  0
  5  6  1  0
  6  7  1  0
  7  8  2  0
  8  9  1  0
  9 10  2  0
 10 11  1  0
 11 12  2  0
 12 13  1  0
 13 14  2  0
 14 15  1  0
  2 16  1  0
 16 17  2  0
 17 18  1  0
 18 19  2  0
 19 20  1  0
 15  7  1  0
 20 16  1  0
 15 10  1  0
  4 21  1  0
  5 22  1  0
  5 23  1  0
  6 24  1  0
 11 25  1  0
 12 26  1  0
 13 27  1  0
 14 28  1  0
 17 29  1  0
 18 30  1  0
M  END
>  <Energy>  (630) 
-108.80905072809611

>  <compound_id>  (630) 
904

>  <target_id>  (630) 
1

>  <reference_id>  (630) 
133

>  <inspiration_ids>  (630) 
[72, 133]

>  <energy_score>  (630) 
-39.15017717163673

>  <distance_score>  (630) 
1.0470662987266135

>  <path>  (630) 
/opt/xchem-fragalysis-2/maxwin/BulkDock/SCRATCH/505733/C904-P133/C904-P133.minimised.mol

>  <scratch_subdir>  (630) 
/opt/xchem-fragalysis-2/maxwin/BulkDock/SCRATCH/505733/C904-P133

>  <fragmenstein_runtime>  (630) 
1.7450013160705566

>  <fragmenstein_outcome>  (630) 
too moved

>  <fragmenstein_mode>  (630) 
expansion

>  <fragmenstein_error>  (630) 


$$$$
C904-P72
     RDKit          3D

 30 32  0  0  0  0  0  0  0  0999 V2000
    1.9676   -2.6559   31.6026 O   0  0  0  0  0  0  0  0  0  0  0  0
    0.7951   -2.0223   32.1570 S   0  0  0  0  0  0  0  0  0  0  0  0
    0.8212   -1.2606   33.3806 O   0  0  0  0  0  0  0  0  0  0  0  0
   -0.3602   -3.2052   32.3946 N   0  0  0  0  0  0  0  0  0  0  0  0
   -0.5190   -4.1156   31.2907 C   0  0  0  0  0  0  0  0  0  0  0  0
   -1.3489   -5.1103   31.8793 N   0  0  0  0  0  0  0  0  0  0  0  0
   -0.8299   -6.3567   32.0921 C   0  0  0  0  0  0  0  0  0  0  0  0
   -1.4118   -7.4948   31.7731 N   0  0  0  0  0  0  0  0  0  0  0  0
   -1.3879   -8.2831   32.9059 N   0  0  0  0  0  0  0  0  0  0  0  0
   -0.6764   -7.6538   33.8202 C   0  0  0  0  0  0  0  0  0  0  0  0
   -0.4179   -7.8457   35.2056 C   0  0  0  0  0  0  0  0  0  0  0  0
    0.4924   -7.0752   35.8316 C   0  0  0  0  0  0  0  0  0  0  0  0
    1.2220   -6.0358   35.1277 C   0  0  0  0  0  0  0  0  0  0  0  0
    0.9039   -5.7854   33.8489 C   0  0  0  0  0  0  0  0  0  0  0  0
   -0.0731   -6.5628   33.2309 N   0  0  0  0  0  0  0  0  0  0  0  0
    0.1114   -0.9716   30.9337 C   0  0  0  0  0  0  0  0  0  0  0  0
   -1.1715   -0.6906   30.5033 C   0  0  0  0  0  0  0  0  0  0  0  0
   -1.1255    0.1931   29.3894 C   0  0  0  0  0  0  0  0  0  0  0  0
    0.0724    0.6205   29.0100 N   0  0  0  0  0  0  0  0  0  0  0  0
    1.2091   -0.1101   29.9595 S   0  0  0  0  0  0  0  0  0  0  0  0
   -1.2170   -2.7795   32.7457 H   0  0  0  0  0  0  0  0  0  0  0  0
   -1.0521   -3.6418   30.4626 H   0  0  0  0  0  0  0  0  0  0  0  0
    0.4274   -4.5244   30.9228 H   0  0  0  0  0  0  0  0  0  0  0  0
   -1.5665   -4.7210   32.8007 H   0  0  0  0  0  0  0  0  0  0  0  0
   -0.9591   -8.6063   35.7535 H   0  0  0  0  0  0  0  0  0  0  0  0
    0.6962   -7.2120   36.8903 H   0  0  0  0  0  0  0  0  0  0  0  0
    1.9664   -5.4540   35.6622 H   0  0  0  0  0  0  0  0  0  0  0  0
    1.3656   -4.9913   33.2793 H   0  0  0  0  0  0  0  0  0  0  0  0
   -2.0762   -1.1081   30.9202 H   0  0  0  0  0  0  0  0  0  0  0  0
   -1.9740    0.5616   28.8251 H   0  0  0  0  0  0  0  0  0  0  0  0
  1  2  2  0
  2  3  2  0
  2  4  1  0
  4  5  1  0
  5  6  1  0
  6  7  1  0
  7  8  2  0
  8  9  1  0
  9 10  2  0
 10 11  1  0
 11 12  2  0
 12 13  1  0
 13 14  2  0
 14 15  1  0
  2 16  1  0
 16 17  2  0
 17 18  1  0
 18 19  2  0
 19 20  1  0
 15  7  1  0
 20 16  1  0
 15 10  1  0
  4 21  1  0
  5 22  1  0
  5 23  1  0
  6 24  1  0
 11 25  1  0
 12 26  1  0
 13 27  1  0
 14 28  1  0
 17 29  1  0
 18 30  1  0
M  END
>  <Energy>  (631) 
-81.435137500404807

>  <compound_id>  (631) 
904

>  <target_id>  (631) 
1

>  <reference_id>  (631) 
72

>  <inspiration_ids>  (631) 
[72, 134]

>  <energy_score>  (631) 
-11.77626394394403

>  <distance_score>  (631) 
1.3952323565076956

>  <path>  (631) 
/opt/xchem-fragalysis-2/maxwin/BulkDock/SCRATCH/505733/C904-P72/C904-P72.minimised.mol

>  <scratch_subdir>  (631) 
/opt/xchem-fragalysis-2/maxwin/BulkDock/SCRATCH/505733/C904-P72

>  <fragmenstein_runtime>  (631) 
2.7063634395599365

>  <fragmenstein_outcome>  (631) 
too moved

>  <fragmenstein_mode>  (631) 
expansion

>  <fragmenstein_error>  (631) 


$$$$
C904-P134
     RDKit          3D

 30 32  0  0  0  0  0  0  0  0999 V2000
    1.9026   -2.7831   31.9507 O   0  0  0  0  0  0  0  0  0  0  0  0
    0.5305   -2.4969   32.3091 S   0  0  0  0  0  0  0  0  0  0  0  0
    0.1738   -2.1811   33.6719 O   0  0  0  0  0  0  0  0  0  0  0  0
   -0.3904   -3.8001   31.8612 N   0  0  0  0  0  0  0  0  0  0  0  0
   -0.2216   -4.3321   30.5378 C   0  0  0  0  0  0  0  0  0  0  0  0
    0.1369   -5.7421   30.4930 N   0  0  0  0  0  0  0  0  0  0  0  0
   -0.4299   -6.5933   31.3840 C   0  0  0  0  0  0  0  0  0  0  0  0
   -1.3523   -7.4985   31.1428 N   0  0  0  0  0  0  0  0  0  0  0  0
   -1.7712   -8.0000   32.3545 N   0  0  0  0  0  0  0  0  0  0  0  0
   -1.0580   -7.4288   33.3033 C   0  0  0  0  0  0  0  0  0  0  0  0
   -1.0661   -7.5098   34.7227 C   0  0  0  0  0  0  0  0  0  0  0  0
   -0.1152   -6.8758   35.4361 C   0  0  0  0  0  0  0  0  0  0  0  0
    0.9279   -6.0977   34.7884 C   0  0  0  0  0  0  0  0  0  0  0  0
    0.9151   -5.9891   33.4501 C   0  0  0  0  0  0  0  0  0  0  0  0
   -0.0994   -6.6164   32.7263 N   0  0  0  0  0  0  0  0  0  0  0  0
    0.1373   -1.0474   31.4003 C   0  0  0  0  0  0  0  0  0  0  0  0
    0.5991    0.2503   31.4912 C   0  0  0  0  0  0  0  0  0  0  0  0
    0.0944    1.0364   30.4230 C   0  0  0  0  0  0  0  0  0  0  0  0
   -0.7508    0.4389   29.5916 N   0  0  0  0  0  0  0  0  0  0  0  0
   -0.9218   -1.1330   30.0673 S   0  0  0  0  0  0  0  0  0  0  0  0
   -1.2662   -3.9195   32.3626 H   0  0  0  0  0  0  0  0  0  0  0  0
   -1.1354   -4.1561   29.9684 H   0  0  0  0  0  0  0  0  0  0  0  0
    0.5674   -3.8075   29.9885 H   0  0  0  0  0  0  0  0  0  0  0  0
   -0.0529   -6.0517   29.5391 H   0  0  0  0  0  0  0  0  0  0  0  0
   -1.8149   -8.1218   35.2110 H   0  0  0  0  0  0  0  0  0  0  0  0
   -0.0957   -6.9593   36.5195 H   0  0  0  0  0  0  0  0  0  0  0  0
    1.6815   -5.6125   35.4000 H   0  0  0  0  0  0  0  0  0  0  0  0
    1.6474   -5.4182   32.8936 H   0  0  0  0  0  0  0  0  0  0  0  0
    1.3015    0.5898   32.2414 H   0  0  0  0  0  0  0  0  0  0  0  0
    0.3285    2.0768   30.2272 H   0  0  0  0  0  0  0  0  0  0  0  0
  1  2  2  0
  2  3  2  0
  2  4  1  0
  4  5  1  0
  5  6  1  0
  6  7  1  0
  7  8  2  0
  8  9  1  0
  9 10  2  0
 10 11  1  0
 11 12  2  0
 12 13  1  0
 13 14  2  0
 14 15  1  0
  2 16  1  0
 16 17  2  0
 17 18  1  0
 18 19  2  0
 19 20  1  0
 15  7  1  0
 20 16  1  0
 15 10  1  0
  4 21  1  0
  5 22  1  0
  5 23  1  0
  6 24  1  0
 11 25  1  0
 12 26  1  0
 13 27  1  0
 14 28  1  0
 17 29  1  0
 18 30  1  0
M  END
>  <Energy>  (632) 
-100.14401945055424

>  <compound_id>  (632) 
904

>  <target_id>  (632) 
1

>  <reference_id>  (632) 
134

>  <inspiration_ids>  (632) 
[72, 134]

>  <energy_score>  (632) 
-30.485145894091872

>  <distance_score>  (632) 
1.464918534997722

>  <path>  (632) 
/opt/xchem-fragalysis-2/maxwin/BulkDock/SCRATCH/505733/C904-P134/C904-P134.minimised.mol

>  <scratch_subdir>  (632) 
/opt/xchem-fragalysis-2/maxwin/BulkDock/SCRATCH/505733/C904-P134

>  <fragmenstein_runtime>  (632) 
2.1608192920684814

>  <fragmenstein_outcome>  (632) 
too moved

>  <fragmenstein_mode>  (632) 
expansion

>  <fragmenstein_error>  (632) 


$$$$
C905-P72
     RDKit          3D

 35 37  0  0  0  0  0  0  0  0999 V2000
   -0.6583   -1.3731   33.2812 O   0  0  0  0  0  0  0  0  0  0  0  0
   -0.9606   -2.1739   32.1167 S   0  0  0  0  0  0  0  0  0  0  0  0
   -2.2743   -2.7298   31.8738 O   0  0  0  0  0  0  0  0  0  0  0  0
    0.1369   -3.4441   32.0997 N   0  0  0  0  0  0  0  0  0  0  0  0
    0.1491   -4.2403   30.8977 C   0  0  0  0  0  0  0  0  0  0  0  0
    0.7739   -5.5322   31.1423 N   0  0  0  0  0  0  0  0  0  0  0  0
   -0.0615   -6.4472   31.7020 C   0  0  0  0  0  0  0  0  0  0  0  0
   -0.8512   -7.3178   31.1110 N   0  0  0  0  0  0  0  0  0  0  0  0
   -1.5646   -7.9813   32.0845 N   0  0  0  0  0  0  0  0  0  0  0  0
   -1.1695   -7.5073   33.2468 C   0  0  0  0  0  0  0  0  0  0  0  0
   -1.5456   -7.7608   34.5928 C   0  0  0  0  0  0  0  0  0  0  0  0
   -0.8625   -7.1907   35.6025 C   0  0  0  0  0  0  0  0  0  0  0  0
    0.2250   -6.2643   35.3629 C   0  0  0  0  0  0  0  0  0  0  0  0
    0.5432   -5.9732   34.0936 C   0  0  0  0  0  0  0  0  0  0  0  0
   -0.1662   -6.5785   33.0590 N   0  0  0  0  0  0  0  0  0  0  0  0
   -0.4746   -1.2498   30.6796 C   0  0  0  0  0  0  0  0  0  0  0  0
    0.5705   -0.3260   30.7794 C   0  0  0  0  0  0  0  0  0  0  0  0
    0.9668    0.3844   29.6462 C   0  0  0  0  0  0  0  0  0  0  0  0
    0.3087    0.1721   28.4367 C   0  0  0  0  0  0  0  0  0  0  0  0
    0.6565    0.8732   27.3212 O   0  0  0  0  0  0  0  0  0  0  0  0
   -0.7328   -0.7446   28.3369 C   0  0  0  0  0  0  0  0  0  0  0  0
   -1.1330   -1.4594   29.4641 C   0  0  0  0  0  0  0  0  0  0  0  0
    1.0400   -3.2057   32.4960 H   0  0  0  0  0  0  0  0  0  0  0  0
   -0.8482   -4.3754   30.4718 H   0  0  0  0  0  0  0  0  0  0  0  0
    0.7609   -3.7278   30.1467 H   0  0  0  0  0  0  0  0  0  0  0  0
    1.0410   -5.8760   30.2184 H   0  0  0  0  0  0  0  0  0  0  0  0
   -2.3651   -8.4402   34.7835 H   0  0  0  0  0  0  0  0  0  0  0  0
   -1.1012   -7.4066   36.6364 H   0  0  0  0  0  0  0  0  0  0  0  0
    0.7380   -5.8153   36.2066 H   0  0  0  0  0  0  0  0  0  0  0  0
    1.3307   -5.2834   33.8247 H   0  0  0  0  0  0  0  0  0  0  0  0
    1.0714   -0.1502   31.7287 H   0  0  0  0  0  0  0  0  0  0  0  0
    1.7749    1.1055   29.7245 H   0  0  0  0  0  0  0  0  0  0  0  0
    1.3383    1.5235   27.5540 H   0  0  0  0  0  0  0  0  0  0  0  0
   -1.2395   -0.8953   27.3851 H   0  0  0  0  0  0  0  0  0  0  0  0
   -1.9474   -2.1742   29.3708 H   0  0  0  0  0  0  0  0  0  0  0  0
  1  2  2  0
  2  3  2  0
  2  4  1  0
  4  5  1  0
  5  6  1  0
  6  7  1  0
  7  8  2  0
  8  9  1  0
  9 10  2  0
 10 11  1  0
 11 12  2  0
 12 13  1  0
 13 14  2  0
 14 15  1  0
  2 16  1  0
 16 17  2  0
 17 18  1  0
 18 19  2  0
 19 20  1  0
 19 21  1  0
 21 22  2  0
 15  7  1  0
 22 16  1  0
 15 10  1  0
  4 23  1  0
  5 24  1  0
  5 25  1  0
  6 26  1  0
 11 27  1  0
 12 28  1  0
 13 29  1  0
 14 30  1  0
 17 31  1  0
 18 32  1  0
 20 33  1  0
 21 34  1  0
 22 35  1  0
M  END
>  <Energy>  (633) 
-85.421418698105171

>  <compound_id>  (633) 
905

>  <target_id>  (633) 
1

>  <reference_id>  (633) 
72

>  <inspiration_ids>  (633) 
[72, 135]

>  <energy_score>  (633) 
-47.95371929762334

>  <distance_score>  (633) 
1.2909441159537087

>  <path>  (633) 
/opt/xchem-fragalysis-2/maxwin/BulkDock/SCRATCH/505733/C905-P72/C905-P72.minimised.mol

>  <scratch_subdir>  (633) 
/opt/xchem-fragalysis-2/maxwin/BulkDock/SCRATCH/505733/C905-P72

>  <fragmenstein_runtime>  (633) 
69.41687321662903

>  <fragmenstein_outcome>  (633) 
too moved

>  <fragmenstein_mode>  (633) 
expansion

>  <fragmenstein_error>  (633) 


$$$$
C905-P135
     RDKit          3D

 35 37  0  0  0  0  0  0  0  0999 V2000
   -0.5803   -1.4107   33.3523 O   0  0  0  0  0  0  0  0  0  0  0  0
   -0.9268   -2.1679   32.1711 S   0  0  0  0  0  0  0  0  0  0  0  0
   -2.2527   -2.7041   31.9517 O   0  0  0  0  0  0  0  0  0  0  0  0
    0.1600   -3.4436   32.0748 N   0  0  0  0  0  0  0  0  0  0  0  0
    0.1148   -4.2055   30.8523 C   0  0  0  0  0  0  0  0  0  0  0  0
    0.7524   -5.5031   31.0276 N   0  0  0  0  0  0  0  0  0  0  0  0
   -0.0555   -6.4348   31.5991 C   0  0  0  0  0  0  0  0  0  0  0  0
   -0.8441   -7.3127   31.0184 N   0  0  0  0  0  0  0  0  0  0  0  0
   -1.5513   -7.9690   32.0008 N   0  0  0  0  0  0  0  0  0  0  0  0
   -1.1467   -7.4900   33.1573 C   0  0  0  0  0  0  0  0  0  0  0  0
   -1.5084   -7.7383   34.5073 C   0  0  0  0  0  0  0  0  0  0  0  0
   -0.7972   -7.1793   35.5040 C   0  0  0  0  0  0  0  0  0  0  0  0
    0.3052   -6.2756   35.2516 C   0  0  0  0  0  0  0  0  0  0  0  0
    0.6050   -5.9847   33.9788 C   0  0  0  0  0  0  0  0  0  0  0  0
   -0.1349   -6.5730   32.9565 N   0  0  0  0  0  0  0  0  0  0  0  0
   -0.4771   -1.2014   30.7508 C   0  0  0  0  0  0  0  0  0  0  0  0
    0.5594   -0.2690   30.8564 C   0  0  0  0  0  0  0  0  0  0  0  0
    0.9163    0.4860   29.7399 C   0  0  0  0  0  0  0  0  0  0  0  0
    0.2262    0.3102   28.5430 C   0  0  0  0  0  0  0  0  0  0  0  0
    0.5200    1.0704   27.4520 O   0  0  0  0  0  0  0  0  0  0  0  0
   -0.8007   -0.6215   28.4345 C   0  0  0  0  0  0  0  0  0  0  0  0
   -1.1595   -1.3828   29.5440 C   0  0  0  0  0  0  0  0  0  0  0  0
    1.0813   -3.2162   32.4341 H   0  0  0  0  0  0  0  0  0  0  0  0
   -0.9031   -4.3313   30.4730 H   0  0  0  0  0  0  0  0  0  0  0  0
    0.6887   -3.6716   30.0865 H   0  0  0  0  0  0  0  0  0  0  0  0
    0.9761   -5.8168   30.0821 H   0  0  0  0  0  0  0  0  0  0  0  0
   -2.3393   -8.4004   34.7065 H   0  0  0  0  0  0  0  0  0  0  0  0
   -1.0213   -7.3739   36.5427 H   0  0  0  0  0  0  0  0  0  0  0  0
    0.8387   -5.8385   36.0889 H   0  0  0  0  0  0  0  0  0  0  0  0
    1.3995   -5.3078   33.6985 H   0  0  0  0  0  0  0  0  0  0  0  0
    1.0802   -0.1168   31.7990 H   0  0  0  0  0  0  0  0  0  0  0  0
    1.7130    1.2191   29.8239 H   0  0  0  0  0  0  0  0  0  0  0  0
    1.2231    1.7000   27.6781 H   0  0  0  0  0  0  0  0  0  0  0  0
   -1.3314   -0.7439   27.4917 H   0  0  0  0  0  0  0  0  0  0  0  0
   -1.9643   -2.1065   29.4454 H   0  0  0  0  0  0  0  0  0  0  0  0
  1  2  2  0
  2  3  2  0
  2  4  1  0
  4  5  1  0
  5  6  1  0
  6  7  1  0
  7  8  2  0
  8  9  1  0
  9 10  2  0
 10 11  1  0
 11 12  2  0
 12 13  1  0
 13 14  2  0
 14 15  1  0
  2 16  1  0
 16 17  2  0
 17 18  1  0
 18 19  2  0
 19 20  1  0
 19 21  1  0
 21 22  2  0
 15  7  1  0
 22 16  1  0
 15 10  1  0
  4 23  1  0
  5 24  1  0
  5 25  1  0
  6 26  1  0
 11 27  1  0
 12 28  1  0
 13 29  1  0
 14 30  1  0
 17 31  1  0
 18 32  1  0
 20 33  1  0
 21 34  1  0
 22 35  1  0
M  END
>  <Energy>  (634) 
-85.104072151733234

>  <compound_id>  (634) 
905

>  <target_id>  (634) 
1

>  <reference_id>  (634) 
135

>  <inspiration_ids>  (634) 
[72, 135]

>  <energy_score>  (634) 
-47.636372751252225

>  <distance_score>  (634) 
1.3080205934224702

>  <path>  (634) 
/opt/xchem-fragalysis-2/maxwin/BulkDock/SCRATCH/505733/C905-P135/C905-P135.minimised.mol

>  <scratch_subdir>  (634) 
/opt/xchem-fragalysis-2/maxwin/BulkDock/SCRATCH/505733/C905-P135

>  <fragmenstein_runtime>  (634) 
72.32366299629211

>  <fragmenstein_outcome>  (634) 
too moved

>  <fragmenstein_mode>  (634) 
expansion

>  <fragmenstein_error>  (634) 


$$$$
C905-P72
     RDKit          3D

 35 37  0  0  0  0  0  0  0  0999 V2000
    1.6967   -2.2285   31.6594 O   0  0  0  0  0  0  0  0  0  0  0  0
    0.3925   -2.5569   32.1873 S   0  0  0  0  0  0  0  0  0  0  0  0
   -0.7527   -1.6984   31.9944 O   0  0  0  0  0  0  0  0  0  0  0  0
   -0.0488   -4.0658   31.5920 N   0  0  0  0  0  0  0  0  0  0  0  0
    0.9013   -4.7085   30.7080 C   0  0  0  0  0  0  0  0  0  0  0  0
    0.4413   -6.0395   30.3565 N   0  0  0  0  0  0  0  0  0  0  0  0
   -0.2007   -6.8437   31.2482 C   0  0  0  0  0  0  0  0  0  0  0  0
   -1.2029   -7.6495   30.9558 N   0  0  0  0  0  0  0  0  0  0  0  0
   -1.7463   -8.1073   32.1313 N   0  0  0  0  0  0  0  0  0  0  0  0
   -1.0520   -7.5917   33.1227 C   0  0  0  0  0  0  0  0  0  0  0  0
   -1.1932   -7.6449   34.5359 C   0  0  0  0  0  0  0  0  0  0  0  0
   -0.2461   -7.1079   35.3271 C   0  0  0  0  0  0  0  0  0  0  0  0
    0.9348   -6.4792   34.7656 C   0  0  0  0  0  0  0  0  0  0  0  0
    1.0421   -6.3738   33.4314 C   0  0  0  0  0  0  0  0  0  0  0  0
    0.0281   -6.8857   32.6169 N   0  0  0  0  0  0  0  0  0  0  0  0
    0.5659   -2.8414   33.9273 C   0  0  0  0  0  0  0  0  0  0  0  0
    1.8300   -2.7832   34.5262 C   0  0  0  0  0  0  0  0  0  0  0  0
    1.9494   -2.9654   35.9062 C   0  0  0  0  0  0  0  0  0  0  0  0
    0.8066   -3.2024   36.6668 C   0  0  0  0  0  0  0  0  0  0  0  0
    0.8790   -3.3962   38.0135 O   0  0  0  0  0  0  0  0  0  0  0  0
   -0.4519   -3.2495   36.0751 C   0  0  0  0  0  0  0  0  0  0  0  0
   -0.5773   -3.0568   34.6995 C   0  0  0  0  0  0  0  0  0  0  0  0
   -0.9758   -3.9840   31.1759 H   0  0  0  0  0  0  0  0  0  0  0  0
    0.9930   -4.1276   29.7830 H   0  0  0  0  0  0  0  0  0  0  0  0
    1.8974   -4.7749   31.1535 H   0  0  0  0  0  0  0  0  0  0  0  0
   -0.0353   -6.0220   29.4550 H   0  0  0  0  0  0  0  0  0  0  0  0
   -2.0562   -8.1486   34.9522 H   0  0  0  0  0  0  0  0  0  0  0  0
   -0.3354   -7.1526   36.4091 H   0  0  0  0  0  0  0  0  0  0  0  0
    1.6917   -6.0964   35.4418 H   0  0  0  0  0  0  0  0  0  0  0  0
    1.8935   -5.9090   32.9604 H   0  0  0  0  0  0  0  0  0  0  0  0
    2.7197   -2.5833   33.9333 H   0  0  0  0  0  0  0  0  0  0  0  0
    2.9310   -2.9164   36.3678 H   0  0  0  0  0  0  0  0  0  0  0  0
    1.7868   -3.2233   38.3124 H   0  0  0  0  0  0  0  0  0  0  0  0
   -1.3358   -3.4271   36.6819 H   0  0  0  0  0  0  0  0  0  0  0  0
   -1.5633   -3.0692   34.2422 H   0  0  0  0  0  0  0  0  0  0  0  0
  1  2  2  0
  2  3  2  0
  2  4  1  0
  4  5  1  0
  5  6  1  0
  6  7  1  0
  7  8  2  0
  8  9  1  0
  9 10  2  0
 10 11  1  0
 11 12  2  0
 12 13  1  0
 13 14  2  0
 14 15  1  0
  2 16  1  0
 16 17  2  0
 17 18  1  0
 18 19  2  0
 19 20  1  0
 19 21  1  0
 21 22  2  0
 15  7  1  0
 22 16  1  0
 15 10  1  0
  4 23  1  0
  5 24  1  0
  5 25  1  0
  6 26  1  0
 11 27  1  0
 12 28  1  0
 13 29  1  0
 14 30  1  0
 17 31  1  0
 18 32  1  0
 20 33  1  0
 21 34  1  0
 22 35  1  0
M  END
>  <Energy>  (635) 
-85.334799286700616

>  <compound_id>  (635) 
905

>  <target_id>  (635) 
1

>  <reference_id>  (635) 
72

>  <inspiration_ids>  (635) 
[72, 136]

>  <energy_score>  (635) 
-58.474721589895836

>  <distance_score>  (635) 
0.7219469051652716

>  <path>  (635) 
/opt/xchem-fragalysis-2/maxwin/BulkDock/SCRATCH/505733/C905-P72/C905-P72.minimised.mol

>  <scratch_subdir>  (635) 
/opt/xchem-fragalysis-2/maxwin/BulkDock/SCRATCH/505733/C905-P72

>  <fragmenstein_runtime>  (635) 
2.3278310298919678

>  <fragmenstein_outcome>  (635) 
acceptable

>  <fragmenstein_mode>  (635) 
expansion

>  <fragmenstein_error>  (635) 


$$$$
C905-P136
     RDKit          3D

 35 37  0  0  0  0  0  0  0  0999 V2000
    1.6245   -2.1941   31.6473 O   0  0  0  0  0  0  0  0  0  0  0  0
    0.3404   -2.5829   32.1838 S   0  0  0  0  0  0  0  0  0  0  0  0
   -0.8455   -1.7789   32.0021 O   0  0  0  0  0  0  0  0  0  0  0  0
   -0.0359   -4.1048   31.5862 N   0  0  0  0  0  0  0  0  0  0  0  0
    0.9448   -4.7243   30.7219 C   0  0  0  0  0  0  0  0  0  0  0  0
    0.5314   -6.0730   30.3711 N   0  0  0  0  0  0  0  0  0  0  0  0
   -0.1519   -6.8548   31.2534 C   0  0  0  0  0  0  0  0  0  0  0  0
   -1.1732   -7.6297   30.9486 N   0  0  0  0  0  0  0  0  0  0  0  0
   -1.7572   -8.0490   32.1192 N   0  0  0  0  0  0  0  0  0  0  0  0
   -1.0594   -7.5554   33.1199 C   0  0  0  0  0  0  0  0  0  0  0  0
   -1.2139   -7.6051   34.5322 C   0  0  0  0  0  0  0  0  0  0  0  0
   -0.2563   -7.0996   35.3317 C   0  0  0  0  0  0  0  0  0  0  0  0
    0.9445   -6.4981   34.7822 C   0  0  0  0  0  0  0  0  0  0  0  0
    1.0703   -6.4022   33.4488 C   0  0  0  0  0  0  0  0  0  0  0  0
    0.0516   -6.8913   32.6260 N   0  0  0  0  0  0  0  0  0  0  0  0
    0.5389   -2.8672   33.9213 C   0  0  0  0  0  0  0  0  0  0  0  0
    1.8057   -2.7669   34.5087 C   0  0  0  0  0  0  0  0  0  0  0  0
    1.9435   -2.9443   35.8874 C   0  0  0  0  0  0  0  0  0  0  0  0
    0.8159   -3.2175   36.6588 C   0  0  0  0  0  0  0  0  0  0  0  0
    0.9073   -3.4041   38.0055 O   0  0  0  0  0  0  0  0  0  0  0  0
   -0.4456   -3.3086   36.0785 C   0  0  0  0  0  0  0  0  0  0  0  0
   -0.5894   -3.1228   34.7036 C   0  0  0  0  0  0  0  0  0  0  0  0
   -0.9675   -4.0742   31.1742 H   0  0  0  0  0  0  0  0  0  0  0  0
    1.0358   -4.1471   29.7947 H   0  0  0  0  0  0  0  0  0  0  0  0
    1.9337   -4.7591   31.1872 H   0  0  0  0  0  0  0  0  0  0  0  0
    0.0910   -6.0783   29.4513 H   0  0  0  0  0  0  0  0  0  0  0  0
   -2.0834   -8.1009   34.9460 H   0  0  0  0  0  0  0  0  0  0  0  0
   -0.3501   -7.1664   36.4125 H   0  0  0  0  0  0  0  0  0  0  0  0
    1.7016   -6.1323   35.4672 H   0  0  0  0  0  0  0  0  0  0  0  0
    1.9373   -5.9620   32.9825 H   0  0  0  0  0  0  0  0  0  0  0  0
    2.6824   -2.5367   33.9078 H   0  0  0  0  0  0  0  0  0  0  0  0
    2.9268   -2.8617   36.3402 H   0  0  0  0  0  0  0  0  0  0  0  0
    1.8153   -3.2152   38.2925 H   0  0  0  0  0  0  0  0  0  0  0  0
   -1.3175   -3.5167   36.6933 H   0  0  0  0  0  0  0  0  0  0  0  0
   -1.5782   -3.1721   34.2551 H   0  0  0  0  0  0  0  0  0  0  0  0
  1  2  2  0
  2  3  2  0
  2  4  1  0
  4  5  1  0
  5  6  1  0
  6  7  1  0
  7  8  2  0
  8  9  1  0
  9 10  2  0
 10 11  1  0
 11 12  2  0
 12 13  1  0
 13 14  2  0
 14 15  1  0
  2 16  1  0
 16 17  2  0
 17 18  1  0
 18 19  2  0
 19 20  1  0
 19 21  1  0
 21 22  2  0
 15  7  1  0
 22 16  1  0
 15 10  1  0
  4 23  1  0
  5 24  1  0
  5 25  1  0
  6 26  1  0
 11 27  1  0
 12 28  1  0
 13 29  1  0
 14 30  1  0
 17 31  1  0
 18 32  1  0
 20 33  1  0
 21 34  1  0
 22 35  1  0
M  END
>  <Energy>  (636) 
-85.555879637110493

>  <compound_id>  (636) 
905

>  <target_id>  (636) 
1

>  <reference_id>  (636) 
136

>  <inspiration_ids>  (636) 
[72, 136]

>  <energy_score>  (636) 
-58.695801940306

>  <distance_score>  (636) 
0.7307906836265888

>  <path>  (636) 
/opt/xchem-fragalysis-2/maxwin/BulkDock/SCRATCH/505733/C905-P136/C905-P136.minimised.mol

>  <scratch_subdir>  (636) 
/opt/xchem-fragalysis-2/maxwin/BulkDock/SCRATCH/505733/C905-P136

>  <fragmenstein_runtime>  (636) 
2.5349199771881104

>  <fragmenstein_outcome>  (636) 
acceptable

>  <fragmenstein_mode>  (636) 
expansion

>  <fragmenstein_error>  (636) 


$$$$
C906-P72
     RDKit          3D

 36 38  0  0  0  0  0  0  0  0999 V2000
    4.3676   -7.8581   35.7894 O   0  0  0  0  0  0  0  0  0  0  0  0
    2.9855   -7.9824   36.1871 S   0  0  0  0  0  0  0  0  0  0  0  0
    2.4329   -9.2529   36.5843 O   0  0  0  0  0  0  0  0  0  0  0  0
    2.0849   -7.4737   34.8631 N   0  0  0  0  0  0  0  0  0  0  0  0
    2.4673   -6.2964   34.0806 C   0  0  0  0  0  0  0  0  0  0  0  0
    1.8477   -6.2656   32.7041 N   0  0  0  0  0  0  0  0  0  0  0  0
    0.5182   -6.5123   32.5447 C   0  0  0  0  0  0  0  0  0  0  0  0
   -0.0885   -7.4491   31.8407 N   0  0  0  0  0  0  0  0  0  0  0  0
   -1.1431   -7.9035   32.6255 N   0  0  0  0  0  0  0  0  0  0  0  0
   -1.1435   -7.1534   33.7092 C   0  0  0  0  0  0  0  0  0  0  0  0
   -1.5693   -7.3097   35.0507 C   0  0  0  0  0  0  0  0  0  0  0  0
   -1.3089   -6.3171   35.9293 C   0  0  0  0  0  0  0  0  0  0  0  0
   -0.7438   -5.0382   35.5326 C   0  0  0  0  0  0  0  0  0  0  0  0
   -0.2623   -4.9317   34.2905 C   0  0  0  0  0  0  0  0  0  0  0  0
   -0.3717   -6.0370   33.4622 N   0  0  0  0  0  0  0  0  0  0  0  0
    2.6905   -6.8796   37.4168 N   0  0  0  0  0  0  0  0  0  0  0  0
    3.6913   -6.9884   38.5441 C   0  0  0  0  0  0  0  0  0  0  0  0
    2.9041   -7.4658   39.7436 C   0  0  0  0  0  0  0  0  0  0  0  0
    1.5876   -6.7594   39.5407 C   0  0  0  0  0  0  0  0  0  0  0  0
    1.3461   -6.8901   38.0456 C   0  0  0  0  0  0  0  0  0  0  0  0
    1.0945   -7.6075   35.0328 H   0  0  0  0  0  0  0  0  0  0  0  0
    3.5505   -6.2674   33.9384 H   0  0  0  0  0  0  0  0  0  0  0  0
    2.2168   -5.3843   34.6275 H   0  0  0  0  0  0  0  0  0  0  0  0
    2.3878   -6.8282   32.0685 H   0  0  0  0  0  0  0  0  0  0  0  0
   -1.9838   -8.2633   35.3547 H   0  0  0  0  0  0  0  0  0  0  0  0
   -1.5009   -6.4267   36.9883 H   0  0  0  0  0  0  0  0  0  0  0  0
   -0.6833   -4.2274   36.2507 H   0  0  0  0  0  0  0  0  0  0  0  0
    0.2704   -4.0659   33.9177 H   0  0  0  0  0  0  0  0  0  0  0  0
    4.5256   -7.6619   38.3292 H   0  0  0  0  0  0  0  0  0  0  0  0
    4.1060   -5.9877   38.7135 H   0  0  0  0  0  0  0  0  0  0  0  0
    3.3846   -7.2106   40.6918 H   0  0  0  0  0  0  0  0  0  0  0  0
    2.7643   -8.5525   39.7048 H   0  0  0  0  0  0  0  0  0  0  0  0
    0.7757   -7.1936   40.1313 H   0  0  0  0  0  0  0  0  0  0  0  0
    1.6782   -5.7019   39.8183 H   0  0  0  0  0  0  0  0  0  0  0  0
    0.7759   -6.0328   37.6894 H   0  0  0  0  0  0  0  0  0  0  0  0
    0.7925   -7.8081   37.8282 H   0  0  0  0  0  0  0  0  0  0  0  0
  1  2  2  0
  2  3  2  0
  2  4  1  0
  4  5  1  0
  5  6  1  0
  6  7  1  0
  7  8  2  0
  8  9  1  0
  9 10  2  0
 10 11  1  0
 11 12  2  0
 12 13  1  0
 13 14  2  0
 14 15  1  0
  2 16  1  0
 16 17  1  0
 17 18  1  0
 18 19  1  0
 19 20  1  0
 15  7  1  0
 20 16  1  0
 15 10  1  0
  4 21  1  0
  5 22  1  0
  5 23  1  0
  6 24  1  0
 11 25  1  0
 12 26  1  0
 13 27  1  0
 14 28  1  0
 17 29  1  0
 17 30  1  0
 18 31  1  0
 18 32  1  0
 19 33  1  0
 19 34  1  0
 20 35  1  0
 20 36  1  0
M  END
>  <Energy>  (637) 
-182.14632802143484

>  <compound_id>  (637) 
906

>  <target_id>  (637) 
1

>  <reference_id>  (637) 
72

>  <inspiration_ids>  (637) 
[72, 140]

>  <energy_score>  (637) 
-41.90103881365266

>  <distance_score>  (637) 
2.330765435078237

>  <path>  (637) 
/opt/xchem-fragalysis-2/maxwin/BulkDock/SCRATCH/505733/C906-P72/C906-P72.minimised.mol

>  <scratch_subdir>  (637) 
/opt/xchem-fragalysis-2/maxwin/BulkDock/SCRATCH/505733/C906-P72

>  <fragmenstein_runtime>  (637) 
3.0669796466827393

>  <fragmenstein_outcome>  (637) 
too moved

>  <fragmenstein_mode>  (637) 
expansion

>  <fragmenstein_error>  (637) 


$$$$
C906-P140
     RDKit          3D

 36 38  0  0  0  0  0  0  0  0999 V2000
   -0.3505   -7.3192   39.2604 O   0  0  0  0  0  0  0  0  0  0  0  0
    0.5495   -6.4395   38.5659 S   0  0  0  0  0  0  0  0  0  0  0  0
    0.8419   -5.1238   39.0805 O   0  0  0  0  0  0  0  0  0  0  0  0
   -0.0277   -6.2227   36.9798 N   0  0  0  0  0  0  0  0  0  0  0  0
   -0.0608   -7.3986   36.1248 C   0  0  0  0  0  0  0  0  0  0  0  0
   -1.1375   -7.3545   35.1274 N   0  0  0  0  0  0  0  0  0  0  0  0
   -0.9191   -7.1649   33.8050 C   0  0  0  0  0  0  0  0  0  0  0  0
   -1.4536   -7.8666   32.8243 N   0  0  0  0  0  0  0  0  0  0  0  0
   -0.9614   -7.4084   31.6381 N   0  0  0  0  0  0  0  0  0  0  0  0
   -0.1643   -6.4069   31.9247 C   0  0  0  0  0  0  0  0  0  0  0  0
    0.6229   -5.5568   31.1240 C   0  0  0  0  0  0  0  0  0  0  0  0
    1.3631   -4.5918   31.7018 C   0  0  0  0  0  0  0  0  0  0  0  0
    1.3607   -4.3644   33.1302 C   0  0  0  0  0  0  0  0  0  0  0  0
    0.6009   -5.1603   33.8884 C   0  0  0  0  0  0  0  0  0  0  0  0
   -0.1270   -6.1811   33.2868 N   0  0  0  0  0  0  0  0  0  0  0  0
    1.9828   -7.2510   38.3141 N   0  0  0  0  0  0  0  0  0  0  0  0
    2.5509   -7.9077   39.5372 C   0  0  0  0  0  0  0  0  0  0  0  0
    4.0066   -7.4695   39.5877 C   0  0  0  0  0  0  0  0  0  0  0  0
    4.3292   -7.1869   38.1364 C   0  0  0  0  0  0  0  0  0  0  0  0
    3.0658   -6.5007   37.6521 C   0  0  0  0  0  0  0  0  0  0  0  0
   -0.9558   -5.8042   37.0467 H   0  0  0  0  0  0  0  0  0  0  0  0
   -0.2466   -8.2532   36.7598 H   0  0  0  0  0  0  0  0  0  0  0  0
    0.9139   -7.5409   35.6475 H   0  0  0  0  0  0  0  0  0  0  0  0
   -1.6577   -8.2383   35.2090 H   0  0  0  0  0  0  0  0  0  0  0  0
    0.6081   -5.6886   30.0485 H   0  0  0  0  0  0  0  0  0  0  0  0
    1.9594   -3.9192   31.0902 H   0  0  0  0  0  0  0  0  0  0  0  0
    1.9298   -3.5390   33.5451 H   0  0  0  0  0  0  0  0  0  0  0  0
    0.5149   -5.0159   34.9537 H   0  0  0  0  0  0  0  0  0  0  0  0
    2.0329   -7.6290   40.4596 H   0  0  0  0  0  0  0  0  0  0  0  0
    2.4743   -8.9917   39.4099 H   0  0  0  0  0  0  0  0  0  0  0  0
    4.6569   -8.2294   40.0298 H   0  0  0  0  0  0  0  0  0  0  0  0
    4.1025   -6.5516   40.1801 H   0  0  0  0  0  0  0  0  0  0  0  0
    5.2186   -6.5628   38.0135 H   0  0  0  0  0  0  0  0  0  0  0  0
    4.4880   -8.1263   37.5930 H   0  0  0  0  0  0  0  0  0  0  0  0
    2.9780   -6.5593   36.5641 H   0  0  0  0  0  0  0  0  0  0  0  0
    3.0781   -5.4482   37.9537 H   0  0  0  0  0  0  0  0  0  0  0  0
  1  2  2  0
  2  3  2  0
  2  4  1  0
  4  5  1  0
  5  6  1  0
  6  7  1  0
  7  8  2  0
  8  9  1  0
  9 10  2  0
 10 11  1  0
 11 12  2  0
 12 13  1  0
 13 14  2  0
 14 15  1  0
  2 16  1  0
 16 17  1  0
 17 18  1  0
 18 19  1  0
 19 20  1  0
 15  7  1  0
 20 16  1  0
 15 10  1  0
  4 21  1  0
  5 22  1  0
  5 23  1  0
  6 24  1  0
 11 25  1  0
 12 26  1  0
 13 27  1  0
 14 28  1  0
 17 29  1  0
 17 30  1  0
 18 31  1  0
 18 32  1  0
 19 33  1  0
 19 34  1  0
 20 35  1  0
 20 36  1  0
M  END
>  <Energy>  (638) 
-214.49350963037216

>  <compound_id>  (638) 
906

>  <target_id>  (638) 
1

>  <reference_id>  (638) 
140

>  <inspiration_ids>  (638) 
[72, 140]

>  <energy_score>  (638) 
-74.24822042259245

>  <distance_score>  (638) 
2.436560484925167

>  <path>  (638) 
/opt/xchem-fragalysis-2/maxwin/BulkDock/SCRATCH/505733/C906-P140/C906-P140.minimised.mol

>  <scratch_subdir>  (638) 
/opt/xchem-fragalysis-2/maxwin/BulkDock/SCRATCH/505733/C906-P140

>  <fragmenstein_runtime>  (638) 
3.0344533920288086

>  <fragmenstein_outcome>  (638) 
too moved

>  <fragmenstein_mode>  (638) 
expansion

>  <fragmenstein_error>  (638) 


$$$$
C907-P72
     RDKit          3D

 34 36  0  0  0  0  0  0  0  0999 V2000
    0.6673   -3.4724   33.4161 C   0  0  0  0  0  0  0  0  0  0  0  0
    0.5257   -2.3119   32.5748 N   0  0  0  0  0  0  0  0  0  0  0  0
   -0.2551   -1.2324   32.8538 C   0  0  0  0  0  0  0  0  0  0  0  0
   -0.1977   -0.4212   31.7492 C   0  0  0  0  0  0  0  0  0  0  0  0
    0.6480   -1.0936   30.8367 C   0  0  0  0  0  0  0  0  0  0  0  0
    0.8575   -0.5271   29.1746 S   0  0  0  0  0  0  0  0  0  0  0  0
    1.1876    0.8749   29.3224 O   0  0  0  0  0  0  0  0  0  0  0  0
    1.7787   -1.4520   28.5453 O   0  0  0  0  0  0  0  0  0  0  0  0
   -0.5729   -0.5525   28.2827 N   0  0  0  0  0  0  0  0  0  0  0  0
   -1.6336   -1.3989   28.7539 C   0  0  0  0  0  0  0  0  0  0  0  0
   -1.1363   -2.7339   28.7984 N   0  0  0  0  0  0  0  0  0  0  0  0
   -1.1248   -3.4617   29.9650 C   0  0  0  0  0  0  0  0  0  0  0  0
   -1.9397   -3.4624   31.0097 N   0  0  0  0  0  0  0  0  0  0  0  0
   -1.6840   -4.5851   31.7778 N   0  0  0  0  0  0  0  0  0  0  0  0
   -0.7540   -5.2757   31.1708 C   0  0  0  0  0  0  0  0  0  0  0  0
   -0.3119   -6.6088   31.2877 C   0  0  0  0  0  0  0  0  0  0  0  0
    0.7086   -6.9941   30.5097 C   0  0  0  0  0  0  0  0  0  0  0  0
    1.4849   -6.0427   29.7240 C   0  0  0  0  0  0  0  0  0  0  0  0
    0.9597   -4.8291   29.5154 C   0  0  0  0  0  0  0  0  0  0  0  0
   -0.2215   -4.5026   30.1553 N   0  0  0  0  0  0  0  0  0  0  0  0
    1.1699   -2.2183   31.3913 N   0  0  0  0  0  0  0  0  0  0  0  0
    1.2881   -3.1848   34.2696 H   0  0  0  0  0  0  0  0  0  0  0  0
    1.1706   -4.2718   32.8702 H   0  0  0  0  0  0  0  0  0  0  0  0
   -0.3142   -3.7876   33.7742 H   0  0  0  0  0  0  0  0  0  0  0  0
   -0.8070   -1.1564   33.7804 H   0  0  0  0  0  0  0  0  0  0  0  0
   -0.7256    0.5062   31.5881 H   0  0  0  0  0  0  0  0  0  0  0  0
   -0.3337   -0.8019   27.3201 H   0  0  0  0  0  0  0  0  0  0  0  0
   -2.0381   -1.0359   29.7032 H   0  0  0  0  0  0  0  0  0  0  0  0
   -2.4385   -1.3374   28.0150 H   0  0  0  0  0  0  0  0  0  0  0  0
   -1.6124   -3.2654   28.0534 H   0  0  0  0  0  0  0  0  0  0  0  0
   -0.8848   -7.3084   31.8861 H   0  0  0  0  0  0  0  0  0  0  0  0
    0.9143   -8.0491   30.4144 H   0  0  0  0  0  0  0  0  0  0  0  0
    2.3983   -6.3380   29.2228 H   0  0  0  0  0  0  0  0  0  0  0  0
    1.3911   -4.0834   28.8583 H   0  0  0  0  0  0  0  0  0  0  0  0
  1  2  1  0
  2  3  1  0
  3  4  2  0
  4  5  1  0
  5  6  1  0
  6  7  2  0
  6  8  2  0
  6  9  1  0
  9 10  1  0
 10 11  1  0
 11 12  1  0
 12 13  2  0
 13 14  1  0
 14 15  2  0
 15 16  1  0
 16 17  2  0
 17 18  1  0
 18 19  2  0
 19 20  1  0
  5 21  2  0
 21  2  1  0
 20 12  1  0
 20 15  1  0
  1 22  1  0
  1 23  1  0
  1 24  1  0
  3 25  1  0
  4 26  1  0
  9 27  1  0
 10 28  1  0
 10 29  1  0
 11 30  1  0
 16 31  1  0
 17 32  1  0
 18 33  1  0
 19 34  1  0
M  END
>  <Energy>  (639) 
9.6539526643611175

>  <compound_id>  (639) 
907

>  <target_id>  (639) 
1

>  <reference_id>  (639) 
72

>  <inspiration_ids>  (639) 
[72, 141]

>  <energy_score>  (639) 
-40.03260008607134

>  <distance_score>  (639) 
3.1769251017283953

>  <path>  (639) 
/opt/xchem-fragalysis-2/maxwin/BulkDock/SCRATCH/505733/C907-P72/C907-P72.minimised.mol

>  <scratch_subdir>  (639) 
/opt/xchem-fragalysis-2/maxwin/BulkDock/SCRATCH/505733/C907-P72

>  <fragmenstein_runtime>  (639) 
3.6925034523010254

>  <fragmenstein_outcome>  (639) 
too moved

>  <fragmenstein_mode>  (639) 
expansion

>  <fragmenstein_error>  (639) 


$$$$
C907-P141
     RDKit          3D

 34 36  0  0  0  0  0  0  0  0999 V2000
    0.7102   -2.4170   33.9536 C   0  0  0  0  0  0  0  0  0  0  0  0
    1.1167   -2.2528   32.5839 N   0  0  0  0  0  0  0  0  0  0  0  0
    2.1770   -2.8428   31.9710 C   0  0  0  0  0  0  0  0  0  0  0  0
    2.2277   -2.3068   30.7059 C   0  0  0  0  0  0  0  0  0  0  0  0
    1.1422   -1.4064   30.6382 C   0  0  0  0  0  0  0  0  0  0  0  0
    0.6801   -0.5448   29.1645 S   0  0  0  0  0  0  0  0  0  0  0  0
    0.0238    0.6613   29.6189 O   0  0  0  0  0  0  0  0  0  0  0  0
    1.8990   -0.5092   28.3839 O   0  0  0  0  0  0  0  0  0  0  0  0
   -0.4176   -1.4821   28.3507 N   0  0  0  0  0  0  0  0  0  0  0  0
   -1.6701   -1.7530   28.9845 C   0  0  0  0  0  0  0  0  0  0  0  0
   -1.5431   -2.5919   30.1683 N   0  0  0  0  0  0  0  0  0  0  0  0
   -0.8867   -3.8107   30.1678 C   0  0  0  0  0  0  0  0  0  0  0  0
   -0.2990   -4.4255   29.1638 N   0  0  0  0  0  0  0  0  0  0  0  0
    0.2256   -5.6291   29.5788 N   0  0  0  0  0  0  0  0  0  0  0  0
   -0.0974   -5.7929   30.8251 C   0  0  0  0  0  0  0  0  0  0  0  0
    0.0644   -6.8961   31.6916 C   0  0  0  0  0  0  0  0  0  0  0  0
   -0.2610   -6.7697   32.9885 C   0  0  0  0  0  0  0  0  0  0  0  0
   -0.8011   -5.5236   33.4915 C   0  0  0  0  0  0  0  0  0  0  0  0
   -1.0622   -4.5212   32.6310 C   0  0  0  0  0  0  0  0  0  0  0  0
   -0.7158   -4.6444   31.2942 N   0  0  0  0  0  0  0  0  0  0  0  0
    0.4159   -1.4356   31.7830 N   0  0  0  0  0  0  0  0  0  0  0  0
    0.9482   -3.4270   34.2914 H   0  0  0  0  0  0  0  0  0  0  0  0
   -0.3521   -2.1941   34.0672 H   0  0  0  0  0  0  0  0  0  0  0  0
    1.2832   -1.7005   34.5501 H   0  0  0  0  0  0  0  0  0  0  0  0
    2.8097   -3.5604   32.4745 H   0  0  0  0  0  0  0  0  0  0  0  0
    2.9419   -2.5335   29.9255 H   0  0  0  0  0  0  0  0  0  0  0  0
   -0.0150   -2.3096   27.9164 H   0  0  0  0  0  0  0  0  0  0  0  0
   -2.1607   -0.8154   29.2668 H   0  0  0  0  0  0  0  0  0  0  0  0
   -2.3360   -2.2186   28.2626 H   0  0  0  0  0  0  0  0  0  0  0  0
   -1.3652   -2.0198   30.9987 H   0  0  0  0  0  0  0  0  0  0  0  0
    0.4083   -7.8283   31.2698 H   0  0  0  0  0  0  0  0  0  0  0  0
   -0.1957   -7.6070   33.6771 H   0  0  0  0  0  0  0  0  0  0  0  0
   -1.0685   -5.4637   34.5431 H   0  0  0  0  0  0  0  0  0  0  0  0
   -1.5630   -3.6085   32.9251 H   0  0  0  0  0  0  0  0  0  0  0  0
  1  2  1  0
  2  3  1  0
  3  4  2  0
  4  5  1  0
  5  6  1  0
  6  7  2  0
  6  8  2  0
  6  9  1  0
  9 10  1  0
 10 11  1  0
 11 12  1  0
 12 13  2  0
 13 14  1  0
 14 15  2  0
 15 16  1  0
 16 17  2  0
 17 18  1  0
 18 19  2  0
 19 20  1  0
  5 21  2  0
 21  2  1  0
 20 12  1  0
 20 15  1  0
  1 22  1  0
  1 23  1  0
  1 24  1  0
  3 25  1  0
  4 26  1  0
  9 27  1  0
 10 28  1  0
 10 29  1  0
 11 30  1  0
 16 31  1  0
 17 32  1  0
 18 33  1  0
 19 34  1  0
M  END
>  <Energy>  (640) 
-9.222462780219935

>  <compound_id>  (640) 
907

>  <target_id>  (640) 
1

>  <reference_id>  (640) 
141

>  <inspiration_ids>  (640) 
[72, 141]

>  <energy_score>  (640) 
-58.90901553065294

>  <distance_score>  (640) 
2.8633391108662942

>  <path>  (640) 
/opt/xchem-fragalysis-2/maxwin/BulkDock/SCRATCH/505733/C907-P141/C907-P141.minimised.mol

>  <scratch_subdir>  (640) 
/opt/xchem-fragalysis-2/maxwin/BulkDock/SCRATCH/505733/C907-P141

>  <fragmenstein_runtime>  (640) 
3.9982643127441406

>  <fragmenstein_outcome>  (640) 
too moved

>  <fragmenstein_mode>  (640) 
expansion

>  <fragmenstein_error>  (640) 


$$$$
C907-P72
     RDKit          3D

 34 36  0  0  0  0  0  0  0  0999 V2000
   -1.3762   -2.6458   33.8410 C   0  0  0  0  0  0  0  0  0  0  0  0
   -0.5769   -1.7774   33.0134 N   0  0  0  0  0  0  0  0  0  0  0  0
    0.6582   -1.2570   33.2498 C   0  0  0  0  0  0  0  0  0  0  0  0
    1.0427   -0.6112   32.0906 C   0  0  0  0  0  0  0  0  0  0  0  0
   -0.0316   -0.7924   31.2042 C   0  0  0  0  0  0  0  0  0  0  0  0
   -0.0513   -0.4276   29.4814 S   0  0  0  0  0  0  0  0  0  0  0  0
    1.2349   -0.8124   28.9573 O   0  0  0  0  0  0  0  0  0  0  0  0
   -0.5440    0.9249   29.3993 O   0  0  0  0  0  0  0  0  0  0  0  0
   -1.1674   -1.4501   28.8283 N   0  0  0  0  0  0  0  0  0  0  0  0
   -0.9507   -2.8894   28.9222 C   0  0  0  0  0  0  0  0  0  0  0  0
   -0.2407   -3.3991   30.0926 N   0  0  0  0  0  0  0  0  0  0  0  0
   -0.2110   -4.7505   30.4486 C   0  0  0  0  0  0  0  0  0  0  0  0
   -0.6132   -5.8273   29.7967 N   0  0  0  0  0  0  0  0  0  0  0  0
   -0.8482   -6.8685   30.6877 N   0  0  0  0  0  0  0  0  0  0  0  0
   -0.4273   -6.4718   31.8634 C   0  0  0  0  0  0  0  0  0  0  0  0
   -0.4285   -7.0800   33.1528 C   0  0  0  0  0  0  0  0  0  0  0  0
    0.2688   -6.5056   34.1522 C   0  0  0  0  0  0  0  0  0  0  0  0
    1.0401   -5.2913   33.9257 C   0  0  0  0  0  0  0  0  0  0  0  0
    0.9606   -4.6732   32.7316 C   0  0  0  0  0  0  0  0  0  0  0  0
    0.1705   -5.2196   31.7223 N   0  0  0  0  0  0  0  0  0  0  0  0
   -1.0226   -1.5177   31.7841 N   0  0  0  0  0  0  0  0  0  0  0  0
   -1.6388   -3.5274   33.2566 H   0  0  0  0  0  0  0  0  0  0  0  0
   -2.2743   -2.0966   34.1350 H   0  0  0  0  0  0  0  0  0  0  0  0
   -0.8061   -2.9274   34.7290 H   0  0  0  0  0  0  0  0  0  0  0  0
    1.1669   -1.3946   34.1943 H   0  0  0  0  0  0  0  0  0  0  0  0
    1.9848   -0.1175   31.8941 H   0  0  0  0  0  0  0  0  0  0  0  0
   -1.4369   -1.1703   27.8828 H   0  0  0  0  0  0  0  0  0  0  0  0
   -0.4769   -3.2609   28.0137 H   0  0  0  0  0  0  0  0  0  0  0  0
   -1.9525   -3.2905   29.0176 H   0  0  0  0  0  0  0  0  0  0  0  0
   -0.6022   -2.8644   30.8808 H   0  0  0  0  0  0  0  0  0  0  0  0
   -0.9861   -7.9993   33.2991 H   0  0  0  0  0  0  0  0  0  0  0  0
    0.2863   -6.9493   35.1440 H   0  0  0  0  0  0  0  0  0  0  0  0
    1.6561   -4.9033   34.7309 H   0  0  0  0  0  0  0  0  0  0  0  0
    1.5007   -3.7682   32.4876 H   0  0  0  0  0  0  0  0  0  0  0  0
  1  2  1  0
  2  3  1  0
  3  4  2  0
  4  5  1  0
  5  6  1  0
  6  7  2  0
  6  8  2  0
  6  9  1  0
  9 10  1  0
 10 11  1  0
 11 12  1  0
 12 13  2  0
 13 14  1  0
 14 15  2  0
 15 16  1  0
 16 17  2  0
 17 18  1  0
 18 19  2  0
 19 20  1  0
  5 21  2  0
 21  2  1  0
 20 12  1  0
 20 15  1  0
  1 22  1  0
  1 23  1  0
  1 24  1  0
  3 25  1  0
  4 26  1  0
  9 27  1  0
 10 28  1  0
 10 29  1  0
 11 30  1  0
 16 31  1  0
 17 32  1  0
 18 33  1  0
 19 34  1  0
M  END
>  <Energy>  (641) 
5.212641056223168

>  <compound_id>  (641) 
907

>  <target_id>  (641) 
1

>  <reference_id>  (641) 
72

>  <inspiration_ids>  (641) 
[72, 142]

>  <energy_score>  (641) 
-44.47391169421033

>  <distance_score>  (641) 
2.8685712491928235

>  <path>  (641) 
/opt/xchem-fragalysis-2/maxwin/BulkDock/SCRATCH/505733/C907-P72/C907-P72.minimised.mol

>  <scratch_subdir>  (641) 
/opt/xchem-fragalysis-2/maxwin/BulkDock/SCRATCH/505733/C907-P72

>  <fragmenstein_runtime>  (641) 
3.103942394256592

>  <fragmenstein_outcome>  (641) 
too moved

>  <fragmenstein_mode>  (641) 
expansion

>  <fragmenstein_error>  (641) 


$$$$
C907-P142
     RDKit          3D

 34 36  0  0  0  0  0  0  0  0999 V2000
   -1.3573   -3.0144   33.7310 C   0  0  0  0  0  0  0  0  0  0  0  0
   -0.7102   -2.0897   32.8426 N   0  0  0  0  0  0  0  0  0  0  0  0
    0.4380   -1.3863   33.0362 C   0  0  0  0  0  0  0  0  0  0  0  0
    0.5993   -0.5977   31.9172 C   0  0  0  0  0  0  0  0  0  0  0  0
   -0.5013   -0.9107   31.0957 C   0  0  0  0  0  0  0  0  0  0  0  0
   -0.7080   -0.4058   29.4279 S   0  0  0  0  0  0  0  0  0  0  0  0
    0.2090    0.6813   29.2047 O   0  0  0  0  0  0  0  0  0  0  0  0
   -2.1286   -0.2503   29.2704 O   0  0  0  0  0  0  0  0  0  0  0  0
   -0.1761   -1.6842   28.4972 N   0  0  0  0  0  0  0  0  0  0  0  0
   -0.6952   -2.9753   28.9232 C   0  0  0  0  0  0  0  0  0  0  0  0
    0.2662   -3.5997   29.8338 N   0  0  0  0  0  0  0  0  0  0  0  0
    0.0107   -4.8424   30.4079 C   0  0  0  0  0  0  0  0  0  0  0  0
   -0.6196   -5.8815   29.8905 N   0  0  0  0  0  0  0  0  0  0  0  0
   -0.8847   -6.8325   30.8581 N   0  0  0  0  0  0  0  0  0  0  0  0
   -0.3174   -6.4218   31.9630 C   0  0  0  0  0  0  0  0  0  0  0  0
   -0.2901   -6.9566   33.2831 C   0  0  0  0  0  0  0  0  0  0  0  0
    0.5220   -6.3998   34.2012 C   0  0  0  0  0  0  0  0  0  0  0  0
    1.3793   -5.2729   33.8586 C   0  0  0  0  0  0  0  0  0  0  0  0
    1.2938   -4.7206   32.6321 C   0  0  0  0  0  0  0  0  0  0  0  0
    0.4077   -5.2554   31.6957 N   0  0  0  0  0  0  0  0  0  0  0  0
   -1.2716   -1.8671   31.6576 N   0  0  0  0  0  0  0  0  0  0  0  0
   -1.5951   -3.9181   33.1719 H   0  0  0  0  0  0  0  0  0  0  0  0
   -2.2606   -2.5246   34.1027 H   0  0  0  0  0  0  0  0  0  0  0  0
   -0.6959   -3.2421   34.5695 H   0  0  0  0  0  0  0  0  0  0  0  0
    1.0243   -1.4811   33.9401 H   0  0  0  0  0  0  0  0  0  0  0  0
    1.4073    0.0903   31.7047 H   0  0  0  0  0  0  0  0  0  0  0  0
   -0.4553   -1.5009   27.5261 H   0  0  0  0  0  0  0  0  0  0  0  0
   -0.7699   -3.6112   28.0430 H   0  0  0  0  0  0  0  0  0  0  0  0
   -1.7016   -2.9206   29.3481 H   0  0  0  0  0  0  0  0  0  0  0  0
    0.6887   -2.9122   30.4394 H   0  0  0  0  0  0  0  0  0  0  0  0
   -0.9204   -7.8092   33.5187 H   0  0  0  0  0  0  0  0  0  0  0  0
    0.5598   -6.7912   35.2147 H   0  0  0  0  0  0  0  0  0  0  0  0
    2.0576   -4.8871   34.6135 H   0  0  0  0  0  0  0  0  0  0  0  0
    1.8859   -3.8696   32.3217 H   0  0  0  0  0  0  0  0  0  0  0  0
  1  2  1  0
  2  3  1  0
  3  4  2  0
  4  5  1  0
  5  6  1  0
  6  7  2  0
  6  8  2  0
  6  9  1  0
  9 10  1  0
 10 11  1  0
 11 12  1  0
 12 13  2  0
 13 14  1  0
 14 15  2  0
 15 16  1  0
 16 17  2  0
 17 18  1  0
 18 19  2  0
 19 20  1  0
  5 21  2  0
 21  2  1  0
 20 12  1  0
 20 15  1  0
  1 22  1  0
  1 23  1  0
  1 24  1  0
  3 25  1  0
  4 26  1  0
  9 27  1  0
 10 28  1  0
 10 29  1  0
 11 30  1  0
 16 31  1  0
 17 32  1  0
 18 33  1  0
 19 34  1  0
M  END
>  <Energy>  (642) 
-5.4762273848906204

>  <compound_id>  (642) 
907

>  <target_id>  (642) 
1

>  <reference_id>  (642) 
142

>  <inspiration_ids>  (642) 
[72, 142]

>  <energy_score>  (642) 
-55.1627801353234

>  <distance_score>  (642) 
2.847209287544297

>  <path>  (642) 
/opt/xchem-fragalysis-2/maxwin/BulkDock/SCRATCH/505733/C907-P142/C907-P142.minimised.mol

>  <scratch_subdir>  (642) 
/opt/xchem-fragalysis-2/maxwin/BulkDock/SCRATCH/505733/C907-P142

>  <fragmenstein_runtime>  (642) 
3.89215350151062

>  <fragmenstein_outcome>  (642) 
too moved

>  <fragmenstein_mode>  (642) 
expansion

>  <fragmenstein_error>  (642) 


$$$$
C908-P72
     RDKit          3D

 30 32  0  0  0  0  0  0  0  0999 V2000
    2.6442   -7.7298   35.4352 O   0  0  0  0  0  0  0  0  0  0  0  0
    1.5645   -7.4707   36.3684 S   0  0  0  0  0  0  0  0  0  0  0  0
    0.3635   -8.2599   36.3727 O   0  0  0  0  0  0  0  0  0  0  0  0
    1.2120   -5.8419   36.2216 N   0  0  0  0  0  0  0  0  0  0  0  0
   -0.0139   -5.4055   36.8416 C   0  0  0  0  0  0  0  0  0  0  0  0
   -0.9034   -4.9960   35.7996 N   0  0  0  0  0  0  0  0  0  0  0  0
   -1.2081   -5.9708   34.8940 C   0  0  0  0  0  0  0  0  0  0  0  0
   -1.9259   -7.0651   35.0513 N   0  0  0  0  0  0  0  0  0  0  0  0
   -1.8282   -7.8310   33.9188 N   0  0  0  0  0  0  0  0  0  0  0  0
   -1.0264   -7.2083   33.0986 C   0  0  0  0  0  0  0  0  0  0  0  0
   -0.5072   -7.5539   31.8397 C   0  0  0  0  0  0  0  0  0  0  0  0
    0.3572   -6.7167   31.2408 C   0  0  0  0  0  0  0  0  0  0  0  0
    0.7483   -5.4477   31.8258 C   0  0  0  0  0  0  0  0  0  0  0  0
    0.2246   -5.1043   33.0081 C   0  0  0  0  0  0  0  0  0  0  0  0
   -0.6435   -5.9946   33.6363 N   0  0  0  0  0  0  0  0  0  0  0  0
    2.2306   -7.6424   37.9673 C   0  0  0  0  0  0  0  0  0  0  0  0
    3.5602   -7.4131   38.2415 C   0  0  0  0  0  0  0  0  0  0  0  0
    3.8532   -7.6188   39.9130 S   0  0  0  0  0  0  0  0  0  0  0  0
    2.1958   -7.9723   40.1537 C   0  0  0  0  0  0  0  0  0  0  0  0
    1.4341   -7.9101   39.0861 N   0  0  0  0  0  0  0  0  0  0  0  0
    1.4523   -5.4559   35.3207 H   0  0  0  0  0  0  0  0  0  0  0  0
    0.2129   -4.5424   37.4771 H   0  0  0  0  0  0  0  0  0  0  0  0
   -0.4760   -6.1481   37.5007 H   0  0  0  0  0  0  0  0  0  0  0  0
   -0.6628   -4.0809   35.4389 H   0  0  0  0  0  0  0  0  0  0  0  0
   -0.7918   -8.4998   31.3948 H   0  0  0  0  0  0  0  0  0  0  0  0
    0.7825   -6.9777   30.2767 H   0  0  0  0  0  0  0  0  0  0  0  0
    1.4308   -4.8015   31.2829 H   0  0  0  0  0  0  0  0  0  0  0  0
    0.4526   -4.1693   33.5008 H   0  0  0  0  0  0  0  0  0  0  0  0
    4.3551   -7.1578   37.5546 H   0  0  0  0  0  0  0  0  0  0  0  0
    1.8010   -8.2129   41.1331 H   0  0  0  0  0  0  0  0  0  0  0  0
  1  2  2  0
  2  3  2  0
  2  4  1  0
  4  5  1  0
  5  6  1  0
  6  7  1  0
  7  8  2  0
  8  9  1  0
  9 10  2  0
 10 11  1  0
 11 12  2  0
 12 13  1  0
 13 14  2  0
 14 15  1  0
  2 16  1  0
 16 17  2  0
 17 18  1  0
 18 19  1  0
 19 20  2  0
 15  7  1  0
 20 16  1  0
 15 10  1  0
  4 21  1  0
  5 22  1  0
  5 23  1  0
  6 24  1  0
 11 25  1  0
 12 26  1  0
 13 27  1  0
 14 28  1  0
 17 29  1  0
 19 30  1  0
M  END
>  <Energy>  (643) 
-23.815280193164615

>  <compound_id>  (643) 
908

>  <target_id>  (643) 
1

>  <reference_id>  (643) 
72

>  <inspiration_ids>  (643) 
[72, 144]

>  <energy_score>  (643) 
-84.3738180153151

>  <distance_score>  (643) 
2.167097852748797

>  <path>  (643) 
/opt/xchem-fragalysis-2/maxwin/BulkDock/SCRATCH/505733/C908-P72/C908-P72.minimised.mol

>  <scratch_subdir>  (643) 
/opt/xchem-fragalysis-2/maxwin/BulkDock/SCRATCH/505733/C908-P72

>  <fragmenstein_runtime>  (643) 
1.9724657535552979

>  <fragmenstein_outcome>  (643) 
too moved

>  <fragmenstein_mode>  (643) 
expansion

>  <fragmenstein_error>  (643) 


$$$$
C908-P144
     RDKit          3D

 30 32  0  0  0  0  0  0  0  0999 V2000
   -0.1379   -7.8767   36.7495 O   0  0  0  0  0  0  0  0  0  0  0  0
   -0.0794   -6.5393   37.2884 S   0  0  0  0  0  0  0  0  0  0  0  0
   -0.9331   -6.1001   38.3551 O   0  0  0  0  0  0  0  0  0  0  0  0
   -0.4077   -5.5412   36.0012 N   0  0  0  0  0  0  0  0  0  0  0  0
   -0.3782   -4.1068   36.0365 C   0  0  0  0  0  0  0  0  0  0  0  0
   -0.7449   -3.5542   34.7184 N   0  0  0  0  0  0  0  0  0  0  0  0
   -0.5280   -4.2594   33.5454 C   0  0  0  0  0  0  0  0  0  0  0  0
   -1.4090   -4.6192   32.6161 N   0  0  0  0  0  0  0  0  0  0  0  0
   -1.2329   -5.9831   32.4003 N   0  0  0  0  0  0  0  0  0  0  0  0
   -0.1804   -6.3078   33.1127 C   0  0  0  0  0  0  0  0  0  0  0  0
    0.2237   -7.4462   33.8310 C   0  0  0  0  0  0  0  0  0  0  0  0
    1.3843   -7.3834   34.5307 C   0  0  0  0  0  0  0  0  0  0  0  0
    2.2779   -6.2358   34.4783 C   0  0  0  0  0  0  0  0  0  0  0  0
    1.7897   -5.1032   33.9585 C   0  0  0  0  0  0  0  0  0  0  0  0
    0.5119   -5.1489   33.4194 N   0  0  0  0  0  0  0  0  0  0  0  0
    1.4900   -6.5099   38.0253 C   0  0  0  0  0  0  0  0  0  0  0  0
    2.4746   -5.5779   37.8062 C   0  0  0  0  0  0  0  0  0  0  0  0
    3.8691   -5.9789   38.7267 S   0  0  0  0  0  0  0  0  0  0  0  0
    3.0449   -7.3154   39.4045 C   0  0  0  0  0  0  0  0  0  0  0  0
    1.8227   -7.4982   38.9733 N   0  0  0  0  0  0  0  0  0  0  0  0
   -1.2901   -5.8534   35.5880 H   0  0  0  0  0  0  0  0  0  0  0  0
   -1.0929   -3.7308   36.7755 H   0  0  0  0  0  0  0  0  0  0  0  0
    0.6130   -3.7363   36.3049 H   0  0  0  0  0  0  0  0  0  0  0  0
   -1.7414   -3.3051   34.7423 H   0  0  0  0  0  0  0  0  0  0  0  0
   -0.4770   -8.2698   33.9148 H   0  0  0  0  0  0  0  0  0  0  0  0
    1.6837   -8.2039   35.1799 H   0  0  0  0  0  0  0  0  0  0  0  0
    3.2517   -6.2908   34.9528 H   0  0  0  0  0  0  0  0  0  0  0  0
    2.2794   -4.1401   34.0138 H   0  0  0  0  0  0  0  0  0  0  0  0
    2.4741   -4.7146   37.1606 H   0  0  0  0  0  0  0  0  0  0  0  0
    3.5056   -7.9647   40.1380 H   0  0  0  0  0  0  0  0  0  0  0  0
  1  2  2  0
  2  3  2  0
  2  4  1  0
  4  5  1  0
  5  6  1  0
  6  7  1  0
  7  8  2  0
  8  9  1  0
  9 10  2  0
 10 11  1  0
 11 12  2  0
 12 13  1  0
 13 14  2  0
 14 15  1  0
  2 16  1  0
 16 17  2  0
 17 18  1  0
 18 19  1  0
 19 20  2  0
 15  7  1  0
 20 16  1  0
 15 10  1  0
  4 21  1  0
  5 22  1  0
  5 23  1  0
  6 24  1  0
 11 25  1  0
 12 26  1  0
 13 27  1  0
 14 28  1  0
 17 29  1  0
 19 30  1  0
M  END
>  <Energy>  (644) 
13.655233900472458

>  <compound_id>  (644) 
908

>  <target_id>  (644) 
1

>  <reference_id>  (644) 
144

>  <inspiration_ids>  (644) 
[72, 144]

>  <energy_score>  (644) 
-46.90330392167806

>  <distance_score>  (644) 
2.225104594586235

>  <path>  (644) 
/opt/xchem-fragalysis-2/maxwin/BulkDock/SCRATCH/505733/C908-P144/C908-P144.minimised.mol

>  <scratch_subdir>  (644) 
/opt/xchem-fragalysis-2/maxwin/BulkDock/SCRATCH/505733/C908-P144

>  <fragmenstein_runtime>  (644) 
1.7364697456359863

>  <fragmenstein_outcome>  (644) 
too moved

>  <fragmenstein_mode>  (644) 
expansion

>  <fragmenstein_error>  (644) 


$$$$
C908-P72
     RDKit          3D

 30 32  0  0  0  0  0  0  0  0999 V2000
    2.3919   -8.1655   35.2254 O   0  0  0  0  0  0  0  0  0  0  0  0
    1.5544   -7.6283   36.2814 S   0  0  0  0  0  0  0  0  0  0  0  0
    0.2845   -8.1912   36.6605 O   0  0  0  0  0  0  0  0  0  0  0  0
    1.3762   -6.0068   35.9006 N   0  0  0  0  0  0  0  0  0  0  0  0
    0.3094   -5.2580   36.5134 C   0  0  0  0  0  0  0  0  0  0  0  0
   -1.0094   -5.6816   36.1231 N   0  0  0  0  0  0  0  0  0  0  0  0
   -1.2385   -6.3208   34.9350 C   0  0  0  0  0  0  0  0  0  0  0  0
   -1.9550   -7.4147   34.7571 N   0  0  0  0  0  0  0  0  0  0  0  0
   -1.7043   -7.9135   33.5012 N   0  0  0  0  0  0  0  0  0  0  0  0
   -0.8794   -7.0850   32.9192 C   0  0  0  0  0  0  0  0  0  0  0  0
   -0.2079   -7.1214   31.6827 C   0  0  0  0  0  0  0  0  0  0  0  0
    0.5618   -6.0770   31.3271 C   0  0  0  0  0  0  0  0  0  0  0  0
    0.6736   -4.8815   32.1417 C   0  0  0  0  0  0  0  0  0  0  0  0
    0.0378   -4.8523   33.3186 C   0  0  0  0  0  0  0  0  0  0  0  0
   -0.6757   -5.9773   33.7233 N   0  0  0  0  0  0  0  0  0  0  0  0
    2.5127   -7.7229   37.7310 C   0  0  0  0  0  0  0  0  0  0  0  0
    3.4721   -6.7856   38.0473 C   0  0  0  0  0  0  0  0  0  0  0  0
    4.2247   -7.2061   39.5247 S   0  0  0  0  0  0  0  0  0  0  0  0
    3.2119   -8.5812   39.6465 C   0  0  0  0  0  0  0  0  0  0  0  0
    2.3508   -8.7447   38.6703 N   0  0  0  0  0  0  0  0  0  0  0  0
    1.5980   -5.8225   34.9297 H   0  0  0  0  0  0  0  0  0  0  0  0
    0.4026   -5.3090   37.6046 H   0  0  0  0  0  0  0  0  0  0  0  0
    0.4366   -4.2000   36.2606 H   0  0  0  0  0  0  0  0  0  0  0  0
   -1.4229   -6.2262   36.8823 H   0  0  0  0  0  0  0  0  0  0  0  0
   -0.3072   -7.9987   31.0529 H   0  0  0  0  0  0  0  0  0  0  0  0
    1.0974   -6.0875   30.3815 H   0  0  0  0  0  0  0  0  0  0  0  0
    1.2397   -4.0344   31.7667 H   0  0  0  0  0  0  0  0  0  0  0  0
    0.0481   -3.9948   33.9781 H   0  0  0  0  0  0  0  0  0  0  0  0
    3.7762   -5.9117   37.4895 H   0  0  0  0  0  0  0  0  0  0  0  0
    3.2774   -9.2670   40.4822 H   0  0  0  0  0  0  0  0  0  0  0  0
  1  2  2  0
  2  3  2  0
  2  4  1  0
  4  5  1  0
  5  6  1  0
  6  7  1  0
  7  8  2  0
  8  9  1  0
  9 10  2  0
 10 11  1  0
 11 12  2  0
 12 13  1  0
 13 14  2  0
 14 15  1  0
  2 16  1  0
 16 17  2  0
 17 18  1  0
 18 19  1  0
 19 20  2  0
 15  7  1  0
 20 16  1  0
 15 10  1  0
  4 21  1  0
  5 22  1  0
  5 23  1  0
  6 24  1  0
 11 25  1  0
 12 26  1  0
 13 27  1  0
 14 28  1  0
 17 29  1  0
 19 30  1  0
M  END
>  <Energy>  (645) 
-20.603479020351408

>  <compound_id>  (645) 
908

>  <target_id>  (645) 
1

>  <reference_id>  (645) 
72

>  <inspiration_ids>  (645) 
[72, 145]

>  <energy_score>  (645) 
-81.16201684250191

>  <distance_score>  (645) 
2.0391339275670433

>  <path>  (645) 
/opt/xchem-fragalysis-2/maxwin/BulkDock/SCRATCH/505733/C908-P72/C908-P72.minimised.mol

>  <scratch_subdir>  (645) 
/opt/xchem-fragalysis-2/maxwin/BulkDock/SCRATCH/505733/C908-P72

>  <fragmenstein_runtime>  (645) 
1.4125025272369385

>  <fragmenstein_outcome>  (645) 
too moved

>  <fragmenstein_mode>  (645) 
expansion

>  <fragmenstein_error>  (645) 


$$$$
C908-P145
     RDKit          3D

 30 32  0  0  0  0  0  0  0  0999 V2000
    2.5672   -8.1322   35.2814 O   0  0  0  0  0  0  0  0  0  0  0  0
    1.6615   -7.5595   36.2558 S   0  0  0  0  0  0  0  0  0  0  0  0
    0.3738   -8.1396   36.5404 O   0  0  0  0  0  0  0  0  0  0  0  0
    1.5148   -5.9294   35.8625 N   0  0  0  0  0  0  0  0  0  0  0  0
    0.4687   -5.2059   36.5530 C   0  0  0  0  0  0  0  0  0  0  0  0
   -0.8475   -5.6533   36.1879 N   0  0  0  0  0  0  0  0  0  0  0  0
   -1.0794   -6.2746   34.9864 C   0  0  0  0  0  0  0  0  0  0  0  0
   -1.7746   -7.3840   34.7985 N   0  0  0  0  0  0  0  0  0  0  0  0
   -1.6238   -7.8006   33.5034 N   0  0  0  0  0  0  0  0  0  0  0  0
   -0.8987   -6.8974   32.8992 C   0  0  0  0  0  0  0  0  0  0  0  0
   -0.4554   -6.7811   31.5697 C   0  0  0  0  0  0  0  0  0  0  0  0
    0.2271   -5.6824   31.2023 C   0  0  0  0  0  0  0  0  0  0  0  0
    0.5296   -4.6073   32.1235 C   0  0  0  0  0  0  0  0  0  0  0  0
    0.1074   -4.7204   33.3861 C   0  0  0  0  0  0  0  0  0  0  0  0
   -0.5774   -5.8692   33.7695 N   0  0  0  0  0  0  0  0  0  0  0  0
    2.4792   -7.6616   37.7870 C   0  0  0  0  0  0  0  0  0  0  0  0
    2.0203   -8.4377   38.8306 C   0  0  0  0  0  0  0  0  0  0  0  0
    3.1060   -8.3462   40.1442 S   0  0  0  0  0  0  0  0  0  0  0  0
    4.0621   -7.2448   39.2570 C   0  0  0  0  0  0  0  0  0  0  0  0
    3.6215   -6.9200   38.0613 N   0  0  0  0  0  0  0  0  0  0  0  0
    2.4317   -5.4902   35.9572 H   0  0  0  0  0  0  0  0  0  0  0  0
    0.6077   -5.2778   37.6381 H   0  0  0  0  0  0  0  0  0  0  0  0
    0.5673   -4.1397   36.3236 H   0  0  0  0  0  0  0  0  0  0  0  0
   -1.2218   -6.2477   36.9289 H   0  0  0  0  0  0  0  0  0  0  0  0
   -0.6752   -7.5807   30.8733 H   0  0  0  0  0  0  0  0  0  0  0  0
    0.5657   -5.5601   30.1799 H   0  0  0  0  0  0  0  0  0  0  0  0
    1.0558   -3.7281   31.7678 H   0  0  0  0  0  0  0  0  0  0  0  0
    0.2517   -3.9442   34.1220 H   0  0  0  0  0  0  0  0  0  0  0  0
    1.1428   -9.0696   38.8718 H   0  0  0  0  0  0  0  0  0  0  0  0
    4.9711   -6.8274   39.6720 H   0  0  0  0  0  0  0  0  0  0  0  0
  1  2  2  0
  2  3  2  0
  2  4  1  0
  4  5  1  0
  5  6  1  0
  6  7  1  0
  7  8  2  0
  8  9  1  0
  9 10  2  0
 10 11  1  0
 11 12  2  0
 12 13  1  0
 13 14  2  0
 14 15  1  0
  2 16  1  0
 16 17  2  0
 17 18  1  0
 18 19  1  0
 19 20  2  0
 15  7  1  0
 20 16  1  0
 15 10  1  0
  4 21  1  0
  5 22  1  0
  5 23  1  0
  6 24  1  0
 11 25  1  0
 12 26  1  0
 13 27  1  0
 14 28  1  0
 17 29  1  0
 19 30  1  0
M  END
>  <Energy>  (646) 
-26.582967046768527

>  <compound_id>  (646) 
908

>  <target_id>  (646) 
1

>  <reference_id>  (646) 
145

>  <inspiration_ids>  (646) 
[72, 145]

>  <energy_score>  (646) 
-87.14150486891938

>  <distance_score>  (646) 
2.084755802923795

>  <path>  (646) 
/opt/xchem-fragalysis-2/maxwin/BulkDock/SCRATCH/505733/C908-P145/C908-P145.minimised.mol

>  <scratch_subdir>  (646) 
/opt/xchem-fragalysis-2/maxwin/BulkDock/SCRATCH/505733/C908-P145

>  <fragmenstein_runtime>  (646) 
1.4996204376220703

>  <fragmenstein_outcome>  (646) 
too moved

>  <fragmenstein_mode>  (646) 
expansion

>  <fragmenstein_error>  (646) 


$$$$
C910-P72
     RDKit          3D

 37 39  0  0  0  0  0  0  0  0999 V2000
    0.9400   -8.6875   37.0096 O   0  0  0  0  0  0  0  0  0  0  0  0
    1.2913   -7.3473   36.6235 S   0  0  0  0  0  0  0  0  0  0  0  0
    1.8128   -7.0736   35.3031 O   0  0  0  0  0  0  0  0  0  0  0  0
   -0.0104   -6.3943   36.9633 N   0  0  0  0  0  0  0  0  0  0  0  0
    0.0200   -4.9820   36.6634 C   0  0  0  0  0  0  0  0  0  0  0  0
   -0.1344   -4.7081   35.2617 N   0  0  0  0  0  0  0  0  0  0  0  0
   -0.7677   -5.6640   34.5228 C   0  0  0  0  0  0  0  0  0  0  0  0
   -1.6461   -6.5640   34.9359 N   0  0  0  0  0  0  0  0  0  0  0  0
   -1.7654   -7.5441   34.0023 N   0  0  0  0  0  0  0  0  0  0  0  0
   -1.0034   -7.2034   32.9992 C   0  0  0  0  0  0  0  0  0  0  0  0
   -0.7253   -7.8418   31.7831 C   0  0  0  0  0  0  0  0  0  0  0  0
    0.1409   -7.2641   30.9352 C   0  0  0  0  0  0  0  0  0  0  0  0
    0.7904   -5.9956   31.2233 C   0  0  0  0  0  0  0  0  0  0  0  0
    0.5209   -5.3866   32.3835 C   0  0  0  0  0  0  0  0  0  0  0  0
   -0.3701   -5.9990   33.2541 N   0  0  0  0  0  0  0  0  0  0  0  0
    2.3561   -6.7067   37.7529 N   0  0  0  0  0  0  0  0  0  0  0  0
    2.0198   -6.9527   39.1899 C   0  0  0  0  0  0  0  0  0  0  0  0
    2.5208   -8.3188   39.6748 C   0  0  0  0  0  0  0  0  0  0  0  0
    3.9202   -8.4931   39.4256 O   0  0  0  0  0  0  0  0  0  0  0  0
    4.1826   -8.3785   38.0261 C   0  0  0  0  0  0  0  0  0  0  0  0
    3.7929   -6.9826   37.5162 C   0  0  0  0  0  0  0  0  0  0  0  0
   -0.8514   -6.8306   36.5699 H   0  0  0  0  0  0  0  0  0  0  0  0
   -0.8096   -4.5097   37.2028 H   0  0  0  0  0  0  0  0  0  0  0  0
    0.9321   -4.5137   37.0477 H   0  0  0  0  0  0  0  0  0  0  0  0
    0.7141   -4.3104   34.8750 H   0  0  0  0  0  0  0  0  0  0  0  0
   -1.1828   -8.8015   31.5803 H   0  0  0  0  0  0  0  0  0  0  0  0
    0.3990   -7.7695   30.0083 H   0  0  0  0  0  0  0  0  0  0  0  0
    1.4733   -5.5720   30.4943 H   0  0  0  0  0  0  0  0  0  0  0  0
    0.9604   -4.4427   32.6743 H   0  0  0  0  0  0  0  0  0  0  0  0
    2.5094   -6.1600   39.7699 H   0  0  0  0  0  0  0  0  0  0  0  0
    0.9453   -6.8511   39.3708 H   0  0  0  0  0  0  0  0  0  0  0  0
    2.3714   -8.3938   40.7570 H   0  0  0  0  0  0  0  0  0  0  0  0
    1.9718   -9.1495   39.2210 H   0  0  0  0  0  0  0  0  0  0  0  0
    3.6567   -9.1738   37.4856 H   0  0  0  0  0  0  0  0  0  0  0  0
    5.2561   -8.5339   37.8787 H   0  0  0  0  0  0  0  0  0  0  0  0
    4.3671   -6.2207   38.0584 H   0  0  0  0  0  0  0  0  0  0  0  0
    4.0501   -6.8713   36.4585 H   0  0  0  0  0  0  0  0  0  0  0  0
  1  2  2  0
  2  3  2  0
  2  4  1  0
  4  5  1  0
  5  6  1  0
  6  7  1  0
  7  8  2  0
  8  9  1  0
  9 10  2  0
 10 11  1  0
 11 12  2  0
 12 13  1  0
 13 14  2  0
 14 15  1  0
  2 16  1  0
 16 17  1  0
 17 18  1  0
 18 19  1  0
 19 20  1  0
 20 21  1  0
 15  7  1  0
 21 16  1  0
 15 10  1  0
  4 22  1  0
  5 23  1  0
  5 24  1  0
  6 25  1  0
 11 26  1  0
 12 27  1  0
 13 28  1  0
 14 29  1  0
 17 30  1  0
 17 31  1  0
 18 32  1  0
 18 33  1  0
 20 34  1  0
 20 35  1  0
 21 36  1  0
 21 37  1  0
M  END
>  <Energy>  (647) 
-166.12542714642188

>  <compound_id>  (647) 
910

>  <target_id>  (647) 
1

>  <reference_id>  (647) 
72

>  <inspiration_ids>  (647) 
[72, 152]

>  <energy_score>  (647) 
-47.94658769716355

>  <distance_score>  (647) 
2.2149773843443814

>  <path>  (647) 
/opt/xchem-fragalysis-2/maxwin/BulkDock/SCRATCH/505733/C910-P72/C910-P72.minimised.mol

>  <scratch_subdir>  (647) 
/opt/xchem-fragalysis-2/maxwin/BulkDock/SCRATCH/505733/C910-P72

>  <fragmenstein_runtime>  (647) 
2.3252406120300293

>  <fragmenstein_outcome>  (647) 
too moved

>  <fragmenstein_mode>  (647) 
expansion

>  <fragmenstein_error>  (647) 


$$$$
C910-P152
     RDKit          3D

 37 39  0  0  0  0  0  0  0  0999 V2000
    0.4202   -8.2432   37.2761 O   0  0  0  0  0  0  0  0  0  0  0  0
    1.2137   -7.2023   36.6868 S   0  0  0  0  0  0  0  0  0  0  0  0
    1.7066   -7.2863   35.3271 O   0  0  0  0  0  0  0  0  0  0  0  0
    0.4012   -5.7889   36.9603 N   0  0  0  0  0  0  0  0  0  0  0  0
    0.7746   -4.6530   36.1792 C   0  0  0  0  0  0  0  0  0  0  0  0
   -0.1692   -4.4513   35.1154 N   0  0  0  0  0  0  0  0  0  0  0  0
   -0.7214   -5.5725   34.5634 C   0  0  0  0  0  0  0  0  0  0  0  0
   -1.4642   -6.4894   35.1629 N   0  0  0  0  0  0  0  0  0  0  0  0
   -1.7557   -7.4915   34.2877 N   0  0  0  0  0  0  0  0  0  0  0  0
   -1.1429   -7.1993   33.1729 C   0  0  0  0  0  0  0  0  0  0  0  0
   -1.0421   -7.8944   31.9597 C   0  0  0  0  0  0  0  0  0  0  0  0
   -0.3066   -7.3613   30.9706 C   0  0  0  0  0  0  0  0  0  0  0  0
    0.3781   -6.0842   31.1089 C   0  0  0  0  0  0  0  0  0  0  0  0
    0.2802   -5.4221   32.2670 C   0  0  0  0  0  0  0  0  0  0  0  0
   -0.4827   -5.9854   33.2791 N   0  0  0  0  0  0  0  0  0  0  0  0
    2.5270   -6.8938   37.6915 N   0  0  0  0  0  0  0  0  0  0  0  0
    3.7071   -7.7544   37.3954 C   0  0  0  0  0  0  0  0  0  0  0  0
    4.6420   -7.8276   38.5976 C   0  0  0  0  0  0  0  0  0  0  0  0
    4.0324   -8.4530   39.7306 O   0  0  0  0  0  0  0  0  0  0  0  0
    2.6157   -8.2194   39.8120 C   0  0  0  0  0  0  0  0  0  0  0  0
    2.1898   -6.8916   39.1578 C   0  0  0  0  0  0  0  0  0  0  0  0
   -0.6042   -5.9705   36.8869 H   0  0  0  0  0  0  0  0  0  0  0  0
    0.7595   -3.7709   36.8284 H   0  0  0  0  0  0  0  0  0  0  0  0
    1.7965   -4.7187   35.7894 H   0  0  0  0  0  0  0  0  0  0  0  0
    0.1621   -3.7377   34.4769 H   0  0  0  0  0  0  0  0  0  0  0  0
   -1.5299   -8.8575   31.8756 H   0  0  0  0  0  0  0  0  0  0  0  0
   -0.1814   -7.9079   30.0393 H   0  0  0  0  0  0  0  0  0  0  0  0
    0.9574   -5.7003   30.2759 H   0  0  0  0  0  0  0  0  0  0  0  0
    0.7670   -4.4751   32.4512 H   0  0  0  0  0  0  0  0  0  0  0  0
    4.2425   -7.3296   36.5398 H   0  0  0  0  0  0  0  0  0  0  0  0
    3.3800   -8.7667   37.1401 H   0  0  0  0  0  0  0  0  0  0  0  0
    5.5362   -8.4069   38.3466 H   0  0  0  0  0  0  0  0  0  0  0  0
    4.9758   -6.8273   38.8976 H   0  0  0  0  0  0  0  0  0  0  0  0
    2.3465   -8.2191   40.8728 H   0  0  0  0  0  0  0  0  0  0  0  0
    2.1081   -9.0692   39.3437 H   0  0  0  0  0  0  0  0  0  0  0  0
    2.7340   -6.0546   39.6118 H   0  0  0  0  0  0  0  0  0  0  0  0
    1.1252   -6.7104   39.3349 H   0  0  0  0  0  0  0  0  0  0  0  0
  1  2  2  0
  2  3  2  0
  2  4  1  0
  4  5  1  0
  5  6  1  0
  6  7  1  0
  7  8  2  0
  8  9  1  0
  9 10  2  0
 10 11  1  0
 11 12  2  0
 12 13  1  0
 13 14  2  0
 14 15  1  0
  2 16  1  0
 16 17  1  0
 17 18  1  0
 18 19  1  0
 19 20  1  0
 20 21  1  0
 15  7  1  0
 21 16  1  0
 15 10  1  0
  4 22  1  0
  5 23  1  0
  5 24  1  0
  6 25  1  0
 11 26  1  0
 12 27  1  0
 13 28  1  0
 14 29  1  0
 17 30  1  0
 17 31  1  0
 18 32  1  0
 18 33  1  0
 20 34  1  0
 20 35  1  0
 21 36  1  0
 21 37  1  0
M  END
>  <Energy>  (648) 
-157.30659053692318

>  <compound_id>  (648) 
910

>  <target_id>  (648) 
1

>  <reference_id>  (648) 
152

>  <inspiration_ids>  (648) 
[72, 152]

>  <energy_score>  (648) 
-39.12775108766607

>  <distance_score>  (648) 
2.0415924841658564

>  <path>  (648) 
/opt/xchem-fragalysis-2/maxwin/BulkDock/SCRATCH/505733/C910-P152/C910-P152.minimised.mol

>  <scratch_subdir>  (648) 
/opt/xchem-fragalysis-2/maxwin/BulkDock/SCRATCH/505733/C910-P152

>  <fragmenstein_runtime>  (648) 
2.4550769329071045

>  <fragmenstein_outcome>  (648) 
too moved

>  <fragmenstein_mode>  (648) 
expansion

>  <fragmenstein_error>  (648) 


$$$$
C914-P72
     RDKit          3D

 51 52  0  0  0  0  0  0  0  0999 V2000
   -0.8829   -1.9125   36.5050 C   0  0  0  0  0  0  0  0  0  0  0  0
   -0.9019   -3.2773   36.0358 N   0  0  0  0  0  0  0  0  0  0  0  0
   -0.4927   -3.5890   34.7414 C   0  0  0  0  0  0  0  0  0  0  0  0
   -0.5075   -2.2994   33.4426 C   0  0  0  0  0  0  0  0  0  0  0  0
   -0.2902   -2.7500   31.6765 C   0  0  0  0  0  0  0  0  0  0  0  0
   -0.0613   -4.5116   31.2339 C   0  0  0  0  0  0  0  0  0  0  0  0
    0.9041   -4.8310   30.1296 C   0  0  0  0  0  0  0  0  0  0  0  0
    2.2652   -4.7236   30.8274 C   0  0  0  0  0  0  0  0  0  0  0  0
    2.1042   -5.0041   32.2988 N   0  0  0  0  0  0  0  0  0  0  0  0
    1.2830   -3.8611   33.1032 S   0  0  0  0  0  0  0  0  0  0  0  0
   -1.1348   -4.1332   32.8950 N   0  0  0  0  0  0  0  0  0  0  0  0
    1.6980   -2.5083   32.6716 O   0  0  0  0  0  0  0  0  0  0  0  0
    2.1121   -3.7932   34.7364 C   0  0  0  0  0  0  0  0  0  0  0  0
    2.4301   -5.0491   35.5008 C   0  0  0  0  0  0  0  0  0  0  0  0
    2.0612   -5.1228   36.8529 C   0  0  0  0  0  0  0  0  0  0  0  0
    2.3079   -6.2681   37.6111 C   0  0  0  0  0  0  0  0  0  0  0  0
    2.9921   -7.3439   37.0517 C   0  0  0  0  0  0  0  0  0  0  0  0
    3.1362   -8.6250   37.8069 C   0  0  0  0  0  0  0  0  0  0  0  0
    3.4669   -7.2222   35.7470 C   0  0  0  0  0  0  0  0  0  0  0  0
    4.1163   -8.2483   35.1795 F   0  0  0  0  0  0  0  0  0  0  0  0
    3.2078   -6.0856   34.9814 C   0  0  0  0  0  0  0  0  0  0  0  0
   -0.1511   -5.8118   32.5271 C   0  0  0  0  0  0  0  0  0  0  0  0
   -0.3499   -5.3401   34.2610 C   0  0  0  0  0  0  0  0  0  0  0  0
   -0.8952   -6.5929   35.3952 S   0  0  0  0  0  0  0  0  0  0  0  0
    0.1132   -7.9659   35.0358 C   0  0  0  0  0  0  0  0  0  0  0  0
   -0.6260   -6.1246   36.7401 O   0  0  0  0  0  0  0  0  0  0  0  0
   -2.2282   -7.0297   35.0392 O   0  0  0  0  0  0  0  0  0  0  0  0
    0.1225   -1.4840   36.4468 H   0  0  0  0  0  0  0  0  0  0  0  0
   -1.5785   -1.2874   35.9368 H   0  0  0  0  0  0  0  0  0  0  0  0
   -1.1997   -1.8847   37.5522 H   0  0  0  0  0  0  0  0  0  0  0  0
   -0.7194   -4.0046   36.7331 H   0  0  0  0  0  0  0  0  0  0  0  0
   -0.6316   -1.2514   33.7031 H   0  0  0  0  0  0  0  0  0  0  0  0
   -0.1265   -1.9640   30.9402 H   0  0  0  0  0  0  0  0  0  0  0  0
    0.8105   -4.1452   29.2842 H   0  0  0  0  0  0  0  0  0  0  0  0
    0.7216   -5.8533   29.7888 H   0  0  0  0  0  0  0  0  0  0  0  0
    2.9602   -5.4445   30.3880 H   0  0  0  0  0  0  0  0  0  0  0  0
    2.7089   -3.7325   30.6772 H   0  0  0  0  0  0  0  0  0  0  0  0
   -1.6241   -3.9118   32.0261 H   0  0  0  0  0  0  0  0  0  0  0  0
   -1.8288   -3.7966   33.5927 H   0  0  0  0  0  0  0  0  0  0  0  0
    1.6956   -3.0007   35.3623 H   0  0  0  0  0  0  0  0  0  0  0  0
    3.1040   -3.3793   34.4873 H   0  0  0  0  0  0  0  0  0  0  0  0
    1.5259   -4.3018   37.3275 H   0  0  0  0  0  0  0  0  0  0  0  0
    1.9313   -6.3190   38.6312 H   0  0  0  0  0  0  0  0  0  0  0  0
    3.0889   -8.4560   38.8879 H   0  0  0  0  0  0  0  0  0  0  0  0
    2.3368   -9.3180   37.5259 H   0  0  0  0  0  0  0  0  0  0  0  0
    4.1026   -9.0946   37.5958 H   0  0  0  0  0  0  0  0  0  0  0  0
    3.6093   -6.0346   33.9750 H   0  0  0  0  0  0  0  0  0  0  0  0
    0.0017   -6.8516   32.2559 H   0  0  0  0  0  0  0  0  0  0  0  0
    1.1342   -7.6643   34.8711 H   0  0  0  0  0  0  0  0  0  0  0  0
   -0.2790   -8.3896   34.1113 H   0  0  0  0  0  0  0  0  0  0  0  0
    0.0473   -8.6805   35.8572 H   0  0  0  0  0  0  0  0  0  0  0  0
  1  2  1  0
  2  3  1  0
  3  4  2  0
  4  5  1  0
  5  6  2  0
  6  7  1  0
  7  8  1  0
  8  9  1  0
  9 10  2  0
 10 11  1  0
 10 12  2  0
 10 13  1  0
 13 14  1  0
 14 15  2  0
 15 16  1  0
 16 17  2  0
 17 18  1  0
 17 19  1  0
 19 20  1  0
 19 21  2  0
  6 22  1  0
 22 23  2  0
 23 24  1  0
 24 25  1  0
 24 26  2  0
 24 27  2  0
 23  3  1  0
 21 14  1  0
  1 28  1  0
  1 29  1  0
  1 30  1  0
  2 31  1  0
  4 32  1  0
  5 33  1  0
  7 34  1  0
  7 35  1  0
  8 36  1  0
  8 37  1  0
 11 38  1  0
 11 39  1  0
 13 40  1  0
 13 41  1  0
 15 42  1  0
 16 43  1  0
 18 44  1  0
 18 45  1  0
 18 46  1  0
 21 47  1  0
 22 48  1  0
 25 49  1  0
 25 50  1  0
 25 51  1  0
M  END
>  <Energy>  (649) 
979.44488525373606

>  <compound_id>  (649) 
914

>  <target_id>  (649) 
1

>  <reference_id>  (649) 
72

>  <inspiration_ids>  (649) 
[72, 158]

>  <energy_score>  (649) 
918.9338883272876

>  <distance_score>  (649) 
3.1578042013797236

>  <path>  (649) 
/opt/xchem-fragalysis-2/maxwin/BulkDock/SCRATCH/505733/C914-P72/C914-P72.minimised.mol

>  <scratch_subdir>  (649) 
/opt/xchem-fragalysis-2/maxwin/BulkDock/SCRATCH/505733/C914-P72

>  <fragmenstein_runtime>  (649) 
9.876786708831787

>  <fragmenstein_outcome>  (649) 
too moved

>  <fragmenstein_mode>  (649) 
expansion

>  <fragmenstein_error>  (649) 


$$$$
C914-P158
     RDKit          3D

 51 52  0  0  0  0  0  0  0  0999 V2000
   -1.2812   -2.7927   34.8329 C   0  0  0  0  0  0  0  0  0  0  0  0
   -0.9607   -4.1172   34.3165 N   0  0  0  0  0  0  0  0  0  0  0  0
   -0.7170   -4.3352   32.9650 C   0  0  0  0  0  0  0  0  0  0  0  0
   -0.5143   -3.2539   32.1055 C   0  0  0  0  0  0  0  0  0  0  0  0
    0.0856   -3.4047   30.8651 C   0  0  0  0  0  0  0  0  0  0  0  0
    0.5930   -4.6434   30.4987 C   0  0  0  0  0  0  0  0  0  0  0  0
    1.7984   -4.6459   29.5791 C   0  0  0  0  0  0  0  0  0  0  0  0
    2.9905   -3.8897   30.2450 C   0  0  0  0  0  0  0  0  0  0  0  0
    3.2032   -4.3917   31.6238 N   0  0  0  0  0  0  0  0  0  0  0  0
    3.9505   -3.5621   32.6593 S   0  0  0  0  0  0  0  0  0  0  0  0
    2.7996   -2.3780   32.9790 N   0  0  0  0  0  0  0  0  0  0  0  0
    5.1272   -2.7710   32.3810 O   0  0  0  0  0  0  0  0  0  0  0  0
    4.2824   -4.5334   34.1281 C   0  0  0  0  0  0  0  0  0  0  0  0
    3.0719   -5.0976   34.8458 C   0  0  0  0  0  0  0  0  0  0  0  0
    2.9443   -6.4767   35.0539 C   0  0  0  0  0  0  0  0  0  0  0  0
    1.9013   -6.9988   35.8381 C   0  0  0  0  0  0  0  0  0  0  0  0
    0.9675   -6.1625   36.4412 C   0  0  0  0  0  0  0  0  0  0  0  0
   -0.1490   -6.7086   37.2679 C   0  0  0  0  0  0  0  0  0  0  0  0
    1.1512   -4.7968   36.3059 C   0  0  0  0  0  0  0  0  0  0  0  0
    0.3774   -3.9477   36.9996 F   0  0  0  0  0  0  0  0  0  0  0  0
    2.1652   -4.2675   35.5080 C   0  0  0  0  0  0  0  0  0  0  0  0
    0.2119   -5.7716   31.2254 C   0  0  0  0  0  0  0  0  0  0  0  0
   -0.4653   -5.6115   32.4459 C   0  0  0  0  0  0  0  0  0  0  0  0
   -0.7809   -7.0850   33.3674 S   0  0  0  0  0  0  0  0  0  0  0  0
   -1.6500   -8.1394   32.2590 C   0  0  0  0  0  0  0  0  0  0  0  0
    0.5258   -7.6718   33.5625 O   0  0  0  0  0  0  0  0  0  0  0  0
   -1.6856   -6.8111   34.4652 O   0  0  0  0  0  0  0  0  0  0  0  0
   -1.5534   -2.8709   35.8902 H   0  0  0  0  0  0  0  0  0  0  0  0
   -0.4154   -2.1260   34.7645 H   0  0  0  0  0  0  0  0  0  0  0  0
   -2.1308   -2.3432   34.3081 H   0  0  0  0  0  0  0  0  0  0  0  0
   -1.6100   -4.8197   34.7020 H   0  0  0  0  0  0  0  0  0  0  0  0
   -0.7370   -2.2368   32.4180 H   0  0  0  0  0  0  0  0  0  0  0  0
    0.3224   -2.5099   30.2912 H   0  0  0  0  0  0  0  0  0  0  0  0
    1.5415   -4.1609   28.6298 H   0  0  0  0  0  0  0  0  0  0  0  0
    2.0858   -5.6752   29.3398 H   0  0  0  0  0  0  0  0  0  0  0  0
    3.8984   -4.0428   29.6515 H   0  0  0  0  0  0  0  0  0  0  0  0
    2.7818   -2.8136   30.2507 H   0  0  0  0  0  0  0  0  0  0  0  0
    3.0845   -1.8820   33.8107 H   0  0  0  0  0  0  0  0  0  0  0  0
    1.9413   -2.8830   33.1752 H   0  0  0  0  0  0  0  0  0  0  0  0
    4.8434   -3.8939   34.8192 H   0  0  0  0  0  0  0  0  0  0  0  0
    4.9588   -5.3355   33.8111 H   0  0  0  0  0  0  0  0  0  0  0  0
    3.6627   -7.1700   34.6243 H   0  0  0  0  0  0  0  0  0  0  0  0
    1.8174   -8.0718   35.9661 H   0  0  0  0  0  0  0  0  0  0  0  0
   -0.4412   -7.7043   36.9186 H   0  0  0  0  0  0  0  0  0  0  0  0
    0.1583   -6.7817   38.3156 H   0  0  0  0  0  0  0  0  0  0  0  0
   -1.0330   -6.0663   37.2032 H   0  0  0  0  0  0  0  0  0  0  0  0
    2.2615   -3.1880   35.4986 H   0  0  0  0  0  0  0  0  0  0  0  0
    0.5932   -6.7457   30.9404 H   0  0  0  0  0  0  0  0  0  0  0  0
   -0.9632   -8.5305   31.5091 H   0  0  0  0  0  0  0  0  0  0  0  0
   -2.4474   -7.5946   31.7760 H   0  0  0  0  0  0  0  0  0  0  0  0
   -2.0756   -8.9488   32.8410 H   0  0  0  0  0  0  0  0  0  0  0  0
  1  2  1  0
  2  3  1  0
  3  4  2  0
  4  5  1  0
  5  6  2  0
  6  7  1  0
  7  8  1  0
  8  9  1  0
  9 10  2  0
 10 11  1  0
 10 12  2  0
 10 13  1  0
 13 14  1  0
 14 15  2  0
 15 16  1  0
 16 17  2  0
 17 18  1  0
 17 19  1  0
 19 20  1  0
 19 21  2  0
  6 22  1  0
 22 23  2  0
 23 24  1  0
 24 25  1  0
 24 26  2  0
 24 27  2  0
 23  3  1  0
 21 14  1  0
  1 28  1  0
  1 29  1  0
  1 30  1  0
  2 31  1  0
  4 32  1  0
  5 33  1  0
  7 34  1  0
  7 35  1  0
  8 36  1  0
  8 37  1  0
 11 38  1  0
 11 39  1  0
 13 40  1  0
 13 41  1  0
 15 42  1  0
 16 43  1  0
 18 44  1  0
 18 45  1  0
 18 46  1  0
 21 47  1  0
 22 48  1  0
 25 49  1  0
 25 50  1  0
 25 51  1  0
M  END
>  <Energy>  (650) 
29.428713525817681

>  <compound_id>  (650) 
914

>  <target_id>  (650) 
1

>  <reference_id>  (650) 
158

>  <inspiration_ids>  (650) 
[72, 158]

>  <energy_score>  (650) 
-35.80301036767651

>  <distance_score>  (650) 
2.4210027357279067

>  <path>  (650) 
/opt/xchem-fragalysis-2/maxwin/BulkDock/SCRATCH/505733/C914-P158/C914-P158.minimised.mol

>  <scratch_subdir>  (650) 
/opt/xchem-fragalysis-2/maxwin/BulkDock/SCRATCH/505733/C914-P158

>  <fragmenstein_runtime>  (650) 
6.832709550857544

>  <fragmenstein_outcome>  (650) 
too moved

>  <fragmenstein_mode>  (650) 
expansion

>  <fragmenstein_error>  (650) 


$$$$
C917-P72
     RDKit          3D

 35 35  0  0  0  0  0  0  0  0999 V2000
    1.7733   -3.2140   33.2666 C   0  0  0  0  0  0  0  0  0  0  0  0
    2.0068   -4.6778   32.9984 C   0  0  0  0  0  0  0  0  0  0  0  0
    2.7227   -5.0463   32.0638 O   0  0  0  0  0  0  0  0  0  0  0  0
    1.3193   -5.7150   33.8946 C   0  0  0  0  0  0  0  0  0  0  0  0
    1.7595   -6.9830   33.5561 F   0  0  0  0  0  0  0  0  0  0  0  0
    1.6300   -5.5080   35.3800 C   0  0  0  0  0  0  0  0  0  0  0  0
    0.9661   -6.5504   36.3084 C   0  0  0  0  0  0  0  0  0  0  0  0
    1.6340   -7.9375   36.3337 C   0  0  0  0  0  0  0  0  0  0  0  0
    3.3692   -7.8974   36.7635 S   0  0  0  0  0  0  0  0  0  0  0  0
    3.6822   -9.5037   37.1013 N   0  0  0  0  0  0  0  0  0  0  0  0
    4.1308   -7.6010   35.5729 O   0  0  0  0  0  0  0  0  0  0  0  0
    3.5492   -7.1853   38.0038 O   0  0  0  0  0  0  0  0  0  0  0  0
   -0.5329   -6.6950   35.9757 C   0  0  0  0  0  0  0  0  0  0  0  0
   -0.8124   -6.8847   34.4839 C   0  0  0  0  0  0  0  0  0  0  0  0
   -0.1846   -5.7462   33.6727 C   0  0  0  0  0  0  0  0  0  0  0  0
   -0.5652   -5.8149   32.1872 C   0  0  0  0  0  0  0  0  0  0  0  0
    0.0390   -6.9253   31.4892 N   0  0  0  0  0  0  0  0  0  0  0  0
   -1.3633   -4.9992   31.8157 O   0  0  0  0  0  0  0  0  0  0  0  0
    2.2438   -2.9283   34.2098 H   0  0  0  0  0  0  0  0  0  0  0  0
    2.2211   -2.6230   32.4621 H   0  0  0  0  0  0  0  0  0  0  0  0
    0.7037   -2.9972   33.2938 H   0  0  0  0  0  0  0  0  0  0  0  0
    1.2644   -4.5184   35.6863 H   0  0  0  0  0  0  0  0  0  0  0  0
    2.7118   -5.4744   35.5361 H   0  0  0  0  0  0  0  0  0  0  0  0
    1.0373   -6.1540   37.3307 H   0  0  0  0  0  0  0  0  0  0  0  0
    1.5593   -8.4465   35.3729 H   0  0  0  0  0  0  0  0  0  0  0  0
    1.1441   -8.5576   37.0933 H   0  0  0  0  0  0  0  0  0  0  0  0
    3.8625   -9.6294   38.1011 H   0  0  0  0  0  0  0  0  0  0  0  0
    4.4499   -9.8509   36.5213 H   0  0  0  0  0  0  0  0  0  0  0  0
   -1.0557   -5.7917   36.3165 H   0  0  0  0  0  0  0  0  0  0  0  0
   -0.9637   -7.5320   36.5343 H   0  0  0  0  0  0  0  0  0  0  0  0
   -0.4356   -7.8593   34.1549 H   0  0  0  0  0  0  0  0  0  0  0  0
   -1.8912   -6.9156   34.3200 H   0  0  0  0  0  0  0  0  0  0  0  0
   -0.6079   -4.8000   34.0414 H   0  0  0  0  0  0  0  0  0  0  0  0
    0.5971   -7.4865   32.1638 H   0  0  0  0  0  0  0  0  0  0  0  0
    0.7763   -7.3457   32.0935 H   0  0  0  0  0  0  0  0  0  0  0  0
  1  2  1  0
  2  3  2  0
  2  4  1  0
  4  5  1  0
  4  6  1  0
  6  7  1  0
  7  8  1  0
  8  9  1  0
  9 10  1  0
  9 11  2  0
  9 12  2  0
  7 13  1  0
 13 14  1  0
 14 15  1  0
 15 16  1  0
 16 17  1  0
 16 18  2  0
 15  4  1  0
  1 19  1  0
  1 20  1  0
  1 21  1  0
  6 22  1  0
  6 23  1  0
  7 24  1  0
  8 25  1  0
  8 26  1  0
 10 27  1  0
 10 28  1  0
 13 29  1  0
 13 30  1  0
 14 31  1  0
 14 32  1  0
 15 33  1  0
 17 34  1  0
 17 35  1  0
M  END
>  <Energy>  (651) 
88.869893988181659

>  <compound_id>  (651) 
917

>  <target_id>  (651) 
1

>  <reference_id>  (651) 
72

>  <inspiration_ids>  (651) 
[72, 163]

>  <energy_score>  (651) 
118.25734377743188

>  <distance_score>  (651) 
1.787574019884612

>  <path>  (651) 
/opt/xchem-fragalysis-2/maxwin/BulkDock/SCRATCH/505733/C917-P72/C917-P72.minimised.mol

>  <scratch_subdir>  (651) 
/opt/xchem-fragalysis-2/maxwin/BulkDock/SCRATCH/505733/C917-P72

>  <fragmenstein_runtime>  (651) 
3.4629340171813965

>  <fragmenstein_outcome>  (651) 
too moved

>  <fragmenstein_mode>  (651) 
expansion

>  <fragmenstein_error>  (651) 


$$$$
C917-P163
     RDKit          3D

 35 35  0  0  0  0  0  0  0  0999 V2000
    1.4438   -3.7238   32.3908 C   0  0  0  0  0  0  0  0  0  0  0  0
    1.4802   -5.1393   32.9050 C   0  0  0  0  0  0  0  0  0  0  0  0
    2.0537   -6.0250   32.2584 O   0  0  0  0  0  0  0  0  0  0  0  0
    0.8702   -5.4596   34.2859 C   0  0  0  0  0  0  0  0  0  0  0  0
    1.9319   -5.7259   35.1326 F   0  0  0  0  0  0  0  0  0  0  0  0
    0.1048   -4.3028   34.9436 C   0  0  0  0  0  0  0  0  0  0  0  0
   -0.6244   -4.6795   36.2538 C   0  0  0  0  0  0  0  0  0  0  0  0
   -0.3405   -3.6959   37.3988 C   0  0  0  0  0  0  0  0  0  0  0  0
   -1.1554   -2.1155   37.1554 S   0  0  0  0  0  0  0  0  0  0  0  0
   -0.7064   -1.2943   38.5463 N   0  0  0  0  0  0  0  0  0  0  0  0
   -0.5265   -1.3991   36.0712 O   0  0  0  0  0  0  0  0  0  0  0  0
   -2.5866   -2.2780   37.2536 O   0  0  0  0  0  0  0  0  0  0  0  0
   -0.3156   -6.1107   36.6926 C   0  0  0  0  0  0  0  0  0  0  0  0
   -0.6367   -7.0927   35.5734 C   0  0  0  0  0  0  0  0  0  0  0  0
    0.0473   -6.7679   34.2335 C   0  0  0  0  0  0  0  0  0  0  0  0
   -0.9664   -6.7765   33.0654 C   0  0  0  0  0  0  0  0  0  0  0  0
   -1.5889   -8.0824   32.9233 N   0  0  0  0  0  0  0  0  0  0  0  0
   -1.0966   -5.7760   32.4176 O   0  0  0  0  0  0  0  0  0  0  0  0
    1.9738   -3.0635   33.0808 H   0  0  0  0  0  0  0  0  0  0  0  0
    1.9444   -3.6797   31.4188 H   0  0  0  0  0  0  0  0  0  0  0  0
    0.4118   -3.3943   32.2551 H   0  0  0  0  0  0  0  0  0  0  0  0
   -0.6361   -3.8849   34.2520 H   0  0  0  0  0  0  0  0  0  0  0  0
    0.8239   -3.5000   35.1449 H   0  0  0  0  0  0  0  0  0  0  0  0
   -1.7001   -4.6380   36.0526 H   0  0  0  0  0  0  0  0  0  0  0  0
    0.7326   -3.5085   37.5070 H   0  0  0  0  0  0  0  0  0  0  0  0
   -0.7305   -4.0892   38.3444 H   0  0  0  0  0  0  0  0  0  0  0  0
   -1.5286   -1.1030   39.1224 H   0  0  0  0  0  0  0  0  0  0  0  0
   -0.1752   -0.4557   38.3046 H   0  0  0  0  0  0  0  0  0  0  0  0
   -0.9088   -6.3629   37.5775 H   0  0  0  0  0  0  0  0  0  0  0  0
    0.7313   -6.2095   37.0023 H   0  0  0  0  0  0  0  0  0  0  0  0
   -0.3398   -8.0962   35.8975 H   0  0  0  0  0  0  0  0  0  0  0  0
   -1.7242   -7.1267   35.4463 H   0  0  0  0  0  0  0  0  0  0  0  0
    0.7609   -7.5744   34.0231 H   0  0  0  0  0  0  0  0  0  0  0  0
   -1.3251   -8.6768   33.7404 H   0  0  0  0  0  0  0  0  0  0  0  0
   -1.1475   -8.7449   33.5962 H   0  0  0  0  0  0  0  0  0  0  0  0
  1  2  1  0
  2  3  2  0
  2  4  1  0
  4  5  1  0
  4  6  1  0
  6  7  1  0
  7  8  1  0
  8  9  1  0
  9 10  1  0
  9 11  2  0
  9 12  2  0
  7 13  1  0
 13 14  1  0
 14 15  1  0
 15 16  1  0
 16 17  1  0
 16 18  2  0
 15  4  1  0
  1 19  1  0
  1 20  1  0
  1 21  1  0
  6 22  1  0
  6 23  1  0
  7 24  1  0
  8 25  1  0
  8 26  1  0
 10 27  1  0
 10 28  1  0
 13 29  1  0
 13 30  1  0
 14 31  1  0
 14 32  1  0
 15 33  1  0
 17 34  1  0
 17 35  1  0
M  END
>  <Energy>  (652) 
93.63161939388047

>  <compound_id>  (652) 
917

>  <target_id>  (652) 
1

>  <reference_id>  (652) 
163

>  <inspiration_ids>  (652) 
[72, 163]

>  <energy_score>  (652) 
123.01906918312974

>  <distance_score>  (652) 
2.041625108118966

>  <path>  (652) 
/opt/xchem-fragalysis-2/maxwin/BulkDock/SCRATCH/505733/C917-P163/C917-P163.minimised.mol

>  <scratch_subdir>  (652) 
/opt/xchem-fragalysis-2/maxwin/BulkDock/SCRATCH/505733/C917-P163

>  <fragmenstein_runtime>  (652) 
3.4697813987731934

>  <fragmenstein_outcome>  (652) 
too moved

>  <fragmenstein_mode>  (652) 
expansion

>  <fragmenstein_error>  (652) 


$$$$
C921-P72
     RDKit          3D

 57 59  0  0  0  0  0  0  0  0999 V2000
   -1.2361   -7.6858   33.7950 C   0  0  0  0  0  0  0  0  0  0  0  0
   -0.2401   -6.9489   32.9698 C   0  0  0  0  0  0  0  0  0  0  0  0
    0.8452   -6.3004   33.5568 C   0  0  0  0  0  0  0  0  0  0  0  0
    1.7868   -5.6268   32.7552 C   0  0  0  0  0  0  0  0  0  0  0  0
    1.6638   -5.5680   31.3478 C   0  0  0  0  0  0  0  0  0  0  0  0
    2.7221   -4.8493   30.4919 C   0  0  0  0  0  0  0  0  0  0  0  0
    2.8181   -5.3498   28.7135 S   0  0  0  0  0  0  0  0  0  0  0  0
    1.6397   -4.4091   27.9634 N   0  0  0  0  0  0  0  0  0  0  0  0
    2.4123   -6.7185   28.4953 O   0  0  0  0  0  0  0  0  0  0  0  0
    3.9316   -4.6102   27.9721 N   0  0  0  0  0  0  0  0  0  0  0  0
    4.8966   -5.2917   27.0522 C   0  0  0  0  0  0  0  0  0  0  0  0
    5.9262   -6.0827   27.8915 C   0  0  0  0  0  0  0  0  0  0  0  0
    7.3786   -6.2739   27.3053 C   0  0  0  0  0  0  0  0  0  0  0  0
    8.2921   -6.9003   28.3712 N   0  0  0  0  0  0  0  0  0  0  0  0
    9.2192   -7.9364   28.1007 C   0  0  0  0  0  0  0  0  0  0  0  0
   10.2092   -8.2007   29.0801 C   0  0  0  0  0  0  0  0  0  0  0  0
   11.0661   -9.2993   29.0016 C   0  0  0  0  0  0  0  0  0  0  0  0
   10.9723  -10.1398   27.8978 C   0  0  0  0  0  0  0  0  0  0  0  0
   12.2065  -11.3963   27.6325 S   0  0  0  0  0  0  0  0  0  0  0  0
   12.2430  -12.3662   29.1131 C   0  0  0  0  0  0  0  0  0  0  0  0
   11.7221  -12.2487   26.5620 O   0  0  0  0  0  0  0  0  0  0  0  0
   13.4736  -10.7015   27.5163 O   0  0  0  0  0  0  0  0  0  0  0  0
   10.0152   -9.9036   26.9051 C   0  0  0  0  0  0  0  0  0  0  0  0
    9.1421   -8.8126   27.0140 C   0  0  0  0  0  0  0  0  0  0  0  0
    7.5178   -7.3843   29.5346 C   0  0  0  0  0  0  0  0  0  0  0  0
    6.3845   -8.2117   28.9443 C   0  0  0  0  0  0  0  0  0  0  0  0
    5.3410   -7.3957   28.3064 N   0  0  0  0  0  0  0  0  0  0  0  0
    0.5126   -6.1411   30.8104 C   0  0  0  0  0  0  0  0  0  0  0  0
   -0.3929   -6.8470   31.5973 C   0  0  0  0  0  0  0  0  0  0  0  0
   -1.4188   -7.4521   30.9871 F   0  0  0  0  0  0  0  0  0  0  0  0
   -0.7176   -8.2430   34.5792 H   0  0  0  0  0  0  0  0  0  0  0  0
   -1.8253   -8.3858   33.1977 H   0  0  0  0  0  0  0  0  0  0  0  0
   -1.9032   -6.9757   34.2861 H   0  0  0  0  0  0  0  0  0  0  0  0
    0.9794   -6.3194   34.6370 H   0  0  0  0  0  0  0  0  0  0  0  0
    2.6345   -5.1460   33.2439 H   0  0  0  0  0  0  0  0  0  0  0  0
    3.7218   -5.0122   30.8993 H   0  0  0  0  0  0  0  0  0  0  0  0
    2.5249   -3.7718   30.5061 H   0  0  0  0  0  0  0  0  0  0  0  0
    2.1759   -3.6033   27.6503 H   0  0  0  0  0  0  0  0  0  0  0  0
    0.9770   -4.0592   28.6432 H   0  0  0  0  0  0  0  0  0  0  0  0
    5.4160   -4.5094   26.4873 H   0  0  0  0  0  0  0  0  0  0  0  0
    4.3695   -5.9224   26.3278 H   0  0  0  0  0  0  0  0  0  0  0  0
    6.0533   -5.4820   28.8034 H   0  0  0  0  0  0  0  0  0  0  0  0
    7.3295   -6.8790   26.3961 H   0  0  0  0  0  0  0  0  0  0  0  0
    7.8043   -5.2996   27.0428 H   0  0  0  0  0  0  0  0  0  0  0  0
   10.3202   -7.5143   29.9195 H   0  0  0  0  0  0  0  0  0  0  0  0
   11.8422   -9.4260   29.7507 H   0  0  0  0  0  0  0  0  0  0  0  0
   11.2705  -12.8280   29.2684 H   0  0  0  0  0  0  0  0  0  0  0  0
   12.9975  -13.1456   28.9832 H   0  0  0  0  0  0  0  0  0  0  0  0
   12.5161  -11.7354   29.9599 H   0  0  0  0  0  0  0  0  0  0  0  0
    9.9542  -10.5475   26.0299 H   0  0  0  0  0  0  0  0  0  0  0  0
    8.3926   -8.6861   26.2402 H   0  0  0  0  0  0  0  0  0  0  0  0
    7.1625   -6.5453   30.1450 H   0  0  0  0  0  0  0  0  0  0  0  0
    8.0809   -8.0021   30.2458 H   0  0  0  0  0  0  0  0  0  0  0  0
    6.0071   -8.8521   29.7219 H   0  0  0  0  0  0  0  0  0  0  0  0
    6.7542   -8.9229   28.1974 H   0  0  0  0  0  0  0  0  0  0  0  0
    5.0658   -7.8757   27.4452 H   0  0  0  0  0  0  0  0  0  0  0  0
    0.2839   -6.0901   29.7546 H   0  0  0  0  0  0  0  0  0  0  0  0
  1  2  1  0
  2  3  2  0
  3  4  1  0
  4  5  2  0
  5  6  1  0
  6  7  1  0
  7  8  1  0
  7  9  2  0
  7 10  2  0
 10 11  1  0
 11 12  1  0
 12 13  1  0
 13 14  1  0
 14 15  1  0
 15 16  2  0
 16 17  1  0
 17 18  2  0
 18 19  1  0
 19 20  1  0
 19 21  2  0
 19 22  2  0
 18 23  1  0
 23 24  2  0
 14 25  1  0
 25 26  1  0
 26 27  1  0
  5 28  1  0
 28 29  2  0
 29 30  1  0
 29  2  1  0
 27 12  1  0
 24 15  1  0
  1 31  1  0
  1 32  1  0
  1 33  1  0
  3 34  1  0
  4 35  1  0
  6 36  1  0
  6 37  1  0
  8 38  1  0
  8 39  1  0
 11 40  1  0
 11 41  1  0
 12 42  1  0
 13 43  1  0
 13 44  1  0
 16 45  1  0
 17 46  1  0
 20 47  1  0
 20 48  1  0
 20 49  1  0
 23 50  1  0
 24 51  1  0
 25 52  1  0
 25 53  1  0
 26 54  1  0
 26 55  1  0
 27 56  1  0
 28 57  1  0
M  END
>  <Energy>  (653) 
125.42549031343079

>  <compound_id>  (653) 
921

>  <target_id>  (653) 
1

>  <reference_id>  (653) 
72

>  <inspiration_ids>  (653) 
[72, 175]

>  <energy_score>  (653) 
-29.411038885423977

>  <distance_score>  (653) 
2.203071707464749

>  <path>  (653) 
/opt/xchem-fragalysis-2/maxwin/BulkDock/SCRATCH/505733/C921-P72/C921-P72.minimised.mol

>  <scratch_subdir>  (653) 
/opt/xchem-fragalysis-2/maxwin/BulkDock/SCRATCH/505733/C921-P72

>  <fragmenstein_runtime>  (653) 
137.21705317497253

>  <fragmenstein_outcome>  (653) 
too moved

>  <fragmenstein_mode>  (653) 
expansion

>  <fragmenstein_error>  (653) 


$$$$
C921-P175
     RDKit          3D

 57 59  0  0  0  0  0  0  0  0999 V2000
   -1.3751   -7.6036   34.2041 C   0  0  0  0  0  0  0  0  0  0  0  0
   -0.5917   -6.9226   33.1411 C   0  0  0  0  0  0  0  0  0  0  0  0
    0.0646   -5.7221   33.4004 C   0  0  0  0  0  0  0  0  0  0  0  0
    0.7200   -5.0441   32.3628 C   0  0  0  0  0  0  0  0  0  0  0  0
    0.7551   -5.5712   31.0572 C   0  0  0  0  0  0  0  0  0  0  0  0
    1.0894   -4.7299   29.8362 C   0  0  0  0  0  0  0  0  0  0  0  0
    2.6358   -5.0271   28.9866 S   0  0  0  0  0  0  0  0  0  0  0  0
    3.7719   -4.7769   30.2033 N   0  0  0  0  0  0  0  0  0  0  0  0
    2.8782   -3.8624   28.1604 O   0  0  0  0  0  0  0  0  0  0  0  0
    2.9650   -6.4608   28.4750 N   0  0  0  0  0  0  0  0  0  0  0  0
    3.8377   -6.5249   27.2180 C   0  0  0  0  0  0  0  0  0  0  0  0
    5.3623   -6.1940   27.4203 C   0  0  0  0  0  0  0  0  0  0  0  0
    6.3222   -7.3502   26.9394 C   0  0  0  0  0  0  0  0  0  0  0  0
    7.6123   -7.3206   27.7011 N   0  0  0  0  0  0  0  0  0  0  0  0
    8.0531   -8.3423   28.5368 C   0  0  0  0  0  0  0  0  0  0  0  0
    8.6094   -8.0857   29.8066 C   0  0  0  0  0  0  0  0  0  0  0  0
    9.2847   -9.0599   30.5478 C   0  0  0  0  0  0  0  0  0  0  0  0
    9.4103  -10.3395   30.0313 C   0  0  0  0  0  0  0  0  0  0  0  0
   10.5535  -11.4604   30.8069 S   0  0  0  0  0  0  0  0  0  0  0  0
    9.5987  -12.8651   31.2717 C   0  0  0  0  0  0  0  0  0  0  0  0
   11.4972  -11.8663   29.7831 O   0  0  0  0  0  0  0  0  0  0  0  0
   11.0167  -10.8343   32.0320 O   0  0  0  0  0  0  0  0  0  0  0  0
    8.7682  -10.6666   28.8372 C   0  0  0  0  0  0  0  0  0  0  0  0
    8.0953   -9.6735   28.1014 C   0  0  0  0  0  0  0  0  0  0  0  0
    8.0891   -5.9423   27.9317 C   0  0  0  0  0  0  0  0  0  0  0  0
    7.0697   -5.1744   28.7916 C   0  0  0  0  0  0  0  0  0  0  0  0
    5.7453   -5.8294   28.8179 N   0  0  0  0  0  0  0  0  0  0  0  0
    0.1987   -6.8275   30.8582 C   0  0  0  0  0  0  0  0  0  0  0  0
   -0.4855   -7.4709   31.8730 C   0  0  0  0  0  0  0  0  0  0  0  0
   -1.1170   -8.6039   31.5583 F   0  0  0  0  0  0  0  0  0  0  0  0
   -1.9076   -6.8698   34.8166 H   0  0  0  0  0  0  0  0  0  0  0  0
   -0.6976   -8.1512   34.8638 H   0  0  0  0  0  0  0  0  0  0  0  0
   -2.1265   -8.2714   33.7802 H   0  0  0  0  0  0  0  0  0  0  0  0
    0.0169   -5.2693   34.3891 H   0  0  0  0  0  0  0  0  0  0  0  0
    1.1396   -4.0593   32.5647 H   0  0  0  0  0  0  0  0  0  0  0  0
    0.2748   -4.7650   29.1115 H   0  0  0  0  0  0  0  0  0  0  0  0
    1.1364   -3.6780   30.1502 H   0  0  0  0  0  0  0  0  0  0  0  0
    3.9893   -3.7872   30.1381 H   0  0  0  0  0  0  0  0  0  0  0  0
    4.6127   -5.2087   29.8133 H   0  0  0  0  0  0  0  0  0  0  0  0
    3.4154   -5.8557   26.4574 H   0  0  0  0  0  0  0  0  0  0  0  0
    3.7293   -7.5381   26.8151 H   0  0  0  0  0  0  0  0  0  0  0  0
    5.5561   -5.3194   26.7824 H   0  0  0  0  0  0  0  0  0  0  0  0
    5.8381   -8.3082   27.0844 H   0  0  0  0  0  0  0  0  0  0  0  0
    6.5337   -7.2353   25.8703 H   0  0  0  0  0  0  0  0  0  0  0  0
    8.5886   -7.0867   30.2323 H   0  0  0  0  0  0  0  0  0  0  0  0
    9.7684   -8.7747   31.4798 H   0  0  0  0  0  0  0  0  0  0  0  0
    8.7430  -12.5325   31.8611 H   0  0  0  0  0  0  0  0  0  0  0  0
    9.2912  -13.3881   30.3676 H   0  0  0  0  0  0  0  0  0  0  0  0
   10.2295  -13.5230   31.8736 H   0  0  0  0  0  0  0  0  0  0  0  0
    8.8383  -11.6669   28.4282 H   0  0  0  0  0  0  0  0  0  0  0  0
    7.6947   -9.9324   27.1240 H   0  0  0  0  0  0  0  0  0  0  0  0
    8.1670   -5.4502   26.9529 H   0  0  0  0  0  0  0  0  0  0  0  0
    9.0975   -5.8993   28.3592 H   0  0  0  0  0  0  0  0  0  0  0  0
    6.9758   -4.1427   28.4329 H   0  0  0  0  0  0  0  0  0  0  0  0
    7.4300   -5.1039   29.8238 H   0  0  0  0  0  0  0  0  0  0  0  0
    5.9023   -6.7327   29.2842 H   0  0  0  0  0  0  0  0  0  0  0  0
    0.1917   -7.2980   29.8868 H   0  0  0  0  0  0  0  0  0  0  0  0
  1  2  1  0
  2  3  2  0
  3  4  1  0
  4  5  2  0
  5  6  1  0
  6  7  1  0
  7  8  1  0
  7  9  2  0
  7 10  2  0
 10 11  1  0
 11 12  1  0
 12 13  1  0
 13 14  1  0
 14 15  1  0
 15 16  2  0
 16 17  1  0
 17 18  2  0
 18 19  1  0
 19 20  1  0
 19 21  2  0
 19 22  2  0
 18 23  1  0
 23 24  2  0
 14 25  1  0
 25 26  1  0
 26 27  1  0
  5 28  1  0
 28 29  2  0
 29 30  1  0
 29  2  1  0
 27 12  1  0
 24 15  1  0
  1 31  1  0
  1 32  1  0
  1 33  1  0
  3 34  1  0
  4 35  1  0
  6 36  1  0
  6 37  1  0
  8 38  1  0
  8 39  1  0
 11 40  1  0
 11 41  1  0
 12 42  1  0
 13 43  1  0
 13 44  1  0
 16 45  1  0
 17 46  1  0
 20 47  1  0
 20 48  1  0
 20 49  1  0
 23 50  1  0
 24 51  1  0
 25 52  1  0
 25 53  1  0
 26 54  1  0
 26 55  1  0
 27 56  1  0
 28 57  1  0
M  END
>  <Energy>  (654) 
114.81363031197471

>  <compound_id>  (654) 
921

>  <target_id>  (654) 
1

>  <reference_id>  (654) 
175

>  <inspiration_ids>  (654) 
[72, 175]

>  <energy_score>  (654) 
-40.022898886881364

>  <distance_score>  (654) 
2.038953225636109

>  <path>  (654) 
/opt/xchem-fragalysis-2/maxwin/BulkDock/SCRATCH/505733/C921-P175/C921-P175.minimised.mol

>  <scratch_subdir>  (654) 
/opt/xchem-fragalysis-2/maxwin/BulkDock/SCRATCH/505733/C921-P175

>  <fragmenstein_runtime>  (654) 
142.12697386741638

>  <fragmenstein_outcome>  (654) 
too moved

>  <fragmenstein_mode>  (654) 
expansion

>  <fragmenstein_error>  (654) 


$$$$
C924-P72
     RDKit          3D

 52 55  0  0  0  0  0  0  0  0999 V2000
    2.0267   -5.9085   31.1137 C   0  0  0  0  0  0  0  0  0  0  0  0
    0.8589   -6.0730   30.1673 C   0  0  0  0  0  0  0  0  0  0  0  0
    0.1738   -7.4390   29.9819 C   0  0  0  0  0  0  0  0  0  0  0  0
    1.0080   -8.3970   29.3569 O   0  0  0  0  0  0  0  0  0  0  0  0
   -0.7397   -8.0006   31.0388 C   0  0  0  0  0  0  0  0  0  0  0  0
   -1.9606   -7.0329   31.1599 C   0  0  0  0  0  0  0  0  0  0  0  0
   -3.1280   -7.4204   29.7817 C   0  0  0  0  0  0  0  0  0  0  0  0
   -5.2868   -7.8420   28.9593 S   0  0  0  0  0  0  0  0  0  0  0  0
   -6.5046   -8.9479   29.1474 N   0  0  0  0  0  0  0  0  0  0  0  0
   -4.9537   -8.0055   27.5883 O   0  0  0  0  0  0  0  0  0  0  0  0
   -6.0047   -6.5306   29.1209 O   0  0  0  0  0  0  0  0  0  0  0  0
   -1.2212   -5.4872   31.5387 C   0  0  0  0  0  0  0  0  0  0  0  0
   -0.6259   -5.7137   32.9468 C   0  0  0  0  0  0  0  0  0  0  0  0
    0.0821   -4.5631   33.5086 N   0  0  0  0  0  0  0  0  0  0  0  0
    1.2473   -4.7225   34.2848 C   0  0  0  0  0  0  0  0  0  0  0  0
    2.1683   -3.7408   34.4163 C   0  0  0  0  0  0  0  0  0  0  0  0
    3.4577   -4.0104   35.0308 C   0  0  0  0  0  0  0  0  0  0  0  0
    3.8254   -5.2562   35.3772 C   0  0  0  0  0  0  0  0  0  0  0  0
    2.9001   -6.3139   35.2254 C   0  0  0  0  0  0  0  0  0  0  0  0
    3.0060   -7.6197   35.3516 N   0  0  0  0  0  0  0  0  0  0  0  0
    1.7512   -8.1502   35.2356 N   0  0  0  0  0  0  0  0  0  0  0  0
    0.9196   -7.1528   35.0484 C   0  0  0  0  0  0  0  0  0  0  0  0
    1.6141   -5.9903   34.8200 N   0  0  0  0  0  0  0  0  0  0  0  0
   -0.7578   -3.3485   33.5594 C   0  0  0  0  0  0  0  0  0  0  0  0
   -1.5456   -3.1497   32.2514 C   0  0  0  0  0  0  0  0  0  0  0  0
   -2.1187   -4.3574   31.7034 O   0  0  0  0  0  0  0  0  0  0  0  0
   -0.1812   -5.0437   30.4906 C   0  0  0  0  0  0  0  0  0  0  0  0
   -0.8204   -4.7696   29.3201 F   0  0  0  0  0  0  0  0  0  0  0  0
    2.0076   -6.6125   31.9413 H   0  0  0  0  0  0  0  0  0  0  0  0
    2.1002   -4.8996   31.5310 H   0  0  0  0  0  0  0  0  0  0  0  0
    2.9423   -6.0047   30.5295 H   0  0  0  0  0  0  0  0  0  0  0  0
    1.2856   -5.7949   29.1957 H   0  0  0  0  0  0  0  0  0  0  0  0
   -0.5878   -7.2502   29.2437 H   0  0  0  0  0  0  0  0  0  0  0  0
    0.9112   -9.2399   29.8517 H   0  0  0  0  0  0  0  0  0  0  0  0
   -1.0558   -9.0145   30.7844 H   0  0  0  0  0  0  0  0  0  0  0  0
   -0.2195   -8.1469   31.9839 H   0  0  0  0  0  0  0  0  0  0  0  0
   -2.4252   -7.3969   32.0837 H   0  0  0  0  0  0  0  0  0  0  0  0
   -2.4812   -7.4662   28.9033 H   0  0  0  0  0  0  0  0  0  0  0  0
   -3.4822   -8.0559   30.6527 H   0  0  0  0  0  0  0  0  0  0  0  0
   -6.8513   -8.9594   28.1739 H   0  0  0  0  0  0  0  0  0  0  0  0
   -6.4749   -9.9498   29.2800 H   0  0  0  0  0  0  0  0  0  0  0  0
    0.0687   -6.5361   32.8848 H   0  0  0  0  0  0  0  0  0  0  0  0
   -1.4227   -5.9962   33.6435 H   0  0  0  0  0  0  0  0  0  0  0  0
    2.0288   -2.7539   33.9888 H   0  0  0  0  0  0  0  0  0  0  0  0
    4.1450   -3.1773   35.1507 H   0  0  0  0  0  0  0  0  0  0  0  0
    4.8036   -5.4680   35.7951 H   0  0  0  0  0  0  0  0  0  0  0  0
   -0.1562   -7.2290   35.0476 H   0  0  0  0  0  0  0  0  0  0  0  0
   -1.4404   -3.4437   34.4075 H   0  0  0  0  0  0  0  0  0  0  0  0
   -0.1652   -2.4463   33.7430 H   0  0  0  0  0  0  0  0  0  0  0  0
   -0.9268   -2.6645   31.4907 H   0  0  0  0  0  0  0  0  0  0  0  0
   -2.3769   -2.4608   32.4380 H   0  0  0  0  0  0  0  0  0  0  0  0
    0.3041   -4.1029   30.7566 H   0  0  0  0  0  0  0  0  0  0  0  0
  1  2  1  0
  2  3  1  0
  3  4  1  0
  3  5  1  0
  5  6  1  0
  6  7  1  0
  7  8  1  0
  8  9  1  0
  8 10  2  0
  8 11  2  0
  6 12  1  0
 12 13  1  0
 13 14  1  0
 14 15  1  0
 15 16  2  0
 16 17  1  0
 17 18  2  0
 18 19  1  0
 19 20  2  0
 20 21  1  0
 21 22  2  0
 22 23  1  0
 14 24  1  0
 24 25  1  0
 25 26  1  0
 12 27  1  0
 27 28  1  0
 27  2  1  0
 26 12  1  0
 23 15  1  0
 23 19  1  0
  1 29  1  0
  1 30  1  0
  1 31  1  0
  2 32  1  0
  3 33  1  0
  4 34  1  0
  5 35  1  0
  5 36  1  0
  6 37  1  0
  7 38  1  0
  7 39  1  0
  9 40  1  0
  9 41  1  0
 13 42  1  0
 13 43  1  0
 16 44  1  0
 17 45  1  0
 18 46  1  0
 22 47  1  0
 24 48  1  0
 24 49  1  0
 25 50  1  0
 25 51  1  0
 27 52  1  0
M  END
>  <Energy>  (655) 
346.97997770218257

>  <compound_id>  (655) 
924

>  <target_id>  (655) 
1

>  <reference_id>  (655) 
72

>  <inspiration_ids>  (655) 
[72, 183]

>  <energy_score>  (655) 
203.43366640216607

>  <distance_score>  (655) 
4.098653284937417

>  <path>  (655) 
/opt/xchem-fragalysis-2/maxwin/BulkDock/SCRATCH/505733/C924-P72/C924-P72.minimised.mol

>  <scratch_subdir>  (655) 
/opt/xchem-fragalysis-2/maxwin/BulkDock/SCRATCH/505733/C924-P72

>  <fragmenstein_runtime>  (655) 
10.321122884750366

>  <fragmenstein_outcome>  (655) 
too moved

>  <fragmenstein_mode>  (655) 
expansion

>  <fragmenstein_error>  (655) 


$$$$
C924-P183
     RDKit          3D

 52 55  0  0  0  0  0  0  0  0999 V2000
    1.8893    0.5511   31.0557 C   0  0  0  0  0  0  0  0  0  0  0  0
    2.8438   -0.5854   30.6751 C   0  0  0  0  0  0  0  0  0  0  0  0
    2.7221   -1.0230   29.2179 C   0  0  0  0  0  0  0  0  0  0  0  0
    2.7309    0.0888   28.3329 O   0  0  0  0  0  0  0  0  0  0  0  0
    1.4621   -1.8441   28.9684 C   0  0  0  0  0  0  0  0  0  0  0  0
    1.3574   -3.1004   29.8693 C   0  0  0  0  0  0  0  0  0  0  0  0
    0.0994   -3.8890   29.3419 C   0  0  0  0  0  0  0  0  0  0  0  0
   -0.0011   -5.4052   30.2341 S   0  0  0  0  0  0  0  0  0  0  0  0
   -0.8581   -6.6782   29.6758 N   0  0  0  0  0  0  0  0  0  0  0  0
   -0.7695   -5.0649   31.4024 O   0  0  0  0  0  0  0  0  0  0  0  0
    1.3491   -5.9360   30.2290 O   0  0  0  0  0  0  0  0  0  0  0  0
    1.4355   -2.7073   31.4223 C   0  0  0  0  0  0  0  0  0  0  0  0
    1.6223   -3.8954   32.5074 C   0  0  0  0  0  0  0  0  0  0  0  0
    0.5712   -4.0949   33.5357 N   0  0  0  0  0  0  0  0  0  0  0  0
    0.2738   -5.2872   34.2619 C   0  0  0  0  0  0  0  0  0  0  0  0
   -0.0737   -5.2368   35.5712 C   0  0  0  0  0  0  0  0  0  0  0  0
   -0.7110   -6.3752   36.2201 C   0  0  0  0  0  0  0  0  0  0  0  0
   -1.1890   -7.4101   35.5044 C   0  0  0  0  0  0  0  0  0  0  0  0
   -0.9365   -7.4433   34.1185 C   0  0  0  0  0  0  0  0  0  0  0  0
   -1.3225   -8.2149   33.1187 N   0  0  0  0  0  0  0  0  0  0  0  0
   -0.3997   -8.0602   32.1196 N   0  0  0  0  0  0  0  0  0  0  0  0
    0.4663   -7.1780   32.5678 C   0  0  0  0  0  0  0  0  0  0  0  0
   -0.0332   -6.5147   33.6385 N   0  0  0  0  0  0  0  0  0  0  0  0
   -0.4520   -3.0114   33.6460 C   0  0  0  0  0  0  0  0  0  0  0  0
   -0.0315   -1.7033   33.0093 C   0  0  0  0  0  0  0  0  0  0  0  0
    0.2611   -1.9120   31.6347 O   0  0  0  0  0  0  0  0  0  0  0  0
    2.7331   -1.8218   31.5712 C   0  0  0  0  0  0  0  0  0  0  0  0
    2.9008   -1.4194   32.8629 F   0  0  0  0  0  0  0  0  0  0  0  0
    2.1636    1.4725   30.5301 H   0  0  0  0  0  0  0  0  0  0  0  0
    1.9431    0.7638   32.1283 H   0  0  0  0  0  0  0  0  0  0  0  0
    0.8490    0.3358   30.8014 H   0  0  0  0  0  0  0  0  0  0  0  0
    3.8495   -0.1666   30.8207 H   0  0  0  0  0  0  0  0  0  0  0  0
    3.5922   -1.6387   28.9567 H   0  0  0  0  0  0  0  0  0  0  0  0
    3.4849    0.6590   28.5608 H   0  0  0  0  0  0  0  0  0  0  0  0
    0.5686   -1.2158   29.0733 H   0  0  0  0  0  0  0  0  0  0  0  0
    1.4696   -2.1510   27.9189 H   0  0  0  0  0  0  0  0  0  0  0  0
    2.2464   -3.7115   29.6585 H   0  0  0  0  0  0  0  0  0  0  0  0
    0.2334   -4.1261   28.2884 H   0  0  0  0  0  0  0  0  0  0  0  0
   -0.8286   -3.3279   29.4795 H   0  0  0  0  0  0  0  0  0  0  0  0
   -1.5355   -6.9223   30.4138 H   0  0  0  0  0  0  0  0  0  0  0  0
   -0.2405   -7.4909   29.6458 H   0  0  0  0  0  0  0  0  0  0  0  0
    2.5080   -3.6484   33.1088 H   0  0  0  0  0  0  0  0  0  0  0  0
    1.9510   -4.8191   32.0470 H   0  0  0  0  0  0  0  0  0  0  0  0
    0.0335   -4.3319   36.1594 H   0  0  0  0  0  0  0  0  0  0  0  0
   -0.8344   -6.3390   37.2982 H   0  0  0  0  0  0  0  0  0  0  0  0
   -1.6618   -8.2716   35.9608 H   0  0  0  0  0  0  0  0  0  0  0  0
    1.4329   -6.9434   32.1715 H   0  0  0  0  0  0  0  0  0  0  0  0
   -1.3737   -3.3586   33.1653 H   0  0  0  0  0  0  0  0  0  0  0  0
   -0.6889   -2.8066   34.6955 H   0  0  0  0  0  0  0  0  0  0  0  0
    0.8106   -1.2476   33.5356 H   0  0  0  0  0  0  0  0  0  0  0  0
   -0.8613   -0.9906   33.0613 H   0  0  0  0  0  0  0  0  0  0  0  0
    3.5963   -2.4657   31.3531 H   0  0  0  0  0  0  0  0  0  0  0  0
  1  2  1  0
  2  3  1  0
  3  4  1  0
  3  5  1  0
  5  6  1  0
  6  7  1  0
  7  8  1  0
  8  9  1  0
  8 10  2  0
  8 11  2  0
  6 12  1  0
 12 13  1  0
 13 14  1  0
 14 15  1  0
 15 16  2  0
 16 17  1  0
 17 18  2  0
 18 19  1  0
 19 20  2  0
 20 21  1  0
 21 22  2  0
 22 23  1  0
 14 24  1  0
 24 25  1  0
 25 26  1  0
 12 27  1  0
 27 28  1  0
 27  2  1  0
 26 12  1  0
 23 15  1  0
 23 19  1  0
  1 29  1  0
  1 30  1  0
  1 31  1  0
  2 32  1  0
  3 33  1  0
  4 34  1  0
  5 35  1  0
  5 36  1  0
  6 37  1  0
  7 38  1  0
  7 39  1  0
  9 40  1  0
  9 41  1  0
 13 42  1  0
 13 43  1  0
 16 44  1  0
 17 45  1  0
 18 46  1  0
 22 47  1  0
 24 48  1  0
 24 49  1  0
 25 50  1  0
 25 51  1  0
 27 52  1  0
M  END
>  <Energy>  (656) 
126.0709345369154

>  <compound_id>  (656) 
924

>  <target_id>  (656) 
1

>  <reference_id>  (656) 
183

>  <inspiration_ids>  (656) 
[72, 183]

>  <energy_score>  (656) 
-47.36657517699109

>  <distance_score>  (656) 
1.9883391072304817

>  <path>  (656) 
/opt/xchem-fragalysis-2/maxwin/BulkDock/SCRATCH/505733/C924-P183/C924-P183.minimised.mol

>  <scratch_subdir>  (656) 
/opt/xchem-fragalysis-2/maxwin/BulkDock/SCRATCH/505733/C924-P183

>  <fragmenstein_runtime>  (656) 
8.99931025505066

>  <fragmenstein_outcome>  (656) 
too moved

>  <fragmenstein_mode>  (656) 
expansion

>  <fragmenstein_error>  (656) 


$$$$
C915-P72
     RDKit          3D

 33 34  0  0  0  0  0  0  0  0999 V2000
   -1.0124   -2.2008   29.1787 N   0  0  0  0  0  0  0  0  0  0  0  0
   -1.4009   -1.8149   30.7557 S   0  0  0  0  0  0  0  0  0  0  0  0
   -1.6932   -0.3992   30.7383 O   0  0  0  0  0  0  0  0  0  0  0  0
   -2.3770   -2.7920   31.1817 O   0  0  0  0  0  0  0  0  0  0  0  0
    0.1355   -2.0234   31.6508 C   0  0  0  0  0  0  0  0  0  0  0  0
    0.4561   -3.3797   32.2926 C   0  0  0  0  0  0  0  0  0  0  0  0
   -0.4058   -3.6779   33.5365 C   0  0  0  0  0  0  0  0  0  0  0  0
   -0.0960   -5.0400   34.1376 C   0  0  0  0  0  0  0  0  0  0  0  0
   -0.2472   -6.0907   33.0857 C   0  0  0  0  0  0  0  0  0  0  0  0
    0.0360   -5.8530   31.7886 C   0  0  0  0  0  0  0  0  0  0  0  0
   -0.2624   -6.8824   30.7411 C   0  0  0  0  0  0  0  0  0  0  0  0
   -1.4639   -7.6426   31.0839 N   0  0  0  0  0  0  0  0  0  0  0  0
   -1.2712   -8.2922   32.3742 C   0  0  0  0  0  0  0  0  0  0  0  0
   -0.8647   -7.3840   33.5341 C   0  0  0  0  0  0  0  0  0  0  0  0
    0.4950   -4.5207   31.2666 C   0  0  0  0  0  0  0  0  0  0  0  0
   -1.6514   -2.9038   28.7761 H   0  0  0  0  0  0  0  0  0  0  0  0
   -1.0039   -1.3673   28.5818 H   0  0  0  0  0  0  0  0  0  0  0  0
    0.9349   -1.7311   30.9592 H   0  0  0  0  0  0  0  0  0  0  0  0
    0.1205   -1.2557   32.4348 H   0  0  0  0  0  0  0  0  0  0  0  0
    1.4837   -3.2862   32.6769 H   0  0  0  0  0  0  0  0  0  0  0  0
   -1.4668   -3.6263   33.2823 H   0  0  0  0  0  0  0  0  0  0  0  0
   -0.2339   -2.9034   34.2942 H   0  0  0  0  0  0  0  0  0  0  0  0
    0.9212   -5.0696   34.5447 H   0  0  0  0  0  0  0  0  0  0  0  0
   -0.7832   -5.2151   34.9732 H   0  0  0  0  0  0  0  0  0  0  0  0
    0.5969   -7.5379   30.5751 H   0  0  0  0  0  0  0  0  0  0  0  0
   -0.4697   -6.3893   29.7904 H   0  0  0  0  0  0  0  0  0  0  0  0
   -2.1956   -6.9559   31.2439 H   0  0  0  0  0  0  0  0  0  0  0  0
   -2.1877   -8.8091   32.6456 H   0  0  0  0  0  0  0  0  0  0  0  0
   -0.5209   -9.0460   32.2218 H   0  0  0  0  0  0  0  0  0  0  0  0
   -0.1744   -7.9098   34.2022 H   0  0  0  0  0  0  0  0  0  0  0  0
   -1.7612   -7.1556   34.1211 H   0  0  0  0  0  0  0  0  0  0  0  0
    1.5146   -4.6205   30.8732 H   0  0  0  0  0  0  0  0  0  0  0  0
   -0.1329   -4.2747   30.4077 H   0  0  0  0  0  0  0  0  0  0  0  0
  1  2  1  0
  2  3  2  0
  2  4  2  0
  2  5  1  0
  5  6  1  0
  6  7  1  0
  7  8  1  0
  8  9  1  0
  9 10  2  0
 10 11  1  0
 11 12  1  0
 12 13  1  0
 13 14  1  0
 10 15  1  0
 15  6  1  0
 14  9  1  0
  1 16  1  0
  1 17  1  0
  5 18  1  0
  5 19  1  0
  6 20  1  0
  7 21  1  0
  7 22  1  0
  8 23  1  0
  8 24  1  0
 11 25  1  0
 11 26  1  0
 12 27  1  0
 13 28  1  0
 13 29  1  0
 14 30  1  0
 14 31  1  0
 15 32  1  0
 15 33  1  0
M  END
>  <Energy>  (657) 
-64.089151690855601

>  <compound_id>  (657) 
915

>  <target_id>  (657) 
1

>  <reference_id>  (657) 
72

>  <inspiration_ids>  (657) 
[72, 197]

>  <energy_score>  (657) 
-38.886684404250616

>  <distance_score>  (657) 
1.9993195880646624

>  <path>  (657) 
/opt/xchem-fragalysis-2/maxwin/BulkDock/SCRATCH/505733/C915-P72/C915-P72.minimised.mol

>  <scratch_subdir>  (657) 
/opt/xchem-fragalysis-2/maxwin/BulkDock/SCRATCH/505733/C915-P72

>  <fragmenstein_runtime>  (657) 
3.4572865962982178

>  <fragmenstein_outcome>  (657) 
too moved

>  <fragmenstein_mode>  (657) 
expansion

>  <fragmenstein_error>  (657) 


$$$$
C915-P197
     RDKit          3D

 33 34  0  0  0  0  0  0  0  0999 V2000
   -1.0240   -2.1353   29.2378 N   0  0  0  0  0  0  0  0  0  0  0  0
   -1.3988   -1.7601   30.8211 S   0  0  0  0  0  0  0  0  0  0  0  0
   -1.6593   -0.3371   30.8124 O   0  0  0  0  0  0  0  0  0  0  0  0
   -2.3964   -2.7191   31.2359 O   0  0  0  0  0  0  0  0  0  0  0  0
    0.1341   -2.0155   31.7096 C   0  0  0  0  0  0  0  0  0  0  0  0
    0.4265   -3.3883   32.3298 C   0  0  0  0  0  0  0  0  0  0  0  0
   -0.4523   -3.6979   33.5588 C   0  0  0  0  0  0  0  0  0  0  0  0
   -0.1522   -5.0669   34.1491 C   0  0  0  0  0  0  0  0  0  0  0  0
   -0.2757   -6.1085   33.0841 C   0  0  0  0  0  0  0  0  0  0  0  0
    0.0252   -5.8580   31.7934 C   0  0  0  0  0  0  0  0  0  0  0  0
   -0.2310   -6.8913   30.7386 C   0  0  0  0  0  0  0  0  0  0  0  0
   -1.4313   -7.6657   31.0518 N   0  0  0  0  0  0  0  0  0  0  0  0
   -1.2554   -8.3251   32.3380 C   0  0  0  0  0  0  0  0  0  0  0  0
   -0.8902   -7.4117   33.5106 C   0  0  0  0  0  0  0  0  0  0  0  0
    0.4561   -4.5115   31.2839 C   0  0  0  0  0  0  0  0  0  0  0  0
   -1.6463   -2.8606   28.8526 H   0  0  0  0  0  0  0  0  0  0  0  0
   -1.0539   -1.2967   28.6506 H   0  0  0  0  0  0  0  0  0  0  0  0
    0.9389   -1.7286   31.0221 H   0  0  0  0  0  0  0  0  0  0  0  0
    0.1353   -1.2606   32.5061 H   0  0  0  0  0  0  0  0  0  0  0  0
    1.4517   -3.3188   32.7253 H   0  0  0  0  0  0  0  0  0  0  0  0
   -1.5099   -3.6439   33.2917 H   0  0  0  0  0  0  0  0  0  0  0  0
   -0.2898   -2.9321   34.3273 H   0  0  0  0  0  0  0  0  0  0  0  0
    0.8565   -5.0980   34.5771 H   0  0  0  0  0  0  0  0  0  0  0  0
   -0.8549   -5.2540   34.9690 H   0  0  0  0  0  0  0  0  0  0  0  0
    0.6352   -7.5421   30.6052 H   0  0  0  0  0  0  0  0  0  0  0  0
   -0.4010   -6.4061   29.7763 H   0  0  0  0  0  0  0  0  0  0  0  0
   -2.1740   -6.9938   31.2181 H   0  0  0  0  0  0  0  0  0  0  0  0
   -2.1684   -8.8595   32.5863 H   0  0  0  0  0  0  0  0  0  0  0  0
   -0.4922   -9.0639   32.1811 H   0  0  0  0  0  0  0  0  0  0  0  0
   -0.2175   -7.9233   34.2049 H   0  0  0  0  0  0  0  0  0  0  0  0
   -1.8056   -7.1933   34.0709 H   0  0  0  0  0  0  0  0  0  0  0  0
    1.4670   -4.5895   30.8642 H   0  0  0  0  0  0  0  0  0  0  0  0
   -0.1997   -4.2612   30.4468 H   0  0  0  0  0  0  0  0  0  0  0  0
  1  2  1  0
  2  3  2  0
  2  4  2  0
  2  5  1  0
  5  6  1  0
  6  7  1  0
  7  8  1  0
  8  9  1  0
  9 10  2  0
 10 11  1  0
 11 12  1  0
 12 13  1  0
 13 14  1  0
 10 15  1  0
 15  6  1  0
 14  9  1  0
  1 16  1  0
  1 17  1  0
  5 18  1  0
  5 19  1  0
  6 20  1  0
  7 21  1  0
  7 22  1  0
  8 23  1  0
  8 24  1  0
 11 25  1  0
 11 26  1  0
 12 27  1  0
 13 28  1  0
 13 29  1  0
 14 30  1  0
 14 31  1  0
 15 32  1  0
 15 33  1  0
M  END
>  <Energy>  (658) 
-64.475899117362644

>  <compound_id>  (658) 
915

>  <target_id>  (658) 
1

>  <reference_id>  (658) 
197

>  <inspiration_ids>  (658) 
[72, 197]

>  <energy_score>  (658) 
-39.273431830759435

>  <distance_score>  (658) 
1.9856600466205532

>  <path>  (658) 
/opt/xchem-fragalysis-2/maxwin/BulkDock/SCRATCH/505733/C915-P197/C915-P197.minimised.mol

>  <scratch_subdir>  (658) 
/opt/xchem-fragalysis-2/maxwin/BulkDock/SCRATCH/505733/C915-P197

>  <fragmenstein_runtime>  (658) 
4.246859073638916

>  <fragmenstein_outcome>  (658) 
too moved

>  <fragmenstein_mode>  (658) 
expansion

>  <fragmenstein_error>  (658) 


$$$$
C931-P72
     RDKit          3D

 30 31  0  0  0  0  0  0  0  0999 V2000
    0.7736   -5.7874   30.1305 N   0  0  0  0  0  0  0  0  0  0  0  0
    0.4908   -5.0153   31.5823 S   0  0  0  0  0  0  0  0  0  0  0  0
   -0.9374   -5.1671   31.7269 O   0  0  0  0  0  0  0  0  0  0  0  0
    1.3814   -5.6862   32.5053 O   0  0  0  0  0  0  0  0  0  0  0  0
    1.0837   -3.2695   31.3000 C   0  0  0  0  0  0  0  0  0  0  0  0
    0.3081   -2.2891   30.3884 C   0  0  0  0  0  0  0  0  0  0  0  0
    1.0189   -1.6423   29.3495 C   0  0  0  0  0  0  0  0  0  0  0  0
    0.4470   -0.6077   28.5878 C   0  0  0  0  0  0  0  0  0  0  0  0
   -0.8883   -0.2874   28.7093 C   0  0  0  0  0  0  0  0  0  0  0  0
   -1.5994   -0.8350   29.7400 C   0  0  0  0  0  0  0  0  0  0  0  0
   -0.9686   -1.7434   30.6204 C   0  0  0  0  0  0  0  0  0  0  0  0
   -1.7967   -1.9425   32.1597 S   0  0  0  0  0  0  0  0  0  0  0  0
   -2.6025   -3.3187   31.7970 N   0  0  0  0  0  0  0  0  0  0  0  0
   -0.8099   -2.1868   33.1766 O   0  0  0  0  0  0  0  0  0  0  0  0
   -2.8181   -0.9330   32.2792 O   0  0  0  0  0  0  0  0  0  0  0  0
   -1.3874    1.0138   27.6352 S   0  0  0  0  0  0  0  0  0  0  0  0
    0.3292    1.5334   27.4000 C   0  0  0  0  0  0  0  0  0  0  0  0
    1.1891    0.2900   27.6435 C   0  0  0  0  0  0  0  0  0  0  0  0
    1.2202   -6.6893   30.3033 H   0  0  0  0  0  0  0  0  0  0  0  0
   -0.0738   -5.8576   29.5627 H   0  0  0  0  0  0  0  0  0  0  0  0
    1.2488   -2.8270   32.2856 H   0  0  0  0  0  0  0  0  0  0  0  0
    2.0913   -3.4187   30.8883 H   0  0  0  0  0  0  0  0  0  0  0  0
    2.0672   -1.8856   29.1744 H   0  0  0  0  0  0  0  0  0  0  0  0
   -2.5900   -0.4436   29.9457 H   0  0  0  0  0  0  0  0  0  0  0  0
   -2.0102   -4.0391   31.3810 H   0  0  0  0  0  0  0  0  0  0  0  0
   -3.5235   -3.1097   31.4214 H   0  0  0  0  0  0  0  0  0  0  0  0
    0.4950    1.9724   26.4134 H   0  0  0  0  0  0  0  0  0  0  0  0
    0.5555    2.2988   28.1512 H   0  0  0  0  0  0  0  0  0  0  0  0
    1.4064   -0.2541   26.7306 H   0  0  0  0  0  0  0  0  0  0  0  0
    2.1502    0.5930   28.0749 H   0  0  0  0  0  0  0  0  0  0  0  0
  1  2  1  0
  2  3  2  0
  2  4  2  0
  2  5  1  0
  5  6  1  0
  6  7  2  0
  7  8  1  0
  8  9  2  0
  9 10  1  0
 10 11  2  0
 11 12  1  0
 12 13  1  0
 12 14  2  0
 12 15  2  0
  9 16  1  0
 16 17  1  0
 17 18  1  0
 11  6  1  0
 18  8  1  0
  1 19  1  0
  1 20  1  0
  5 21  1  0
  5 22  1  0
  7 23  1  0
 10 24  1  0
 13 25  1  0
 13 26  1  0
 17 27  1  0
 17 28  1  0
 18 29  1  0
 18 30  1  0
M  END
>  <Energy>  (659) 
-90.902394631318685

>  <compound_id>  (659) 
931

>  <target_id>  (659) 
1

>  <reference_id>  (659) 
72

>  <inspiration_ids>  (659) 
[72, 198]

>  <energy_score>  (659) 
-37.57864657126987

>  <distance_score>  (659) 
2.3438978281252894

>  <path>  (659) 
/opt/xchem-fragalysis-2/maxwin/BulkDock/SCRATCH/505733/C931-P72/C931-P72.minimised.mol

>  <scratch_subdir>  (659) 
/opt/xchem-fragalysis-2/maxwin/BulkDock/SCRATCH/505733/C931-P72

>  <fragmenstein_runtime>  (659) 
16.439032316207886

>  <fragmenstein_outcome>  (659) 
too moved

>  <fragmenstein_mode>  (659) 
expansion

>  <fragmenstein_error>  (659) 


$$$$
C931-P198
     RDKit          3D

 30 31  0  0  0  0  0  0  0  0999 V2000
    0.5053   -5.4544   32.0889 N   0  0  0  0  0  0  0  0  0  0  0  0
    0.5542   -4.1261   33.1380 S   0  0  0  0  0  0  0  0  0  0  0  0
   -0.7621   -4.1197   33.7183 O   0  0  0  0  0  0  0  0  0  0  0  0
    1.6741   -4.5347   33.9638 O   0  0  0  0  0  0  0  0  0  0  0  0
    1.0479   -2.4624   32.2672 C   0  0  0  0  0  0  0  0  0  0  0  0
    0.1881   -1.5600   31.2975 C   0  0  0  0  0  0  0  0  0  0  0  0
    0.5109   -0.1830   31.1606 C   0  0  0  0  0  0  0  0  0  0  0  0
   -0.0097    0.6174   30.1047 C   0  0  0  0  0  0  0  0  0  0  0  0
   -0.9514    0.1230   29.2171 C   0  0  0  0  0  0  0  0  0  0  0  0
   -1.3111   -1.1872   29.3087 C   0  0  0  0  0  0  0  0  0  0  0  0
   -0.6740   -1.9915   30.2832 C   0  0  0  0  0  0  0  0  0  0  0  0
   -0.8016   -3.6669   29.9996 S   0  0  0  0  0  0  0  0  0  0  0  0
    0.8032   -4.1483   29.9698 N   0  0  0  0  0  0  0  0  0  0  0  0
   -1.5102   -4.1945   31.1348 O   0  0  0  0  0  0  0  0  0  0  0  0
   -1.1867   -3.9130   28.6520 O   0  0  0  0  0  0  0  0  0  0  0  0
   -1.4534    1.2785   27.9919 S   0  0  0  0  0  0  0  0  0  0  0  0
   -0.0889    2.3985   28.3904 C   0  0  0  0  0  0  0  0  0  0  0  0
    0.3995    2.0328   29.7953 C   0  0  0  0  0  0  0  0  0  0  0  0
    0.9758   -6.2192   32.5841 H   0  0  0  0  0  0  0  0  0  0  0  0
   -0.5095   -5.6537   32.0107 H   0  0  0  0  0  0  0  0  0  0  0  0
    1.2633   -1.8343   33.1435 H   0  0  0  0  0  0  0  0  0  0  0  0
    2.0102   -2.6767   31.7871 H   0  0  0  0  0  0  0  0  0  0  0  0
    1.2534    0.2618   31.8240 H   0  0  0  0  0  0  0  0  0  0  0  0
   -1.9728   -1.6154   28.5554 H   0  0  0  0  0  0  0  0  0  0  0  0
    1.0171   -4.4212   29.0068 H   0  0  0  0  0  0  0  0  0  0  0  0
    0.9343   -4.9311   30.6262 H   0  0  0  0  0  0  0  0  0  0  0  0
    0.7103    2.2338   27.6593 H   0  0  0  0  0  0  0  0  0  0  0  0
   -0.3974    3.4461   28.3281 H   0  0  0  0  0  0  0  0  0  0  0  0
   -0.0157    2.7127   30.5442 H   0  0  0  0  0  0  0  0  0  0  0  0
    1.4903    2.1318   29.8404 H   0  0  0  0  0  0  0  0  0  0  0  0
  1  2  1  0
  2  3  2  0
  2  4  2  0
  2  5  1  0
  5  6  1  0
  6  7  2  0
  7  8  1  0
  8  9  2  0
  9 10  1  0
 10 11  2  0
 11 12  1  0
 12 13  1  0
 12 14  2  0
 12 15  2  0
  9 16  1  0
 16 17  1  0
 17 18  1  0
 11  6  1  0
 18  8  1  0
  1 19  1  0
  1 20  1  0
  5 21  1  0
  5 22  1  0
  7 23  1  0
 10 24  1  0
 13 25  1  0
 13 26  1  0
 17 27  1  0
 17 28  1  0
 18 29  1  0
 18 30  1  0
M  END
>  <Energy>  (660) 
-69.297756398282758

>  <compound_id>  (660) 
931

>  <target_id>  (660) 
1

>  <reference_id>  (660) 
198

>  <inspiration_ids>  (660) 
[72, 198]

>  <energy_score>  (660) 
-15.97400833823636

>  <distance_score>  (660) 
2.426286696866663

>  <path>  (660) 
/opt/xchem-fragalysis-2/maxwin/BulkDock/SCRATCH/505733/C931-P198/C931-P198.minimised.mol

>  <scratch_subdir>  (660) 
/opt/xchem-fragalysis-2/maxwin/BulkDock/SCRATCH/505733/C931-P198

>  <fragmenstein_runtime>  (660) 
16.734330415725708

>  <fragmenstein_outcome>  (660) 
too moved

>  <fragmenstein_mode>  (660) 
expansion

>  <fragmenstein_error>  (660) 


$$$$
C936-P73
     RDKit          3D

 59 61  0  0  0  0  0  0  0  0999 V2000
   -3.4310   -0.8998    7.3836 C   0  0  0  0  0  0  0  0  0  0  0  0
   -4.7594   -1.5216    7.1251 C   0  0  0  0  0  0  0  0  0  0  0  0
   -4.9626   -2.5075    6.1597 C   0  0  0  0  0  0  0  0  0  0  0  0
   -6.2131   -3.1216    6.0243 C   0  0  0  0  0  0  0  0  0  0  0  0
   -7.2933   -2.7277    6.8175 C   0  0  0  0  0  0  0  0  0  0  0  0
   -8.6163   -3.4320    6.7396 C   0  0  0  0  0  0  0  0  0  0  0  0
   -9.8358   -2.5504    5.7537 S   0  0  0  0  0  0  0  0  0  0  0  0
   -9.9882   -1.1976    6.2326 O   0  0  0  0  0  0  0  0  0  0  0  0
  -11.0036   -3.4003    5.6476 O   0  0  0  0  0  0  0  0  0  0  0  0
   -9.2634   -2.4581    4.1670 N   0  0  0  0  0  0  0  0  0  0  0  0
   -8.1190   -1.5712    3.8632 C   0  0  0  0  0  0  0  0  0  0  0  0
   -8.2340   -0.9141    2.4862 C   0  0  0  0  0  0  0  0  0  0  0  0
   -9.0305    0.4122    2.4306 C   0  0  0  0  0  0  0  0  0  0  0  0
   -9.2851    0.8224    0.9442 C   0  0  0  0  0  0  0  0  0  0  0  0
   -8.0705    1.2344    0.2061 N   0  0  0  0  0  0  0  0  0  0  0  0
   -7.4339    2.3518    0.9330 C   0  0  0  0  0  0  0  0  0  0  0  0
   -7.1215    2.0546    2.4194 C   0  0  0  0  0  0  0  0  0  0  0  0
   -8.3155    1.5354    3.0987 N   0  0  0  0  0  0  0  0  0  0  0  0
   -8.4791    1.6963    4.4667 C   0  0  0  0  0  0  0  0  0  0  0  0
   -7.3999    1.6996    5.3651 C   0  0  0  0  0  0  0  0  0  0  0  0
   -7.6098    1.6594    6.7483 C   0  0  0  0  0  0  0  0  0  0  0  0
   -8.9150    1.6448    7.2386 C   0  0  0  0  0  0  0  0  0  0  0  0
   -9.2285    1.3639    8.9566 S   0  0  0  0  0  0  0  0  0  0  0  0
  -10.2453   -0.0842    9.0362 C   0  0  0  0  0  0  0  0  0  0  0  0
   -7.9734    1.0357    9.5975 O   0  0  0  0  0  0  0  0  0  0  0  0
  -10.0243    2.4858    9.4216 O   0  0  0  0  0  0  0  0  0  0  0  0
   -9.9972    1.7952    6.3762 C   0  0  0  0  0  0  0  0  0  0  0  0
   -9.7721    1.8083    5.0009 C   0  0  0  0  0  0  0  0  0  0  0  0
   -7.0820   -1.7090    7.7473 C   0  0  0  0  0  0  0  0  0  0  0  0
   -5.8379   -1.1148    7.8907 C   0  0  0  0  0  0  0  0  0  0  0  0
   -5.6645   -0.1666    8.8191 F   0  0  0  0  0  0  0  0  0  0  0  0
   -3.2454   -0.8185    8.4577 H   0  0  0  0  0  0  0  0  0  0  0  0
   -2.6286   -1.5124    6.9724 H   0  0  0  0  0  0  0  0  0  0  0  0
   -3.3973    0.1003    6.9476 H   0  0  0  0  0  0  0  0  0  0  0  0
   -4.1437   -2.8380    5.5295 H   0  0  0  0  0  0  0  0  0  0  0  0
   -6.3313   -3.9273    5.3012 H   0  0  0  0  0  0  0  0  0  0  0  0
   -8.5189   -4.4416    6.3479 H   0  0  0  0  0  0  0  0  0  0  0  0
   -9.0405   -3.5275    7.7447 H   0  0  0  0  0  0  0  0  0  0  0  0
  -10.0815   -2.2859    3.5799 H   0  0  0  0  0  0  0  0  0  0  0  0
   -7.2413   -2.2215    3.8146 H   0  0  0  0  0  0  0  0  0  0  0  0
   -7.9421   -0.8510    4.6558 H   0  0  0  0  0  0  0  0  0  0  0  0
   -8.6829   -1.6331    1.7883 H   0  0  0  0  0  0  0  0  0  0  0  0
   -7.2141   -0.7383    2.1234 H   0  0  0  0  0  0  0  0  0  0  0  0
  -10.0158    0.2418    2.8806 H   0  0  0  0  0  0  0  0  0  0  0  0
   -9.7529   -0.0098    0.4055 H   0  0  0  0  0  0  0  0  0  0  0  0
  -10.0065    1.6495    0.9179 H   0  0  0  0  0  0  0  0  0  0  0  0
   -7.4215    0.4503    0.1771 H   0  0  0  0  0  0  0  0  0  0  0  0
   -6.5051    2.6212    0.4180 H   0  0  0  0  0  0  0  0  0  0  0  0
   -8.0907    3.2286    0.8689 H   0  0  0  0  0  0  0  0  0  0  0  0
   -6.7860    2.9896    2.8850 H   0  0  0  0  0  0  0  0  0  0  0  0
   -6.2993    1.3331    2.4928 H   0  0  0  0  0  0  0  0  0  0  0  0
   -6.3789    1.6407    5.0033 H   0  0  0  0  0  0  0  0  0  0  0  0
   -6.7612    1.6064    7.4251 H   0  0  0  0  0  0  0  0  0  0  0  0
  -10.4843   -0.2600   10.0877 H   0  0  0  0  0  0  0  0  0  0  0  0
  -11.1753    0.0963    8.4944 H   0  0  0  0  0  0  0  0  0  0  0  0
   -9.7410   -0.9580    8.6502 H   0  0  0  0  0  0  0  0  0  0  0  0
  -11.0158    1.8384    6.7513 H   0  0  0  0  0  0  0  0  0  0  0  0
  -10.6307    1.8793    4.3374 H   0  0  0  0  0  0  0  0  0  0  0  0
   -7.8517   -1.4069    8.4370 H   0  0  0  0  0  0  0  0  0  0  0  0
  1  2  1  0
  2  3  2  0
  3  4  1  0
  4  5  2  0
  5  6  1  0
  6  7  1  0
  7  8  2  0
  7  9  2  0
  7 10  1  0
 10 11  1  0
 11 12  1  0
 12 13  1  0
 13 14  1  0
 14 15  1  0
 15 16  1  0
 16 17  1  0
 17 18  1  0
 18 19  1  0
 19 20  2  0
 20 21  1  0
 21 22  2  0
 22 23  1  0
 23 24  1  0
 23 25  2  0
 23 26  2  0
 22 27  1  0
 27 28  2  0
  5 29  1  0
 29 30  2  0
 30 31  1  0
 30  2  1  0
 18 13  1  0
 28 19  1  0
  1 32  1  0
  1 33  1  0
  1 34  1  0
  3 35  1  0
  4 36  1  0
  6 37  1  0
  6 38  1  0
 10 39  1  0
 11 40  1  0
 11 41  1  0
 12 42  1  0
 12 43  1  0
 13 44  1  0
 14 45  1  0
 14 46  1  0
 15 47  1  0
 16 48  1  0
 16 49  1  0
 17 50  1  0
 17 51  1  0
 20 52  1  0
 21 53  1  0
 24 54  1  0
 24 55  1  0
 24 56  1  0
 27 57  1  0
 28 58  1  0
 29 59  1  0
M  END
>  <Energy>  (661) 
119.7433459372831

>  <compound_id>  (661) 
936

>  <target_id>  (661) 
1

>  <reference_id>  (661) 
73

>  <inspiration_ids>  (661) 
[73, 17]

>  <energy_score>  (661) 
-65.55584424010499

>  <distance_score>  (661) 
0.9716967077123995

>  <path>  (661) 
/opt/xchem-fragalysis-2/maxwin/BulkDock/SCRATCH/505733/C936-P73/C936-P73.minimised.mol

>  <scratch_subdir>  (661) 
/opt/xchem-fragalysis-2/maxwin/BulkDock/SCRATCH/505733/C936-P73

>  <fragmenstein_runtime>  (661) 
7.155978202819824

>  <fragmenstein_outcome>  (661) 
acceptable

>  <fragmenstein_mode>  (661) 
expansion

>  <fragmenstein_error>  (661) 


$$$$
C936-P17
     RDKit          3D

 59 61  0  0  0  0  0  0  0  0999 V2000
   -3.5351   -0.9025    7.4331 C   0  0  0  0  0  0  0  0  0  0  0  0
   -4.8297   -1.5947    7.2112 C   0  0  0  0  0  0  0  0  0  0  0  0
   -5.0276   -2.4820    6.1554 C   0  0  0  0  0  0  0  0  0  0  0  0
   -6.2653   -3.0997    5.9875 C   0  0  0  0  0  0  0  0  0  0  0  0
   -7.3277   -2.8200    6.8557 C   0  0  0  0  0  0  0  0  0  0  0  0
   -8.6549   -3.4934    6.6823 C   0  0  0  0  0  0  0  0  0  0  0  0
   -9.6474   -2.6661    5.4319 S   0  0  0  0  0  0  0  0  0  0  0  0
  -10.3006   -1.5127    6.0125 O   0  0  0  0  0  0  0  0  0  0  0  0
  -10.3772   -3.6835    4.7188 O   0  0  0  0  0  0  0  0  0  0  0  0
   -8.5342   -2.0271    4.3211 N   0  0  0  0  0  0  0  0  0  0  0  0
   -9.1128   -1.6934    2.9992 C   0  0  0  0  0  0  0  0  0  0  0  0
   -8.0462   -1.0834    2.0792 C   0  0  0  0  0  0  0  0  0  0  0  0
   -8.1650    0.4533    1.9079 C   0  0  0  0  0  0  0  0  0  0  0  0
   -7.7550    0.8740    0.4598 C   0  0  0  0  0  0  0  0  0  0  0  0
   -6.3188    0.7262    0.1637 N   0  0  0  0  0  0  0  0  0  0  0  0
   -5.5825    1.5701    1.1207 C   0  0  0  0  0  0  0  0  0  0  0  0
   -5.8753    1.2485    2.6022 C   0  0  0  0  0  0  0  0  0  0  0  0
   -7.3284    1.2006    2.8954 N   0  0  0  0  0  0  0  0  0  0  0  0
   -7.7544    1.3105    4.2203 C   0  0  0  0  0  0  0  0  0  0  0  0
   -6.8593    1.2889    5.3058 C   0  0  0  0  0  0  0  0  0  0  0  0
   -7.2992    1.3196    6.6338 C   0  0  0  0  0  0  0  0  0  0  0  0
   -8.6617    1.3440    6.9057 C   0  0  0  0  0  0  0  0  0  0  0  0
   -9.2331    1.2204    8.5756 S   0  0  0  0  0  0  0  0  0  0  0  0
  -10.3253   -0.1622    8.6352 C   0  0  0  0  0  0  0  0  0  0  0  0
   -8.1000    0.8733    9.4051 O   0  0  0  0  0  0  0  0  0  0  0  0
  -10.0100    2.4185    8.8372 O   0  0  0  0  0  0  0  0  0  0  0  0
   -9.5738    1.4662    5.8658 C   0  0  0  0  0  0  0  0  0  0  0  0
   -9.1150    1.4606    4.5427 C   0  0  0  0  0  0  0  0  0  0  0  0
   -7.1242   -1.9118    7.8914 C   0  0  0  0  0  0  0  0  0  0  0  0
   -5.8916   -1.3036    8.0508 C   0  0  0  0  0  0  0  0  0  0  0  0
   -5.7222   -0.4167    9.0363 F   0  0  0  0  0  0  0  0  0  0  0  0
   -2.7079   -1.5311    7.1022 H   0  0  0  0  0  0  0  0  0  0  0  0
   -3.5536    0.0351    6.8790 H   0  0  0  0  0  0  0  0  0  0  0  0
   -3.3650   -0.6748    8.4874 H   0  0  0  0  0  0  0  0  0  0  0  0
   -4.2257   -2.7083    5.4611 H   0  0  0  0  0  0  0  0  0  0  0  0
   -6.4030   -3.8018    5.1656 H   0  0  0  0  0  0  0  0  0  0  0  0
   -8.5181   -4.5346    6.3847 H   0  0  0  0  0  0  0  0  0  0  0  0
   -9.2288   -3.4858    7.6120 H   0  0  0  0  0  0  0  0  0  0  0  0
   -8.0998   -1.2016    4.7462 H   0  0  0  0  0  0  0  0  0  0  0  0
   -9.9753   -1.0304    3.1134 H   0  0  0  0  0  0  0  0  0  0  0  0
   -9.4595   -2.6267    2.5402 H   0  0  0  0  0  0  0  0  0  0  0  0
   -8.2018   -1.5440    1.0945 H   0  0  0  0  0  0  0  0  0  0  0  0
   -7.0386   -1.3769    2.3959 H   0  0  0  0  0  0  0  0  0  0  0  0
   -9.2168    0.7474    1.9840 H   0  0  0  0  0  0  0  0  0  0  0  0
   -8.3229    0.2862   -0.2709 H   0  0  0  0  0  0  0  0  0  0  0  0
   -8.0447    1.9201    0.2936 H   0  0  0  0  0  0  0  0  0  0  0  0
   -6.0507   -0.2452    0.3200 H   0  0  0  0  0  0  0  0  0  0  0  0
   -4.5085    1.4555    0.9354 H   0  0  0  0  0  0  0  0  0  0  0  0
   -5.8195    2.6230    0.9215 H   0  0  0  0  0  0  0  0  0  0  0  0
   -5.3879    2.0367    3.1885 H   0  0  0  0  0  0  0  0  0  0  0  0
   -5.4144    0.2890    2.8674 H   0  0  0  0  0  0  0  0  0  0  0  0
   -5.7867    1.2120    5.1532 H   0  0  0  0  0  0  0  0  0  0  0  0
   -6.5720    1.3066    7.4412 H   0  0  0  0  0  0  0  0  0  0  0  0
  -10.6789   -0.2572    9.6656 H   0  0  0  0  0  0  0  0  0  0  0  0
  -11.1834    0.0257    7.9880 H   0  0  0  0  0  0  0  0  0  0  0  0
   -9.8135   -1.0744    8.3585 H   0  0  0  0  0  0  0  0  0  0  0  0
  -10.6405    1.5425    6.0609 H   0  0  0  0  0  0  0  0  0  0  0  0
   -9.8638    1.5716    3.7642 H   0  0  0  0  0  0  0  0  0  0  0  0
   -7.8867   -1.7056    8.6308 H   0  0  0  0  0  0  0  0  0  0  0  0
  1  2  1  0
  2  3  2  0
  3  4  1  0
  4  5  2  0
  5  6  1  0
  6  7  1  0
  7  8  2  0
  7  9  2  0
  7 10  1  0
 10 11  1  0
 11 12  1  0
 12 13  1  0
 13 14  1  0
 14 15  1  0
 15 16  1  0
 16 17  1  0
 17 18  1  0
 18 19  1  0
 19 20  2  0
 20 21  1  0
 21 22  2  0
 22 23  1  0
 23 24  1  0
 23 25  2  0
 23 26  2  0
 22 27  1  0
 27 28  2  0
  5 29  1  0
 29 30  2  0
 30 31  1  0
 30  2  1  0
 18 13  1  0
 28 19  1  0
  1 32  1  0
  1 33  1  0
  1 34  1  0
  3 35  1  0
  4 36  1  0
  6 37  1  0
  6 38  1  0
 10 39  1  0
 11 40  1  0
 11 41  1  0
 12 42  1  0
 12 43  1  0
 13 44  1  0
 14 45  1  0
 14 46  1  0
 15 47  1  0
 16 48  1  0
 16 49  1  0
 17 50  1  0
 17 51  1  0
 20 52  1  0
 21 53  1  0
 24 54  1  0
 24 55  1  0
 24 56  1  0
 27 57  1  0
 28 58  1  0
 29 59  1  0
M  END
>  <Energy>  (662) 
113.01826365950036

>  <compound_id>  (662) 
936

>  <target_id>  (662) 
1

>  <reference_id>  (662) 
17

>  <inspiration_ids>  (662) 
[73, 17]

>  <energy_score>  (662) 
-72.2809265178829

>  <distance_score>  (662) 
0.9965230180379929

>  <path>  (662) 
/opt/xchem-fragalysis-2/maxwin/BulkDock/SCRATCH/505733/C936-P17/C936-P17.minimised.mol

>  <scratch_subdir>  (662) 
/opt/xchem-fragalysis-2/maxwin/BulkDock/SCRATCH/505733/C936-P17

>  <fragmenstein_runtime>  (662) 
6.439950466156006

>  <fragmenstein_outcome>  (662) 
acceptable

>  <fragmenstein_mode>  (662) 
expansion

>  <fragmenstein_error>  (662) 


$$$$
C922-P73
     RDKit          3D

 51 53  0  0  0  0  0  0  0  0999 V2000
   -9.4391   -2.4001    4.5073 N   0  0  0  0  0  0  0  0  0  0  0  0
  -10.2737   -2.6373    5.9253 S   0  0  0  0  0  0  0  0  0  0  0  0
  -11.0241   -1.4300    6.1514 O   0  0  0  0  0  0  0  0  0  0  0  0
  -10.9392   -3.8932    5.6900 O   0  0  0  0  0  0  0  0  0  0  0  0
   -9.0683   -2.8498    7.2067 C   0  0  0  0  0  0  0  0  0  0  0  0
   -7.7117   -2.1535    7.1897 C   0  0  0  0  0  0  0  0  0  0  0  0
   -6.6951   -2.8796    6.2728 C   0  0  0  0  0  0  0  0  0  0  0  0
   -5.3480   -2.1541    6.1737 C   0  0  0  0  0  0  0  0  0  0  0  0
   -5.0952   -1.3353    7.4306 C   0  0  0  0  0  0  0  0  0  0  0  0
   -3.7314   -0.7163    7.4793 C   0  0  0  0  0  0  0  0  0  0  0  0
   -2.7688   -1.6461    7.3307 F   0  0  0  0  0  0  0  0  0  0  0  0
   -3.6011    0.1730    6.4831 F   0  0  0  0  0  0  0  0  0  0  0  0
   -3.5098   -0.0698    8.6350 F   0  0  0  0  0  0  0  0  0  0  0  0
   -6.1393   -0.2460    7.6437 C   0  0  0  0  0  0  0  0  0  0  0  0
   -6.1897   -0.0643    8.9999 F   0  0  0  0  0  0  0  0  0  0  0  0
   -7.5841   -0.6002    7.1248 C   0  0  0  0  0  0  0  0  0  0  0  0
   -8.5951    0.1648    8.0270 C   0  0  0  0  0  0  0  0  0  0  0  0
   -8.5295    1.6822    7.7552 C   0  0  0  0  0  0  0  0  0  0  0  0
   -8.8749    2.0029    6.3741 N   0  0  0  0  0  0  0  0  0  0  0  0
   -8.3741    3.2718    5.8552 C   0  0  0  0  0  0  0  0  0  0  0  0
   -7.1483    3.0971    5.0209 C   0  0  0  0  0  0  0  0  0  0  0  0
   -5.8018    3.2524    5.4018 C   0  0  0  0  0  0  0  0  0  0  0  0
   -4.9654    2.9836    4.3966 N   0  0  0  0  0  0  0  0  0  0  0  0
   -5.7727    2.6533    3.3738 N   0  0  0  0  0  0  0  0  0  0  0  0
   -7.0844    2.7499    3.6838 C   0  0  0  0  0  0  0  0  0  0  0  0
   -8.9024    0.8750    5.4608 C   0  0  0  0  0  0  0  0  0  0  0  0
   -7.7165   -0.0783    5.6652 C   0  0  0  0  0  0  0  0  0  0  0  0
   -9.8140   -1.5699    4.0420 H   0  0  0  0  0  0  0  0  0  0  0  0
   -9.5207   -3.2375    3.9369 H   0  0  0  0  0  0  0  0  0  0  0  0
   -8.9084   -3.9315    7.2914 H   0  0  0  0  0  0  0  0  0  0  0  0
   -9.5832   -2.5347    8.1156 H   0  0  0  0  0  0  0  0  0  0  0  0
   -7.3710   -2.3750    8.2070 H   0  0  0  0  0  0  0  0  0  0  0  0
   -6.5260   -3.8829    6.6812 H   0  0  0  0  0  0  0  0  0  0  0  0
   -7.0850   -3.0397    5.2640 H   0  0  0  0  0  0  0  0  0  0  0  0
   -5.3324   -1.5064    5.2893 H   0  0  0  0  0  0  0  0  0  0  0  0
   -4.5525   -2.8923    6.0228 H   0  0  0  0  0  0  0  0  0  0  0  0
   -5.1360   -2.0043    8.2824 H   0  0  0  0  0  0  0  0  0  0  0  0
   -5.8083    0.7128    7.2315 H   0  0  0  0  0  0  0  0  0  0  0  0
   -8.4029   -0.0259    9.0889 H   0  0  0  0  0  0  0  0  0  0  0  0
   -9.6193   -0.1817    7.8603 H   0  0  0  0  0  0  0  0  0  0  0  0
   -7.5301    2.0547    8.0077 H   0  0  0  0  0  0  0  0  0  0  0  0
   -9.2324    2.1931    8.4232 H   0  0  0  0  0  0  0  0  0  0  0  0
   -8.1904    3.9886    6.6651 H   0  0  0  0  0  0  0  0  0  0  0  0
   -9.1585    3.7235    5.2344 H   0  0  0  0  0  0  0  0  0  0  0  0
   -5.3976    3.5393    6.3662 H   0  0  0  0  0  0  0  0  0  0  0  0
   -5.3566    2.4170    2.4773 H   0  0  0  0  0  0  0  0  0  0  0  0
   -7.8555    2.5585    2.9508 H   0  0  0  0  0  0  0  0  0  0  0  0
   -9.8409    0.3584    5.6286 H   0  0  0  0  0  0  0  0  0  0  0  0
   -8.9867    1.1736    4.4119 H   0  0  0  0  0  0  0  0  0  0  0  0
   -6.7984    0.4411    5.3744 H   0  0  0  0  0  0  0  0  0  0  0  0
   -7.7711   -0.8808    4.9352 H   0  0  0  0  0  0  0  0  0  0  0  0
  1  2  1  0
  2  3  2  0
  2  4  2  0
  2  5  1  0
  5  6  1  0
  6  7  1  0
  7  8  1  0
  8  9  1  0
  9 10  1  0
 10 11  1  0
 10 12  1  0
 10 13  1  0
  9 14  1  0
 14 15  1  0
 14 16  1  0
 16 17  1  0
 17 18  1  0
 18 19  1  0
 19 20  1  0
 20 21  1  0
 21 22  1  0
 22 23  2  0
 23 24  1  0
 24 25  1  0
 19 26  1  0
 26 27  1  0
 16  6  1  0
 25 21  2  0
 27 16  1  0
  1 28  1  0
  1 29  1  0
  5 30  1  0
  5 31  1  0
  6 32  1  0
  7 33  1  0
  7 34  1  0
  8 35  1  0
  8 36  1  0
  9 37  1  0
 14 38  1  0
 17 39  1  0
 17 40  1  0
 18 41  1  0
 18 42  1  0
 20 43  1  0
 20 44  1  0
 22 45  1  0
 24 46  1  0
 25 47  1  0
 26 48  1  0
 26 49  1  0
 27 50  1  0
 27 51  1  0
M  END
>  <Energy>  (663) 
-26.273679474409533

>  <compound_id>  (663) 
922

>  <target_id>  (663) 
1

>  <reference_id>  (663) 
73

>  <inspiration_ids>  (663) 
[73, 24]

>  <energy_score>  (663) 
-60.47418592519921

>  <distance_score>  (663) 
1.9099205111721806

>  <path>  (663) 
/opt/xchem-fragalysis-2/maxwin/BulkDock/SCRATCH/505733/C922-P73/C922-P73.minimised.mol

>  <scratch_subdir>  (663) 
/opt/xchem-fragalysis-2/maxwin/BulkDock/SCRATCH/505733/C922-P73

>  <fragmenstein_runtime>  (663) 
14.156107425689697

>  <fragmenstein_outcome>  (663) 
too moved

>  <fragmenstein_mode>  (663) 
expansion

>  <fragmenstein_error>  (663) 


$$$$
C922-P24
     RDKit          3D

 51 53  0  0  0  0  0  0  0  0999 V2000
   -9.8646   -3.1916    4.8661 N   0  0  0  0  0  0  0  0  0  0  0  0
  -10.5113   -2.3994    6.1920 S   0  0  0  0  0  0  0  0  0  0  0  0
  -10.7203   -1.0343    5.7785 O   0  0  0  0  0  0  0  0  0  0  0  0
  -11.6386   -3.1908    6.6119 O   0  0  0  0  0  0  0  0  0  0  0  0
   -9.2652   -2.5200    7.4482 C   0  0  0  0  0  0  0  0  0  0  0  0
   -7.8307   -2.0410    7.2777 C   0  0  0  0  0  0  0  0  0  0  0  0
   -6.9141   -3.0873    6.6005 C   0  0  0  0  0  0  0  0  0  0  0  0
   -5.4693   -2.5920    6.4123 C   0  0  0  0  0  0  0  0  0  0  0  0
   -5.1206   -1.4231    7.3253 C   0  0  0  0  0  0  0  0  0  0  0  0
   -3.7368   -0.8937    7.0815 C   0  0  0  0  0  0  0  0  0  0  0  0
   -2.8175   -1.8698    7.1811 F   0  0  0  0  0  0  0  0  0  0  0  0
   -3.6451   -0.3912    5.8276 F   0  0  0  0  0  0  0  0  0  0  0  0
   -3.3954    0.0669    7.9600 F   0  0  0  0  0  0  0  0  0  0  0  0
   -6.0906   -0.2604    7.2424 C   0  0  0  0  0  0  0  0  0  0  0  0
   -6.1705    0.2072    8.5349 F   0  0  0  0  0  0  0  0  0  0  0  0
   -7.5374   -0.6135    6.7611 C   0  0  0  0  0  0  0  0  0  0  0  0
   -8.4716    0.4876    7.3146 C   0  0  0  0  0  0  0  0  0  0  0  0
   -8.1003    1.8679    6.7605 C   0  0  0  0  0  0  0  0  0  0  0  0
   -7.9688    1.9281    5.3001 N   0  0  0  0  0  0  0  0  0  0  0  0
   -7.3955    3.2098    4.8447 C   0  0  0  0  0  0  0  0  0  0  0  0
   -5.9054    3.2036    4.9684 C   0  0  0  0  0  0  0  0  0  0  0  0
   -5.1290    3.4004    6.1330 C   0  0  0  0  0  0  0  0  0  0  0  0
   -3.8337    3.1736    5.9300 N   0  0  0  0  0  0  0  0  0  0  0  0
   -3.7592    2.9512    4.6120 N   0  0  0  0  0  0  0  0  0  0  0  0
   -4.9695    2.9239    3.9915 C   0  0  0  0  0  0  0  0  0  0  0  0
   -7.3413    0.7892    4.6316 C   0  0  0  0  0  0  0  0  0  0  0  0
   -7.6680   -0.5687    5.2195 C   0  0  0  0  0  0  0  0  0  0  0  0
   -9.9749   -2.5763    4.0580 H   0  0  0  0  0  0  0  0  0  0  0  0
  -10.4510   -4.0309    4.7350 H   0  0  0  0  0  0  0  0  0  0  0  0
   -9.2469   -3.5707    7.7558 H   0  0  0  0  0  0  0  0  0  0  0  0
   -9.6925   -1.9459    8.2794 H   0  0  0  0  0  0  0  0  0  0  0  0
   -7.4937   -2.0211    8.3249 H   0  0  0  0  0  0  0  0  0  0  0  0
   -6.9043   -3.9949    7.2148 H   0  0  0  0  0  0  0  0  0  0  0  0
   -7.3118   -3.4009    5.6298 H   0  0  0  0  0  0  0  0  0  0  0  0
   -5.3074   -2.3073    5.3674 H   0  0  0  0  0  0  0  0  0  0  0  0
   -4.7772   -3.4203    6.5972 H   0  0  0  0  0  0  0  0  0  0  0  0
   -5.1303   -1.7673    8.3556 H   0  0  0  0  0  0  0  0  0  0  0  0
   -5.6682    0.5604    6.6631 H   0  0  0  0  0  0  0  0  0  0  0  0
   -8.4314    0.5142    8.4110 H   0  0  0  0  0  0  0  0  0  0  0  0
   -9.5167    0.3048    7.0794 H   0  0  0  0  0  0  0  0  0  0  0  0
   -7.1893    2.1944    7.2667 H   0  0  0  0  0  0  0  0  0  0  0  0
   -8.8795    2.5762    7.0693 H   0  0  0  0  0  0  0  0  0  0  0  0
   -7.6757    3.3694    3.7957 H   0  0  0  0  0  0  0  0  0  0  0  0
   -7.8251    4.0511    5.4022 H   0  0  0  0  0  0  0  0  0  0  0  0
   -5.4584    3.6539    7.1330 H   0  0  0  0  0  0  0  0  0  0  0  0
   -2.8330    2.8866    4.1976 H   0  0  0  0  0  0  0  0  0  0  0  0
   -5.0618    2.7153    2.9358 H   0  0  0  0  0  0  0  0  0  0  0  0
   -7.6432    0.7933    3.5762 H   0  0  0  0  0  0  0  0  0  0  0  0
   -6.2510    0.8325    4.6258 H   0  0  0  0  0  0  0  0  0  0  0  0
   -7.0308   -1.2991    4.7172 H   0  0  0  0  0  0  0  0  0  0  0  0
   -8.6733   -0.8085    4.8931 H   0  0  0  0  0  0  0  0  0  0  0  0
  1  2  1  0
  2  3  2  0
  2  4  2  0
  2  5  1  0
  5  6  1  0
  6  7  1  0
  7  8  1  0
  8  9  1  0
  9 10  1  0
 10 11  1  0
 10 12  1  0
 10 13  1  0
  9 14  1  0
 14 15  1  0
 14 16  1  0
 16 17  1  0
 17 18  1  0
 18 19  1  0
 19 20  1  0
 20 21  1  0
 21 22  1  0
 22 23  2  0
 23 24  1  0
 24 25  1  0
 19 26  1  0
 26 27  1  0
 16  6  1  0
 25 21  2  0
 27 16  1  0
  1 28  1  0
  1 29  1  0
  5 30  1  0
  5 31  1  0
  6 32  1  0
  7 33  1  0
  7 34  1  0
  8 35  1  0
  8 36  1  0
  9 37  1  0
 14 38  1  0
 17 39  1  0
 17 40  1  0
 18 41  1  0
 18 42  1  0
 20 43  1  0
 20 44  1  0
 22 45  1  0
 24 46  1  0
 25 47  1  0
 26 48  1  0
 26 49  1  0
 27 50  1  0
 27 51  1  0
M  END
>  <Energy>  (664) 
-32.67366044064125

>  <compound_id>  (664) 
922

>  <target_id>  (664) 
1

>  <reference_id>  (664) 
24

>  <inspiration_ids>  (664) 
[73, 24]

>  <energy_score>  (664) 
-66.87416689142998

>  <distance_score>  (664) 
1.6779101638252134

>  <path>  (664) 
/opt/xchem-fragalysis-2/maxwin/BulkDock/SCRATCH/505733/C922-P24/C922-P24.minimised.mol

>  <scratch_subdir>  (664) 
/opt/xchem-fragalysis-2/maxwin/BulkDock/SCRATCH/505733/C922-P24

>  <fragmenstein_runtime>  (664) 
13.816796064376831

>  <fragmenstein_outcome>  (664) 
too moved

>  <fragmenstein_mode>  (664) 
expansion

>  <fragmenstein_error>  (664) 


$$$$
C937-P73
     RDKit          3D

 54 57  0  0  0  0  0  0  0  0999 V2000
   -9.3956   -3.1700    4.7376 N   0  0  0  0  0  0  0  0  0  0  0  0
  -10.3810   -2.4020    5.8570 S   0  0  0  0  0  0  0  0  0  0  0  0
  -10.7049   -1.1138    5.2918 O   0  0  0  0  0  0  0  0  0  0  0  0
  -11.3828   -3.3609    6.2323 O   0  0  0  0  0  0  0  0  0  0  0  0
   -9.2499   -2.1216    7.2222 C   0  0  0  0  0  0  0  0  0  0  0  0
   -8.1276   -1.1888    6.7434 C   0  0  0  0  0  0  0  0  0  0  0  0
   -6.8656   -2.0597    6.6155 C   0  0  0  0  0  0  0  0  0  0  0  0
   -5.8792   -1.3562    5.7220 C   0  0  0  0  0  0  0  0  0  0  0  0
   -5.5102    0.0195    6.2651 C   0  0  0  0  0  0  0  0  0  0  0  0
   -4.1088    0.0679    6.8540 C   0  0  0  0  0  0  0  0  0  0  0  0
   -3.8076   -0.9505    8.2222 S   0  0  0  0  0  6  0  0  0  0  0  0
   -4.6625   -0.4816    9.2842 O   0  0  0  0  0  0  0  0  0  0  0  0
   -3.7950   -2.3150    7.7402 O   0  0  0  0  0  0  0  0  0  0  0  0
   -6.5899    0.7877    7.0675 C   0  0  0  0  0  0  0  0  0  0  0  0
   -5.9907    1.4801    8.0728 F   0  0  0  0  0  0  0  0  0  0  0  0
   -7.8952    0.1019    7.6018 C   0  0  0  0  0  0  0  0  0  0  0  0
   -9.1030    1.1816    7.4784 C   0  0  0  0  0  0  0  0  0  0  0  0
   -9.7089    1.7019    8.7712 N   0  0  0  0  0  0  0  0  0  0  0  0
  -10.9765    1.2392    9.2352 C   0  0  0  0  0  0  0  0  0  0  0  0
  -11.6392    0.2504    8.5991 C   0  0  0  0  0  0  0  0  0  0  0  0
  -12.8122   -0.3756    9.1518 C   0  0  0  0  0  0  0  0  0  0  0  0
  -13.3325    0.0264   10.3165 C   0  0  0  0  0  0  0  0  0  0  0  0
  -12.7553    1.1289   10.9793 C   0  0  0  0  0  0  0  0  0  0  0  0
  -13.0972    1.7471   12.0873 N   0  0  0  0  0  0  0  0  0  0  0  0
  -12.2648    2.8225   12.2310 N   0  0  0  0  0  0  0  0  0  0  0  0
  -11.4387    2.8320   11.2049 C   0  0  0  0  0  0  0  0  0  0  0  0
  -11.6306    1.7299   10.4095 N   0  0  0  0  0  0  0  0  0  0  0  0
   -8.5966    1.8623    9.7222 C   0  0  0  0  0  0  0  0  0  0  0  0
   -8.0923    0.4506   10.0227 C   0  0  0  0  0  0  0  0  0  0  0  0
   -7.6521   -0.3592    8.9281 O   0  0  0  0  0  0  0  0  0  0  0  0
   -9.0366   -4.0670    5.0792 H   0  0  0  0  0  0  0  0  0  0  0  0
   -8.7499   -2.5518    4.2539 H   0  0  0  0  0  0  0  0  0  0  0  0
   -9.8283   -1.6840    8.0333 H   0  0  0  0  0  0  0  0  0  0  0  0
   -8.9035   -3.1024    7.5649 H   0  0  0  0  0  0  0  0  0  0  0  0
   -8.3526   -0.8135    5.7371 H   0  0  0  0  0  0  0  0  0  0  0  0
   -7.0930   -3.0324    6.1649 H   0  0  0  0  0  0  0  0  0  0  0  0
   -6.4397   -2.2641    7.5998 H   0  0  0  0  0  0  0  0  0  0  0  0
   -4.9984   -1.9823    5.5439 H   0  0  0  0  0  0  0  0  0  0  0  0
   -6.3364   -1.2312    4.7303 H   0  0  0  0  0  0  0  0  0  0  0  0
   -5.3925    0.6245    5.3513 H   0  0  0  0  0  0  0  0  0  0  0  0
   -3.8298    1.0866    7.1373 H   0  0  0  0  0  0  0  0  0  0  0  0
   -3.4219   -0.2990    6.0971 H   0  0  0  0  0  0  0  0  0  0  0  0
   -2.5432   -0.7083    8.6067 H   0  0  0  0  0  0  0  0  0  0  0  0
   -6.9113    1.5573    6.3547 H   0  0  0  0  0  0  0  0  0  0  0  0
   -8.7314    2.0829    6.9746 H   0  0  0  0  0  0  0  0  0  0  0  0
   -9.8608    0.8292    6.7769 H   0  0  0  0  0  0  0  0  0  0  0  0
  -11.3272   -0.1825    7.6649 H   0  0  0  0  0  0  0  0  0  0  0  0
  -13.2547   -1.2043    8.6033 H   0  0  0  0  0  0  0  0  0  0  0  0
  -14.2137   -0.4440   10.7369 H   0  0  0  0  0  0  0  0  0  0  0  0
  -10.7004    3.5900   10.9942 H   0  0  0  0  0  0  0  0  0  0  0  0
   -8.8968    2.3838   10.6287 H   0  0  0  0  0  0  0  0  0  0  0  0
   -7.8186    2.4644    9.2456 H   0  0  0  0  0  0  0  0  0  0  0  0
   -7.2924    0.4619   10.7628 H   0  0  0  0  0  0  0  0  0  0  0  0
   -8.9212   -0.1016   10.4763 H   0  0  0  0  0  0  0  0  0  0  0  0
  1  2  1  0
  2  3  2  0
  2  4  2  0
  2  5  1  0
  5  6  1  0
  6  7  1  0
  7  8  1  0
  8  9  1  0
  9 10  1  0
 10 11  1  0
 11 12  2  0
 11 13  2  0
  9 14  1  0
 14 15  1  0
 14 16  1  0
 16 17  1  0
 17 18  1  0
 18 19  1  0
 19 20  2  0
 20 21  1  0
 21 22  2  0
 22 23  1  0
 23 24  2  0
 24 25  1  0
 25 26  2  0
 26 27  1  0
 18 28  1  0
 28 29  1  0
 29 30  1  0
 16  6  1  0
 27 19  1  0
 30 16  1  0
 27 23  1  0
  1 31  1  0
  1 32  1  0
  5 33  1  0
  5 34  1  0
  6 35  1  0
  7 36  1  0
  7 37  1  0
  8 38  1  0
  8 39  1  0
  9 40  1  0
 10 41  1  0
 10 42  1  0
 11 43  1  0
 14 44  1  0
 17 45  1  0
 17 46  1  0
 20 47  1  0
 21 48  1  0
 22 49  1  0
 26 50  1  0
 28 51  1  0
 28 52  1  0
 29 53  1  0
 29 54  1  0
M  END
>  <Energy>  (665) 
100.74171273559492

>  <compound_id>  (665) 
937

>  <target_id>  (665) 
1

>  <reference_id>  (665) 
73

>  <inspiration_ids>  (665) 
[73, 37]

>  <energy_score>  (665) 
-65.35433063656717

>  <distance_score>  (665) 
2.0285057937057847

>  <path>  (665) 
/opt/xchem-fragalysis-2/maxwin/BulkDock/SCRATCH/505733/C937-P73/C937-P73.minimised.mol

>  <scratch_subdir>  (665) 
/opt/xchem-fragalysis-2/maxwin/BulkDock/SCRATCH/505733/C937-P73

>  <fragmenstein_runtime>  (665) 
8.95894169807434

>  <fragmenstein_outcome>  (665) 
too moved

>  <fragmenstein_mode>  (665) 
expansion

>  <fragmenstein_error>  (665) 


$$$$
C937-P37
     RDKit          3D

 54 57  0  0  0  0  0  0  0  0999 V2000
  -10.4223   -2.8566    4.8493 N   0  0  0  0  0  0  0  0  0  0  0  0
  -11.1457   -1.7571    5.8856 S   0  0  0  0  0  0  0  0  0  0  0  0
  -10.9578   -0.4586    5.2804 O   0  0  0  0  0  0  0  0  0  0  0  0
  -12.4471   -2.2735    6.2181 O   0  0  0  0  0  0  0  0  0  0  0  0
  -10.1348   -1.8248    7.3325 C   0  0  0  0  0  0  0  0  0  0  0  0
   -8.7497   -1.2944    7.0487 C   0  0  0  0  0  0  0  0  0  0  0  0
   -7.8539   -2.5049    7.2977 C   0  0  0  0  0  0  0  0  0  0  0  0
   -6.4482   -2.2507    6.8867 C   0  0  0  0  0  0  0  0  0  0  0  0
   -6.0029   -0.7864    6.9253 C   0  0  0  0  0  0  0  0  0  0  0  0
   -4.5449   -0.6485    7.2664 C   0  0  0  0  0  0  0  0  0  0  0  0
   -3.6306   -0.4209    8.6478 S   0  0  0  0  0  6  0  0  0  0  0  0
   -2.4328   -1.2005    8.3950 O   0  0  0  0  0  0  0  0  0  0  0  0
   -3.5153    0.9924    8.8247 O   0  0  0  0  0  0  0  0  0  0  0  0
   -6.9275    0.3654    7.2250 C   0  0  0  0  0  0  0  0  0  0  0  0
   -6.2092    1.2324    7.9785 F   0  0  0  0  0  0  0  0  0  0  0  0
   -8.2874   -0.0310    7.8555 C   0  0  0  0  0  0  0  0  0  0  0  0
   -9.2624    1.2495    7.8620 C   0  0  0  0  0  0  0  0  0  0  0  0
  -10.0331    1.5188    9.1639 N   0  0  0  0  0  0  0  0  0  0  0  0
  -11.4226    1.2691    9.3069 C   0  0  0  0  0  0  0  0  0  0  0  0
  -12.1842    0.9277    8.2495 C   0  0  0  0  0  0  0  0  0  0  0  0
  -13.4602    0.2819    8.4359 C   0  0  0  0  0  0  0  0  0  0  0  0
  -13.9676    0.0558    9.6551 C   0  0  0  0  0  0  0  0  0  0  0  0
  -13.2960    0.5550   10.7891 C   0  0  0  0  0  0  0  0  0  0  0  0
  -13.6047    0.5274   12.0670 N   0  0  0  0  0  0  0  0  0  0  0  0
  -12.6527    1.2488   12.7360 N   0  0  0  0  0  0  0  0  0  0  0  0
  -11.7990    1.6997   11.8419 C   0  0  0  0  0  0  0  0  0  0  0  0
  -12.0827    1.2027   10.5883 N   0  0  0  0  0  0  0  0  0  0  0  0
   -9.2075    1.2794   10.3542 C   0  0  0  0  0  0  0  0  0  0  0  0
   -7.8581    0.7162   10.0060 C   0  0  0  0  0  0  0  0  0  0  0  0
   -7.9724   -0.4303    9.1836 O   0  0  0  0  0  0  0  0  0  0  0  0
  -11.1108   -3.6194    4.6967 H   0  0  0  0  0  0  0  0  0  0  0  0
  -10.2013   -2.4018    3.9634 H   0  0  0  0  0  0  0  0  0  0  0  0
  -10.6387   -1.2703    8.1213 H   0  0  0  0  0  0  0  0  0  0  0  0
  -10.1415   -2.8812    7.5998 H   0  0  0  0  0  0  0  0  0  0  0  0
   -8.6593   -1.0341    5.9856 H   0  0  0  0  0  0  0  0  0  0  0  0
   -8.2112   -3.3844    6.7439 H   0  0  0  0  0  0  0  0  0  0  0  0
   -7.9149   -2.7853    8.3500 H   0  0  0  0  0  0  0  0  0  0  0  0
   -5.7702   -2.9180    7.4177 H   0  0  0  0  0  0  0  0  0  0  0  0
   -6.3819   -2.6138    5.8553 H   0  0  0  0  0  0  0  0  0  0  0  0
   -5.9974   -0.6155    5.8389 H   0  0  0  0  0  0  0  0  0  0  0  0
   -4.0970    0.0736    6.5743 H   0  0  0  0  0  0  0  0  0  0  0  0
   -4.1798   -1.6720    7.1429 H   0  0  0  0  0  0  0  0  0  0  0  0
   -4.2357   -0.9129    9.7293 H   0  0  0  0  0  0  0  0  0  0  0  0
   -7.1465    0.9066    6.2932 H   0  0  0  0  0  0  0  0  0  0  0  0
   -8.6430    2.1482    7.7307 H   0  0  0  0  0  0  0  0  0  0  0  0
   -9.8946    1.2468    6.9736 H   0  0  0  0  0  0  0  0  0  0  0  0
  -11.8516    0.9743    7.2230 H   0  0  0  0  0  0  0  0  0  0  0  0
  -13.9726   -0.0928    7.5525 H   0  0  0  0  0  0  0  0  0  0  0  0
  -14.9055   -0.4717    9.7847 H   0  0  0  0  0  0  0  0  0  0  0  0
  -10.9894    2.3811   12.0432 H   0  0  0  0  0  0  0  0  0  0  0  0
   -9.1207    2.1870   10.9542 H   0  0  0  0  0  0  0  0  0  0  0  0
   -9.7107    0.4903   10.9065 H   0  0  0  0  0  0  0  0  0  0  0  0
   -7.2924    1.5000    9.5281 H   0  0  0  0  0  0  0  0  0  0  0  0
   -7.3012    0.4058   10.8690 H   0  0  0  0  0  0  0  0  0  0  0  0
  1  2  1  0
  2  3  2  0
  2  4  2  0
  2  5  1  0
  5  6  1  0
  6  7  1  0
  7  8  1  0
  8  9  1  0
  9 10  1  0
 10 11  1  0
 11 12  2  0
 11 13  2  0
  9 14  1  0
 14 15  1  0
 14 16  1  0
 16 17  1  0
 17 18  1  0
 18 19  1  0
 19 20  2  0
 20 21  1  0
 21 22  2  0
 22 23  1  0
 23 24  2  0
 24 25  1  0
 25 26  2  0
 26 27  1  0
 18 28  1  0
 28 29  1  0
 29 30  1  0
 16  6  1  0
 27 19  1  0
 30 16  1  0
 27 23  1  0
  1 31  1  0
  1 32  1  0
  5 33  1  0
  5 34  1  0
  6 35  1  0
  7 36  1  0
  7 37  1  0
  8 38  1  0
  8 39  1  0
  9 40  1  0
 10 41  1  0
 10 42  1  0
 11 43  1  0
 14 44  1  0
 17 45  1  0
 17 46  1  0
 20 47  1  0
 21 48  1  0
 22 49  1  0
 26 50  1  0
 28 51  1  0
 28 52  1  0
 29 53  1  0
 29 54  1  0
M  END
>  <Energy>  (666) 
129.98176778624611

>  <compound_id>  (666) 
937

>  <target_id>  (666) 
1

>  <reference_id>  (666) 
37

>  <inspiration_ids>  (666) 
[73, 37]

>  <energy_score>  (666) 
-36.114275585919415

>  <distance_score>  (666) 
2.114649744487504

>  <path>  (666) 
/opt/xchem-fragalysis-2/maxwin/BulkDock/SCRATCH/505733/C937-P37/C937-P37.minimised.mol

>  <scratch_subdir>  (666) 
/opt/xchem-fragalysis-2/maxwin/BulkDock/SCRATCH/505733/C937-P37

>  <fragmenstein_runtime>  (666) 
6.689468145370483

>  <fragmenstein_outcome>  (666) 
too moved

>  <fragmenstein_mode>  (666) 
expansion

>  <fragmenstein_error>  (666) 


$$$$
C938-P73
     RDKit          3D

 50 52  0  0  0  0  0  0  0  0999 V2000
   -9.4366   -2.3642    4.5039 N   0  0  0  0  0  0  0  0  0  0  0  0
  -10.2078   -2.3603    5.9924 S   0  0  0  0  0  0  0  0  0  0  0  0
  -10.6144   -0.9867    6.2011 O   0  0  0  0  0  0  0  0  0  0  0  0
  -11.1626   -3.4372    5.9295 O   0  0  0  0  0  0  0  0  0  0  0  0
   -8.9211   -2.7454    7.1619 C   0  0  0  0  0  0  0  0  0  0  0  0
   -7.5688   -2.0441    6.9776 C   0  0  0  0  0  0  0  0  0  0  0  0
   -6.6867   -2.8052    5.9681 C   0  0  0  0  0  0  0  0  0  0  0  0
   -5.7233   -1.9161    5.2066 C   0  0  0  0  0  0  0  0  0  0  0  0
   -5.0986   -0.8213    6.0567 C   0  0  0  0  0  0  0  0  0  0  0  0
   -4.0717   -1.3258    7.0499 C   0  0  0  0  0  0  0  0  0  0  0  0
   -4.1707   -0.2920    8.1372 C   0  0  0  0  0  0  0  0  0  0  0  0
   -5.5769   -0.0714    8.2678 O   0  0  0  0  0  0  0  0  0  0  0  0
   -6.0803   -0.0109    6.9170 C   0  0  0  0  0  0  0  0  0  0  0  0
   -7.5425   -0.4865    6.8511 C   0  0  0  0  0  0  0  0  0  0  0  0
   -8.2679   -0.0223    5.6202 N   0  0  0  0  0  0  0  0  0  0  0  0
   -7.9955    1.4882    4.9291 S   0  0  0  0  0  0  0  0  0  0  0  0
   -9.0713    1.7109    3.9958 O   0  0  0  0  0  0  0  0  0  0  0  0
   -6.6168    1.5641    4.5061 O   0  0  0  0  0  0  0  0  0  0  0  0
   -8.2269    2.4707    6.2673 N   0  0  0  0  0  0  0  0  0  0  0  0
   -9.6320    2.5947    6.7807 C   0  0  0  0  0  0  0  0  0  0  0  0
  -10.2591    3.9427    6.3866 C   0  0  0  0  0  0  0  0  0  0  0  0
   -9.5413    5.1181    6.9122 N   0  0  0  0  0  0  0  0  0  0  0  0
   -8.1213    4.8196    7.1595 C   0  0  0  0  0  0  0  0  0  0  0  0
   -7.5194    3.7889    6.1893 C   0  0  0  0  0  0  0  0  0  0  0  0
   -8.8913   -1.5003    4.3835 H   0  0  0  0  0  0  0  0  0  0  0  0
  -10.1400   -2.4492    3.7698 H   0  0  0  0  0  0  0  0  0  0  0  0
   -9.3285   -2.4585    8.1361 H   0  0  0  0  0  0  0  0  0  0  0  0
   -8.7978   -3.8340    7.1637 H   0  0  0  0  0  0  0  0  0  0  0  0
   -7.0714   -2.2223    7.9407 H   0  0  0  0  0  0  0  0  0  0  0  0
   -6.1175   -3.5652    6.5174 H   0  0  0  0  0  0  0  0  0  0  0  0
   -7.2792   -3.3753    5.2472 H   0  0  0  0  0  0  0  0  0  0  0  0
   -6.2612   -1.4501    4.3716 H   0  0  0  0  0  0  0  0  0  0  0  0
   -4.9400   -2.5318    4.7476 H   0  0  0  0  0  0  0  0  0  0  0  0
   -4.5993   -0.1314    5.3702 H   0  0  0  0  0  0  0  0  0  0  0  0
   -3.0665   -1.4063    6.6370 H   0  0  0  0  0  0  0  0  0  0  0  0
   -4.3514   -2.3078    7.4437 H   0  0  0  0  0  0  0  0  0  0  0  0
   -3.7752   -0.6442    9.0817 H   0  0  0  0  0  0  0  0  0  0  0  0
   -3.6796    0.6495    7.8671 H   0  0  0  0  0  0  0  0  0  0  0  0
   -5.9889    1.0485    6.6771 H   0  0  0  0  0  0  0  0  0  0  0  0
   -8.0853   -0.0804    7.7153 H   0  0  0  0  0  0  0  0  0  0  0  0
   -9.2876   -0.0328    5.7972 H   0  0  0  0  0  0  0  0  0  0  0  0
  -10.2655    1.7842    6.4098 H   0  0  0  0  0  0  0  0  0  0  0  0
   -9.6028    2.4858    7.8719 H   0  0  0  0  0  0  0  0  0  0  0  0
  -10.2923    4.0144    5.2923 H   0  0  0  0  0  0  0  0  0  0  0  0
  -11.2942    3.9844    6.7414 H   0  0  0  0  0  0  0  0  0  0  0  0
   -9.6271    5.8791    6.2391 H   0  0  0  0  0  0  0  0  0  0  0  0
   -7.5499    5.7531    7.1071 H   0  0  0  0  0  0  0  0  0  0  0  0
   -8.0215    4.4516    8.1880 H   0  0  0  0  0  0  0  0  0  0  0  0
   -7.5720    4.1852    5.1677 H   0  0  0  0  0  0  0  0  0  0  0  0
   -6.4657    3.6300    6.4437 H   0  0  0  0  0  0  0  0  0  0  0  0
  1  2  1  0
  2  3  2  0
  2  4  2  0
  2  5  1  0
  5  6  1  0
  6  7  1  0
  7  8  1  0
  8  9  1  0
  9 10  1  0
 10 11  1  0
 11 12  1  0
 12 13  1  0
 13 14  1  0
 14 15  1  0
 15 16  1  0
 16 17  2  0
 16 18  2  0
 16 19  1  0
 19 20  1  0
 20 21  1  0
 21 22  1  0
 22 23  1  0
 23 24  1  0
 14  6  1  0
 24 19  1  0
 13  9  1  0
  1 25  1  0
  1 26  1  0
  5 27  1  0
  5 28  1  0
  6 29  1  0
  7 30  1  0
  7 31  1  0
  8 32  1  0
  8 33  1  0
  9 34  1  0
 10 35  1  0
 10 36  1  0
 11 37  1  0
 11 38  1  0
 13 39  1  0
 14 40  1  0
 15 41  1  0
 20 42  1  0
 20 43  1  0
 21 44  1  0
 21 45  1  0
 22 46  1  0
 23 47  1  0
 23 48  1  0
 24 49  1  0
 24 50  1  0
M  END
>  <Energy>  (667) 
-174.09827770895788

>  <compound_id>  (667) 
938

>  <target_id>  (667) 
1

>  <reference_id>  (667) 
73

>  <inspiration_ids>  (667) 
[73, 65]

>  <energy_score>  (667) 
-79.65810314495874

>  <distance_score>  (667) 
1.1288251134817693

>  <path>  (667) 
/opt/xchem-fragalysis-2/maxwin/BulkDock/SCRATCH/505733/C938-P73/C938-P73.minimised.mol

>  <scratch_subdir>  (667) 
/opt/xchem-fragalysis-2/maxwin/BulkDock/SCRATCH/505733/C938-P73

>  <fragmenstein_runtime>  (667) 
3.40090012550354

>  <fragmenstein_outcome>  (667) 
too moved

>  <fragmenstein_mode>  (667) 
expansion

>  <fragmenstein_error>  (667) 


$$$$
C938-P65
     RDKit          3D

 50 52  0  0  0  0  0  0  0  0999 V2000
   -9.7098   -2.7154    5.1357 N   0  0  0  0  0  0  0  0  0  0  0  0
  -10.0711   -2.0459    6.6215 S   0  0  0  0  0  0  0  0  0  0  0  0
  -10.2709   -0.6326    6.3834 O   0  0  0  0  0  0  0  0  0  0  0  0
  -11.1125   -2.8797    7.1494 O   0  0  0  0  0  0  0  0  0  0  0  0
   -8.5974   -2.2924    7.5702 C   0  0  0  0  0  0  0  0  0  0  0  0
   -7.2720   -1.7810    6.9943 C   0  0  0  0  0  0  0  0  0  0  0  0
   -6.6027   -2.8311    6.0882 C   0  0  0  0  0  0  0  0  0  0  0  0
   -5.5529   -2.2540    5.1503 C   0  0  0  0  0  0  0  0  0  0  0  0
   -4.8296   -1.0242    5.6859 C   0  0  0  0  0  0  0  0  0  0  0  0
   -3.8709   -1.3198    6.8197 C   0  0  0  0  0  0  0  0  0  0  0  0
   -3.8641   -0.0314    7.5927 C   0  0  0  0  0  0  0  0  0  0  0  0
   -5.1967    0.4608    7.5162 O   0  0  0  0  0  0  0  0  0  0  0  0
   -5.7442    0.0721    6.2431 C   0  0  0  0  0  0  0  0  0  0  0  0
   -7.2191   -0.3343    6.4216 C   0  0  0  0  0  0  0  0  0  0  0  0
   -8.0351   -0.2375    5.1763 N   0  0  0  0  0  0  0  0  0  0  0  0
   -7.7591    0.8282    3.9304 S   0  0  0  0  0  0  0  0  0  0  0  0
   -8.9149    0.7574    3.0687 O   0  0  0  0  0  0  0  0  0  0  0  0
   -6.4318    0.6126    3.4084 O   0  0  0  0  0  0  0  0  0  0  0  0
   -7.7961    2.2968    4.7427 N   0  0  0  0  0  0  0  0  0  0  0  0
   -9.1119    2.7058    5.3383 C   0  0  0  0  0  0  0  0  0  0  0  0
   -9.7840    3.8243    4.5241 C   0  0  0  0  0  0  0  0  0  0  0  0
   -8.9890    5.0632    4.4290 N   0  0  0  0  0  0  0  0  0  0  0  0
   -7.5477    4.7858    4.5227 C   0  0  0  0  0  0  0  0  0  0  0  0
   -7.1324    3.4055    3.9873 C   0  0  0  0  0  0  0  0  0  0  0  0
   -9.6329   -1.9840    4.4285 H   0  0  0  0  0  0  0  0  0  0  0  0
  -10.5099   -3.3429    4.9832 H   0  0  0  0  0  0  0  0  0  0  0  0
   -8.7964   -1.7664    8.5112 H   0  0  0  0  0  0  0  0  0  0  0  0
   -8.5360   -3.3605    7.8077 H   0  0  0  0  0  0  0  0  0  0  0  0
   -6.6243   -1.7391    7.8825 H   0  0  0  0  0  0  0  0  0  0  0  0
   -6.1332   -3.5863    6.7299 H   0  0  0  0  0  0  0  0  0  0  0  0
   -7.3326   -3.3819    5.4893 H   0  0  0  0  0  0  0  0  0  0  0  0
   -6.0444   -1.9866    4.2068 H   0  0  0  0  0  0  0  0  0  0  0  0
   -4.8284   -3.0344    4.8905 H   0  0  0  0  0  0  0  0  0  0  0  0
   -4.2465   -0.5956    4.8591 H   0  0  0  0  0  0  0  0  0  0  0  0
   -2.8694   -1.5807    6.4789 H   0  0  0  0  0  0  0  0  0  0  0  0
   -4.2366   -2.1348    7.4501 H   0  0  0  0  0  0  0  0  0  0  0  0
   -3.5780   -0.1822    8.6343 H   0  0  0  0  0  0  0  0  0  0  0  0
   -3.1984    0.7108    7.1468 H   0  0  0  0  0  0  0  0  0  0  0  0
   -5.6445    0.9756    5.6398 H   0  0  0  0  0  0  0  0  0  0  0  0
   -7.6777    0.3367    7.1602 H   0  0  0  0  0  0  0  0  0  0  0  0
   -9.0278   -0.1242    5.4271 H   0  0  0  0  0  0  0  0  0  0  0  0
   -9.8007    1.8604    5.4085 H   0  0  0  0  0  0  0  0  0  0  0  0
   -8.9248    3.0377    6.3668 H   0  0  0  0  0  0  0  0  0  0  0  0
   -9.9827    3.4572    3.5094 H   0  0  0  0  0  0  0  0  0  0  0  0
  -10.7533    4.0714    4.9699 H   0  0  0  0  0  0  0  0  0  0  0  0
   -9.2026    5.5132    3.5389 H   0  0  0  0  0  0  0  0  0  0  0  0
   -7.0016    5.5689    3.9850 H   0  0  0  0  0  0  0  0  0  0  0  0
   -7.2520    4.8682    5.5759 H   0  0  0  0  0  0  0  0  0  0  0  0
   -7.3827    3.3426    2.9211 H   0  0  0  0  0  0  0  0  0  0  0  0
   -6.0475    3.2942    4.0938 H   0  0  0  0  0  0  0  0  0  0  0  0
  1  2  1  0
  2  3  2  0
  2  4  2  0
  2  5  1  0
  5  6  1  0
  6  7  1  0
  7  8  1  0
  8  9  1  0
  9 10  1  0
 10 11  1  0
 11 12  1  0
 12 13  1  0
 13 14  1  0
 14 15  1  0
 15 16  1  0
 16 17  2  0
 16 18  2  0
 16 19  1  0
 19 20  1  0
 20 21  1  0
 21 22  1  0
 22 23  1  0
 23 24  1  0
 14  6  1  0
 24 19  1  0
 13  9  1  0
  1 25  1  0
  1 26  1  0
  5 27  1  0
  5 28  1  0
  6 29  1  0
  7 30  1  0
  7 31  1  0
  8 32  1  0
  8 33  1  0
  9 34  1  0
 10 35  1  0
 10 36  1  0
 11 37  1  0
 11 38  1  0
 13 39  1  0
 14 40  1  0
 15 41  1  0
 20 42  1  0
 20 43  1  0
 21 44  1  0
 21 45  1  0
 22 46  1  0
 23 47  1  0
 23 48  1  0
 24 49  1  0
 24 50  1  0
M  END
>  <Energy>  (668) 
-175.13974723945057

>  <compound_id>  (668) 
938

>  <target_id>  (668) 
1

>  <reference_id>  (668) 
65

>  <inspiration_ids>  (668) 
[73, 65]

>  <energy_score>  (668) 
-80.69957267544925

>  <distance_score>  (668) 
1.2754773582191812

>  <path>  (668) 
/opt/xchem-fragalysis-2/maxwin/BulkDock/SCRATCH/505733/C938-P65/C938-P65.minimised.mol

>  <scratch_subdir>  (668) 
/opt/xchem-fragalysis-2/maxwin/BulkDock/SCRATCH/505733/C938-P65

>  <fragmenstein_runtime>  (668) 
4.488277912139893

>  <fragmenstein_outcome>  (668) 
too moved

>  <fragmenstein_mode>  (668) 
expansion

>  <fragmenstein_error>  (668) 


$$$$
C939-P73
     RDKit          3D

 48 51  0  0  0  0  0  0  0  0999 V2000
   -9.5885   -2.1985    4.4346 N   0  0  0  0  0  0  0  0  0  0  0  0
  -10.3821   -2.2764    5.9172 S   0  0  0  0  0  0  0  0  0  0  0  0
  -10.3631   -0.9244    6.4272 O   0  0  0  0  0  0  0  0  0  0  0  0
  -11.6174   -2.9683    5.6422 O   0  0  0  0  0  0  0  0  0  0  0  0
   -9.3494   -3.3559    6.9016 C   0  0  0  0  0  0  0  0  0  0  0  0
   -7.9946   -2.7644    7.0186 C   0  0  0  0  0  0  0  0  0  0  0  0
   -7.7335   -1.7848    7.9934 C   0  0  0  0  0  0  0  0  0  0  0  0
   -6.5170   -1.1400    8.0284 C   0  0  0  0  0  0  0  0  0  0  0  0
   -5.6455   -1.4331    7.0058 C   0  0  0  0  0  0  0  0  0  0  0  0
   -5.9185   -2.3490    5.9879 C   0  0  0  0  0  0  0  0  0  0  0  0
   -7.0559   -3.0988    6.0529 C   0  0  0  0  0  0  0  0  0  0  0  0
   -5.0520   -2.2415    4.8626 N   0  0  0  0  0  0  0  0  0  0  0  0
   -5.4907   -2.4593    3.5412 C   0  0  0  0  0  0  0  0  0  0  0  0
   -5.6329   -1.4647    2.5761 C   0  0  0  0  0  0  0  0  0  0  0  0
   -6.1291   -1.7681    1.3011 C   0  0  0  0  0  0  0  0  0  0  0  0
   -6.4620   -3.0773    0.9586 C   0  0  0  0  0  0  0  0  0  0  0  0
   -6.9299   -3.3846   -0.3233 N   0  0  0  0  0  0  0  0  0  0  0  0
   -7.1957   -4.8173   -0.5872 C   0  0  0  0  0  0  0  0  0  0  0  0
   -6.0638   -5.4240   -1.4289 C   0  0  0  0  0  0  0  0  0  0  0  0
   -5.9156   -4.8044   -2.7206 O   0  0  0  0  0  0  0  0  0  0  0  0
   -6.4323   -3.4655   -2.7606 C   0  0  0  0  0  0  0  0  0  0  0  0
   -6.2332   -2.7041   -1.4396 C   0  0  0  0  0  0  0  0  0  0  0  0
   -6.3491   -4.0497    1.8847 N   0  0  0  0  0  0  0  0  0  0  0  0
   -5.8610   -3.7307    3.1104 C   0  0  0  0  0  0  0  0  0  0  0  0
   -4.3648   -0.9653    5.1847 C   0  0  0  0  0  0  0  0  0  0  0  0
   -4.4220   -0.6897    6.7024 C   0  0  0  0  0  0  0  0  0  0  0  0
   -4.5773    0.6342    6.9545 F   0  0  0  0  0  0  0  0  0  0  0  0
   -3.0840   -1.3503    7.6221 Cl  0  0  0  0  0  0  0  0  0  0  0  0
  -10.2796   -2.2329    3.6850 H   0  0  0  0  0  0  0  0  0  0  0  0
   -9.0259   -1.3456    4.3980 H   0  0  0  0  0  0  0  0  0  0  0  0
   -9.7818   -3.4134    7.8856 H   0  0  0  0  0  0  0  0  0  0  0  0
   -9.3480   -4.3499    6.4492 H   0  0  0  0  0  0  0  0  0  0  0  0
   -8.5132   -1.5055    8.7006 H   0  0  0  0  0  0  0  0  0  0  0  0
   -6.3056   -0.3717    8.7653 H   0  0  0  0  0  0  0  0  0  0  0  0
   -7.3096   -3.8214    5.2907 H   0  0  0  0  0  0  0  0  0  0  0  0
   -5.3973   -0.4255    2.7713 H   0  0  0  0  0  0  0  0  0  0  0  0
   -6.2579   -0.9607    0.5883 H   0  0  0  0  0  0  0  0  0  0  0  0
   -8.1322   -4.8737   -1.1551 H   0  0  0  0  0  0  0  0  0  0  0  0
   -7.3421   -5.4124    0.3183 H   0  0  0  0  0  0  0  0  0  0  0  0
   -5.1038   -5.3373   -0.9073 H   0  0  0  0  0  0  0  0  0  0  0  0
   -6.2503   -6.4888   -1.6005 H   0  0  0  0  0  0  0  0  0  0  0  0
   -7.4953   -3.5178   -3.0241 H   0  0  0  0  0  0  0  0  0  0  0  0
   -5.9212   -2.9426   -3.5753 H   0  0  0  0  0  0  0  0  0  0  0  0
   -6.6225   -1.6866   -1.5552 H   0  0  0  0  0  0  0  0  0  0  0  0
   -5.1555   -2.6511   -1.2365 H   0  0  0  0  0  0  0  0  0  0  0  0
   -5.7639   -4.5826    3.7739 H   0  0  0  0  0  0  0  0  0  0  0  0
   -4.8777   -0.1210    4.7089 H   0  0  0  0  0  0  0  0  0  0  0  0
   -3.3483   -1.0086    4.7931 H   0  0  0  0  0  0  0  0  0  0  0  0
  1  2  1  0
  2  3  2  0
  2  4  2  0
  2  5  1  0
  5  6  1  0
  6  7  2  0
  7  8  1  0
  8  9  2  0
  9 10  1  0
 10 11  2  0
 10 12  1  0
 12 13  1  0
 13 14  2  0
 14 15  1  0
 15 16  2  0
 16 17  1  0
 17 18  1  0
 18 19  1  0
 19 20  1  0
 20 21  1  0
 21 22  1  0
 16 23  1  0
 23 24  2  0
 12 25  1  0
 25 26  1  0
 26 27  1  0
 26 28  1  0
 11  6  1  0
 24 13  1  0
 26  9  1  0
 22 17  1  0
  1 29  1  0
  1 30  1  0
  5 31  1  0
  5 32  1  0
  7 33  1  0
  8 34  1  0
 11 35  1  0
 14 36  1  0
 15 37  1  0
 18 38  1  0
 18 39  1  0
 19 40  1  0
 19 41  1  0
 21 42  1  0
 21 43  1  0
 22 44  1  0
 22 45  1  0
 24 46  1  0
 25 47  1  0
 25 48  1  0
M  END
>  <Energy>  (669) 
89.145575204457003

>  <compound_id>  (669) 
939

>  <target_id>  (669) 
1

>  <reference_id>  (669) 
73

>  <inspiration_ids>  (669) 
[73, 69]

>  <energy_score>  (669) 
-38.122781915455505

>  <distance_score>  (669) 
1.8220392376400711

>  <path>  (669) 
/opt/xchem-fragalysis-2/maxwin/BulkDock/SCRATCH/505733/C939-P73/C939-P73.minimised.mol

>  <scratch_subdir>  (669) 
/opt/xchem-fragalysis-2/maxwin/BulkDock/SCRATCH/505733/C939-P73

>  <fragmenstein_runtime>  (669) 
5.668900012969971

>  <fragmenstein_outcome>  (669) 
too moved

>  <fragmenstein_mode>  (669) 
expansion

>  <fragmenstein_error>  (669) 


$$$$
C939-P69
     RDKit          3D

 48 51  0  0  0  0  0  0  0  0999 V2000
  -10.4774   -2.2354    4.8406 N   0  0  0  0  0  0  0  0  0  0  0  0
  -10.7651   -1.9685    6.4744 S   0  0  0  0  0  0  0  0  0  0  0  0
  -10.9006   -0.5330    6.5969 O   0  0  0  0  0  0  0  0  0  0  0  0
  -11.8822   -2.8389    6.7668 O   0  0  0  0  0  0  0  0  0  0  0  0
   -9.2485   -2.5365    7.3148 C   0  0  0  0  0  0  0  0  0  0  0  0
   -8.0632   -1.8199    6.7126 C   0  0  0  0  0  0  0  0  0  0  0  0
   -7.6327   -0.5726    7.2116 C   0  0  0  0  0  0  0  0  0  0  0  0
   -6.6705    0.1828    6.5318 C   0  0  0  0  0  0  0  0  0  0  0  0
   -6.1907   -0.3011    5.3249 C   0  0  0  0  0  0  0  0  0  0  0  0
   -6.5802   -1.5545    4.8476 C   0  0  0  0  0  0  0  0  0  0  0  0
   -7.4585   -2.3471    5.5662 C   0  0  0  0  0  0  0  0  0  0  0  0
   -5.9887   -1.8539    3.5950 N   0  0  0  0  0  0  0  0  0  0  0  0
   -6.3353   -2.8544    2.7064 C   0  0  0  0  0  0  0  0  0  0  0  0
   -5.3284   -3.6549    2.1813 C   0  0  0  0  0  0  0  0  0  0  0  0
   -5.6481   -4.9213    1.7231 C   0  0  0  0  0  0  0  0  0  0  0  0
   -6.9669   -5.3300    1.8203 C   0  0  0  0  0  0  0  0  0  0  0  0
   -7.2879   -6.6585    2.0707 N   0  0  0  0  0  0  0  0  0  0  0  0
   -6.1295   -7.5361    3.1591 C   0  0  0  0  0  0  0  0  0  0  0  0
   -6.7127   -8.7504    4.7099 C   0  0  0  0  0  0  0  0  0  0  0  0
   -8.9588   -9.1493    4.4914 O   0  0  0  0  0  0  0  0  0  0  0  0
   -9.8233   -7.8184    3.3574 C   0  0  0  0  0  0  0  0  0  0  0  0
   -8.9918   -7.1137    1.8906 C   0  0  0  0  0  0  0  0  0  0  0  0
   -7.9764   -4.4698    2.0267 N   0  0  0  0  0  0  0  0  0  0  0  0
   -7.6437   -3.2522    2.4823 C   0  0  0  0  0  0  0  0  0  0  0  0
   -5.5911   -0.5388    3.0723 C   0  0  0  0  0  0  0  0  0  0  0  0
   -5.2399    0.2831    4.3264 C   0  0  0  0  0  0  0  0  0  0  0  0
   -3.9405   -0.0021    4.6146 F   0  0  0  0  0  0  0  0  0  0  0  0
   -5.4511    2.0154    4.0637 Cl  0  0  0  0  0  0  0  0  0  0  0  0
  -11.1613   -2.9025    4.4631 H   0  0  0  0  0  0  0  0  0  0  0  0
  -10.4936   -1.3422    4.3463 H   0  0  0  0  0  0  0  0  0  0  0  0
   -9.3468   -2.2929    8.3753 H   0  0  0  0  0  0  0  0  0  0  0  0
   -9.1797   -3.6219    7.1994 H   0  0  0  0  0  0  0  0  0  0  0  0
   -8.0875   -0.1599    8.1124 H   0  0  0  0  0  0  0  0  0  0  0  0
   -6.3689    1.1508    6.9186 H   0  0  0  0  0  0  0  0  0  0  0  0
   -7.7545   -3.3263    5.1981 H   0  0  0  0  0  0  0  0  0  0  0  0
   -4.2901   -3.3665    2.2989 H   0  0  0  0  0  0  0  0  0  0  0  0
   -4.8634   -5.6213    1.4660 H   0  0  0  0  0  0  0  0  0  0  0  0
   -5.7521   -8.2329    2.4201 H   0  0  0  0  0  0  0  0  0  0  0  0
   -5.2358   -6.9242    3.2725 H   0  0  0  0  0  0  0  0  0  0  0  0
   -6.3831   -8.2394    5.6267 H   0  0  0  0  0  0  0  0  0  0  0  0
   -5.9642   -9.5411    4.4582 H   0  0  0  0  0  0  0  0  0  0  0  0
  -10.1602   -7.0795    4.1213 H   0  0  0  0  0  0  0  0  0  0  0  0
  -10.8331   -7.9149    2.9626 H   0  0  0  0  0  0  0  0  0  0  0  0
   -9.5572   -6.2249    1.5897 H   0  0  0  0  0  0  0  0  0  0  0  0
   -9.0284   -7.8451    1.0699 H   0  0  0  0  0  0  0  0  0  0  0  0
   -8.4832   -2.6342    2.7842 H   0  0  0  0  0  0  0  0  0  0  0  0
   -6.4302   -0.0984    2.5147 H   0  0  0  0  0  0  0  0  0  0  0  0
   -4.7268   -0.6215    2.4028 H   0  0  0  0  0  0  0  0  0  0  0  0
  1  2  1  0
  2  3  2  0
  2  4  2  0
  2  5  1  0
  5  6  1  0
  6  7  2  0
  7  8  1  0
  8  9  2  0
  9 10  1  0
 10 11  2  0
 10 12  1  0
 12 13  1  0
 13 14  2  0
 14 15  1  0
 15 16  2  0
 16 17  1  0
 17 18  1  0
 18 19  1  0
 19 20  1  0
 20 21  1  0
 21 22  1  0
 16 23  1  0
 23 24  2  0
 12 25  1  0
 25 26  1  0
 26 27  1  0
 26 28  1  0
 11  6  1  0
 24 13  1  0
 26  9  1  0
 22 17  1  0
  1 29  1  0
  1 30  1  0
  5 31  1  0
  5 32  1  0
  7 33  1  0
  8 34  1  0
 11 35  1  0
 14 36  1  0
 15 37  1  0
 18 38  1  0
 18 39  1  0
 19 40  1  0
 19 41  1  0
 21 42  1  0
 21 43  1  0
 22 44  1  0
 22 45  1  0
 24 46  1  0
 25 47  1  0
 25 48  1  0
M  END
>  <Energy>  (670) 
631.8569911649472

>  <compound_id>  (670) 
939

>  <target_id>  (670) 
1

>  <reference_id>  (670) 
69

>  <inspiration_ids>  (670) 
[73, 69]

>  <energy_score>  (670) 
512.7430000830011

>  <distance_score>  (670) 
2.675107988300358

>  <path>  (670) 
/opt/xchem-fragalysis-2/maxwin/BulkDock/SCRATCH/505733/C939-P69/C939-P69.minimised.mol

>  <scratch_subdir>  (670) 
/opt/xchem-fragalysis-2/maxwin/BulkDock/SCRATCH/505733/C939-P69

>  <fragmenstein_runtime>  (670) 
6.456800222396851

>  <fragmenstein_outcome>  (670) 
too moved

>  <fragmenstein_mode>  (670) 
expansion

>  <fragmenstein_error>  (670) 


$$$$
C940-P73
     RDKit          3D

 53 56  0  0  0  0  0  0  0  0999 V2000
   -6.0096    0.5811    5.0933 C   0  0  0  0  0  0  0  0  0  0  0  0
   -5.3535    1.0347    6.3981 C   0  0  0  0  0  0  0  0  0  0  0  0
   -4.5597   -0.0226    7.2215 C   0  0  0  0  0  0  0  0  0  0  0  0
   -4.6054   -1.4838    6.7513 C   0  0  0  0  0  0  0  0  0  0  0  0
   -5.9718   -2.0649    6.7859 C   0  0  0  0  0  0  0  0  0  0  0  0
   -6.7198   -2.7407    5.8435 C   0  0  0  0  0  0  0  0  0  0  0  0
   -8.0355   -2.8942    6.3712 C   0  0  0  0  0  0  0  0  0  0  0  0
   -9.2453   -3.4026    5.6845 C   0  0  0  0  0  0  0  0  0  0  0  0
  -10.2329   -2.3293    5.3708 C   0  0  0  0  0  0  0  0  0  0  0  0
  -10.2116   -1.4523    4.3033 C   0  0  0  0  0  0  0  0  0  0  0  0
  -11.3861   -0.7594    4.3912 N   0  0  0  0  0  0  0  0  0  0  0  0
  -12.0455   -1.2013    5.5012 C   0  0  0  0  0  0  0  0  0  0  0  0
  -13.5917   -0.5372    5.8615 S   0  0  0  0  0  0  0  0  0  0  0  0
  -13.5704   -0.3881    7.5947 C   0  0  0  0  0  0  0  0  0  0  0  0
  -12.4566   -0.1450    8.3194 C   0  0  0  0  0  0  0  0  0  0  0  0
  -12.5501    0.0794    9.7544 C   0  0  0  0  0  0  0  0  0  0  0  0
  -13.7357    0.0877   10.3898 C   0  0  0  0  0  0  0  0  0  0  0  0
  -14.9223   -0.1599    9.6513 C   0  0  0  0  0  0  0  0  0  0  0  0
  -16.1903   -0.2127   10.0041 N   0  0  0  0  0  0  0  0  0  0  0  0
  -16.9277   -0.5120    8.8811 N   0  0  0  0  0  0  0  0  0  0  0  0
  -16.0899   -0.6271    7.8731 C   0  0  0  0  0  0  0  0  0  0  0  0
  -14.7984   -0.4059    8.2869 N   0  0  0  0  0  0  0  0  0  0  0  0
  -11.3765   -2.1438    6.1196 N   0  0  0  0  0  0  0  0  0  0  0  0
   -7.9968   -2.4530    7.6695 C   0  0  0  0  0  0  0  0  0  0  0  0
   -6.7622   -1.9270    7.8917 N   0  0  0  0  0  0  0  0  0  0  0  0
   -6.2474    1.9931    7.1848 C   0  0  0  0  0  0  0  0  0  0  0  0
   -7.5911    1.3631    8.1444 S   0  0  0  0  0  0  0  0  0  0  0  0
   -8.6421    0.7693    7.0021 N   0  0  0  0  0  0  0  0  0  0  0  0
   -7.1651    0.2964    9.0110 O   0  0  0  0  0  0  0  0  0  0  0  0
   -8.2660    2.4988    8.7088 O   0  0  0  0  0  0  0  0  0  0  0  0
   -6.9085   -0.0125    5.2555 H   0  0  0  0  0  0  0  0  0  0  0  0
   -5.3182    0.0023    4.4740 H   0  0  0  0  0  0  0  0  0  0  0  0
   -6.3103    1.4517    4.4985 H   0  0  0  0  0  0  0  0  0  0  0  0
   -4.5729    1.7269    6.0768 H   0  0  0  0  0  0  0  0  0  0  0  0
   -3.5023    0.2748    7.2036 H   0  0  0  0  0  0  0  0  0  0  0  0
   -4.8242    0.0417    8.2820 H   0  0  0  0  0  0  0  0  0  0  0  0
   -4.1853   -1.5632    5.7419 H   0  0  0  0  0  0  0  0  0  0  0  0
   -3.9520   -2.0821    7.3991 H   0  0  0  0  0  0  0  0  0  0  0  0
   -6.3880   -3.0064    4.8481 H   0  0  0  0  0  0  0  0  0  0  0  0
   -9.7150   -4.2046    6.2586 H   0  0  0  0  0  0  0  0  0  0  0  0
   -8.9512   -3.8094    4.7162 H   0  0  0  0  0  0  0  0  0  0  0  0
   -9.5040   -1.2949    3.5017 H   0  0  0  0  0  0  0  0  0  0  0  0
  -11.7359   -0.0597    3.7529 H   0  0  0  0  0  0  0  0  0  0  0  0
  -11.4643   -0.1001    7.8872 H   0  0  0  0  0  0  0  0  0  0  0  0
  -11.6236    0.2470   10.2957 H   0  0  0  0  0  0  0  0  0  0  0  0
  -13.8087    0.2628   11.4566 H   0  0  0  0  0  0  0  0  0  0  0  0
  -16.3530   -0.8752    6.8549 H   0  0  0  0  0  0  0  0  0  0  0  0
   -8.7691   -2.4123    8.4296 H   0  0  0  0  0  0  0  0  0  0  0  0
   -6.5242   -1.4077    8.7323 H   0  0  0  0  0  0  0  0  0  0  0  0
   -5.6254    2.5549    7.8837 H   0  0  0  0  0  0  0  0  0  0  0  0
   -6.6799    2.7451    6.5123 H   0  0  0  0  0  0  0  0  0  0  0  0
   -9.5461    1.2367    7.0661 H   0  0  0  0  0  0  0  0  0  0  0  0
   -8.7197   -0.2515    7.0157 H   0  0  0  0  0  0  0  0  0  0  0  0
  1  2  1  0
  2  3  1  0
  3  4  1  0
  4  5  1  0
  5  6  2  0
  6  7  1  0
  7  8  1  0
  8  9  1  0
  9 10  2  0
 10 11  1  0
 11 12  1  0
 12 13  1  0
 13 14  1  0
 14 15  2  0
 15 16  1  0
 16 17  2  0
 17 18  1  0
 18 19  2  0
 19 20  1  0
 20 21  2  0
 21 22  1  0
 12 23  2  0
  7 24  2  0
 24 25  1  0
  2 26  1  0
 26 27  1  0
 27 28  1  0
 27 29  2  0
 27 30  2  0
 25  5  1  0
 23  9  1  0
 22 14  1  0
 22 18  1  0
  1 31  1  0
  1 32  1  0
  1 33  1  0
  2 34  1  0
  3 35  1  0
  3 36  1  0
  4 37  1  0
  4 38  1  0
  6 39  1  0
  8 40  1  0
  8 41  1  0
 10 42  1  0
 11 43  1  0
 15 44  1  0
 16 45  1  0
 17 46  1  0
 21 47  1  0
 24 48  1  0
 25 49  1  0
 26 50  1  0
 26 51  1  0
 28 52  1  0
 28 53  1  0
M  END
>  <Energy>  (671) 
-22.419023968286471

>  <compound_id>  (671) 
940

>  <target_id>  (671) 
1

>  <reference_id>  (671) 
73

>  <inspiration_ids>  (671) 
[73, 84]

>  <energy_score>  (671) 
-48.90284808562387

>  <distance_score>  (671) 
1.4220332188098916

>  <path>  (671) 
/opt/xchem-fragalysis-2/maxwin/BulkDock/SCRATCH/505733/C940-P73/C940-P73.minimised.mol

>  <scratch_subdir>  (671) 
/opt/xchem-fragalysis-2/maxwin/BulkDock/SCRATCH/505733/C940-P73

>  <fragmenstein_runtime>  (671) 
6.165157079696655

>  <fragmenstein_outcome>  (671) 
too moved

>  <fragmenstein_mode>  (671) 
expansion

>  <fragmenstein_error>  (671) 


$$$$
C940-P84
     RDKit          3D

 53 56  0  0  0  0  0  0  0  0999 V2000
   -6.5537    0.7291    5.1515 C   0  0  0  0  0  0  0  0  0  0  0  0
   -6.0155    1.1298    6.5275 C   0  0  0  0  0  0  0  0  0  0  0  0
   -5.1189    0.0862    7.2776 C   0  0  0  0  0  0  0  0  0  0  0  0
   -4.9602   -1.3170    6.6610 C   0  0  0  0  0  0  0  0  0  0  0  0
   -6.2361   -2.0796    6.6763 C   0  0  0  0  0  0  0  0  0  0  0  0
   -6.9496   -2.7510    5.7026 C   0  0  0  0  0  0  0  0  0  0  0  0
   -8.2398   -3.0363    6.2488 C   0  0  0  0  0  0  0  0  0  0  0  0
   -9.4949   -3.4150    5.5465 C   0  0  0  0  0  0  0  0  0  0  0  0
  -10.0512   -2.2324    4.8210 C   0  0  0  0  0  0  0  0  0  0  0  0
   -9.7624   -1.8216    3.5334 C   0  0  0  0  0  0  0  0  0  0  0  0
  -10.4793   -0.6741    3.3547 N   0  0  0  0  0  0  0  0  0  0  0  0
  -11.1619   -0.4353    4.5091 C   0  0  0  0  0  0  0  0  0  0  0  0
  -12.1221    0.9908    4.6583 S   0  0  0  0  0  0  0  0  0  0  0  0
  -13.4332    0.2907    5.5526 C   0  0  0  0  0  0  0  0  0  0  0  0
  -13.4515    0.3083    6.9020 C   0  0  0  0  0  0  0  0  0  0  0  0
  -14.5838   -0.2673    7.6127 C   0  0  0  0  0  0  0  0  0  0  0  0
  -15.6402   -0.7794    6.9545 C   0  0  0  0  0  0  0  0  0  0  0  0
  -15.6472   -0.7811    5.5345 C   0  0  0  0  0  0  0  0  0  0  0  0
  -16.5301   -1.1918    4.6475 N   0  0  0  0  0  0  0  0  0  0  0  0
  -16.0055   -0.9706    3.3951 N   0  0  0  0  0  0  0  0  0  0  0  0
  -14.8204   -0.4241    3.5519 C   0  0  0  0  0  0  0  0  0  0  0  0
  -14.5337   -0.2653    4.8839 N   0  0  0  0  0  0  0  0  0  0  0  0
  -10.9203   -1.3418    5.4243 N   0  0  0  0  0  0  0  0  0  0  0  0
   -8.1724   -2.7562    7.5896 C   0  0  0  0  0  0  0  0  0  0  0  0
   -6.9970   -2.1125    7.8091 N   0  0  0  0  0  0  0  0  0  0  0  0
   -7.0389    1.9132    7.3386 C   0  0  0  0  0  0  0  0  0  0  0  0
   -8.3005    1.0352    8.1927 S   0  0  0  0  0  0  0  0  0  0  0  0
   -9.1669    0.3689    6.9592 N   0  0  0  0  0  0  0  0  0  0  0  0
   -7.7303    0.0023    9.0174 O   0  0  0  0  0  0  0  0  0  0  0  0
   -9.1765    2.0194    8.7667 O   0  0  0  0  0  0  0  0  0  0  0  0
   -7.3445   -0.0175    5.2090 H   0  0  0  0  0  0  0  0  0  0  0  0
   -5.7638    0.3388    4.5038 H   0  0  0  0  0  0  0  0  0  0  0  0
   -6.9764    1.6009    4.6385 H   0  0  0  0  0  0  0  0  0  0  0  0
   -5.3421    1.9648    6.3337 H   0  0  0  0  0  0  0  0  0  0  0  0
   -4.1135    0.5120    7.3786 H   0  0  0  0  0  0  0  0  0  0  0  0
   -5.4413   -0.0102    8.3152 H   0  0  0  0  0  0  0  0  0  0  0  0
   -4.5653   -1.2490    5.6419 H   0  0  0  0  0  0  0  0  0  0  0  0
   -4.2139   -1.8735    7.2423 H   0  0  0  0  0  0  0  0  0  0  0  0
   -6.6505   -2.8645    4.6691 H   0  0  0  0  0  0  0  0  0  0  0  0
  -10.2441   -3.7916    6.2473 H   0  0  0  0  0  0  0  0  0  0  0  0
   -9.3103   -4.1964    4.8165 H   0  0  0  0  0  0  0  0  0  0  0  0
   -9.1242   -2.2346    2.7663 H   0  0  0  0  0  0  0  0  0  0  0  0
  -10.5005   -0.0916    2.5314 H   0  0  0  0  0  0  0  0  0  0  0  0
  -12.6422    0.7213    7.4961 H   0  0  0  0  0  0  0  0  0  0  0  0
  -14.5430   -0.2899    8.6983 H   0  0  0  0  0  0  0  0  0  0  0  0
  -16.4772   -1.2209    7.4817 H   0  0  0  0  0  0  0  0  0  0  0  0
  -14.1502   -0.1339    2.7576 H   0  0  0  0  0  0  0  0  0  0  0  0
   -8.9213   -2.8231    8.3697 H   0  0  0  0  0  0  0  0  0  0  0  0
   -6.8100   -1.6028    8.6673 H   0  0  0  0  0  0  0  0  0  0  0  0
   -6.5143    2.5159    8.0807 H   0  0  0  0  0  0  0  0  0  0  0  0
   -7.5551    2.6404    6.6980 H   0  0  0  0  0  0  0  0  0  0  0  0
  -10.1564    0.6161    6.9871 H   0  0  0  0  0  0  0  0  0  0  0  0
   -9.0751   -0.6462    6.8583 H   0  0  0  0  0  0  0  0  0  0  0  0
  1  2  1  0
  2  3  1  0
  3  4  1  0
  4  5  1  0
  5  6  2  0
  6  7  1  0
  7  8  1  0
  8  9  1  0
  9 10  2  0
 10 11  1  0
 11 12  1  0
 12 13  1  0
 13 14  1  0
 14 15  2  0
 15 16  1  0
 16 17  2  0
 17 18  1  0
 18 19  2  0
 19 20  1  0
 20 21  2  0
 21 22  1  0
 12 23  2  0
  7 24  2  0
 24 25  1  0
  2 26  1  0
 26 27  1  0
 27 28  1  0
 27 29  2  0
 27 30  2  0
 25  5  1  0
 23  9  1  0
 22 14  1  0
 22 18  1  0
  1 31  1  0
  1 32  1  0
  1 33  1  0
  2 34  1  0
  3 35  1  0
  3 36  1  0
  4 37  1  0
  4 38  1  0
  6 39  1  0
  8 40  1  0
  8 41  1  0
 10 42  1  0
 11 43  1  0
 15 44  1  0
 16 45  1  0
 17 46  1  0
 21 47  1  0
 24 48  1  0
 25 49  1  0
 26 50  1  0
 26 51  1  0
 28 52  1  0
 28 53  1  0
M  END
>  <Energy>  (672) 
-22.276569738758653

>  <compound_id>  (672) 
940

>  <target_id>  (672) 
1

>  <reference_id>  (672) 
84

>  <inspiration_ids>  (672) 
[73, 84]

>  <energy_score>  (672) 
-48.760393856094424

>  <distance_score>  (672) 
1.6066063413089913

>  <path>  (672) 
/opt/xchem-fragalysis-2/maxwin/BulkDock/SCRATCH/505733/C940-P84/C940-P84.minimised.mol

>  <scratch_subdir>  (672) 
/opt/xchem-fragalysis-2/maxwin/BulkDock/SCRATCH/505733/C940-P84

>  <fragmenstein_runtime>  (672) 
5.140871524810791

>  <fragmenstein_outcome>  (672) 
too moved

>  <fragmenstein_mode>  (672) 
expansion

>  <fragmenstein_error>  (672) 


$$$$
C941-P73
     RDKit          3D

 52 56  0  0  0  0  0  0  0  0999 V2000
   -4.1852    0.1721    7.7699 C   0  0  0  0  0  0  0  0  0  0  0  0
   -5.4221   -0.5739    7.3974 C   0  0  0  0  0  0  0  0  0  0  0  0
   -6.3600   -0.9088    8.3461 C   0  0  0  0  0  0  0  0  0  0  0  0
   -6.2875   -0.3306    9.5468 F   0  0  0  0  0  0  0  0  0  0  0  0
   -7.4403   -1.7282    8.0402 C   0  0  0  0  0  0  0  0  0  0  0  0
   -7.5692   -2.2715    6.7679 C   0  0  0  0  0  0  0  0  0  0  0  0
   -8.6535   -3.2679    6.5089 C   0  0  0  0  0  0  0  0  0  0  0  0
  -10.1228   -2.4674    5.8635 S   0  0  0  0  0  0  0  0  0  0  0  0
   -9.6306   -1.9213    4.3462 N   0  0  0  0  0  0  0  0  0  0  0  0
  -10.4517   -1.2649    6.5944 O   0  0  0  0  0  0  0  0  0  0  0  0
  -11.1130   -3.4733    5.5690 O   0  0  0  0  0  0  0  0  0  0  0  0
   -6.7601   -1.7464    5.7611 C   0  0  0  0  0  0  0  0  0  0  0  0
   -5.8574   -0.7222    6.0870 C   0  0  0  0  0  0  0  0  0  0  0  0
   -5.8269    0.4342    5.2518 N   0  0  0  0  0  0  0  0  0  0  0  0
   -5.8942    1.7204    5.8372 O   0  0  0  0  0  0  0  0  0  0  0  0
   -7.0711    2.0642    6.4908 C   0  0  0  0  0  0  0  0  0  0  0  0
   -6.9872    3.2625    7.2155 C   0  0  0  0  0  0  0  0  0  0  0  0
   -8.0723    3.7489    7.9635 C   0  0  0  0  0  0  0  0  0  0  0  0
   -9.2501    2.9929    8.0016 C   0  0  0  0  0  0  0  0  0  0  0  0
  -10.4307    3.2193    8.6694 N   0  0  0  0  0  0  0  0  0  0  0  0
  -11.1792    2.1789    8.3889 C   0  0  0  0  0  0  0  0  0  0  0  0
  -12.7903    1.8498    8.9170 S   0  0  0  0  0  0  0  0  0  0  0  0
  -12.8470    2.9391   10.2670 C   0  0  0  0  0  0  0  0  0  0  0  0
  -12.7854    2.4615   11.5281 C   0  0  0  0  0  0  0  0  0  0  0  0
  -12.8622    3.3800   12.6547 C   0  0  0  0  0  0  0  0  0  0  0  0
  -13.0285    4.7028   12.4704 C   0  0  0  0  0  0  0  0  0  0  0  0
  -13.1290    5.2178   11.1505 C   0  0  0  0  0  0  0  0  0  0  0  0
  -13.3365    6.4325   10.6894 N   0  0  0  0  0  0  0  0  0  0  0  0
  -13.3464    6.3635    9.3152 N   0  0  0  0  0  0  0  0  0  0  0  0
  -13.1397    5.1100    8.9756 C   0  0  0  0  0  0  0  0  0  0  0  0
  -13.0160    4.3227   10.0918 N   0  0  0  0  0  0  0  0  0  0  0  0
  -10.5532    1.3037    7.5532 N   0  0  0  0  0  0  0  0  0  0  0  0
   -9.3106    1.8128    7.2710 C   0  0  0  0  0  0  0  0  0  0  0  0
   -8.2624    1.3348    6.4792 C   0  0  0  0  0  0  0  0  0  0  0  0
   -3.4147    0.0368    7.0074 H   0  0  0  0  0  0  0  0  0  0  0  0
   -4.3795    1.2392    7.8995 H   0  0  0  0  0  0  0  0  0  0  0  0
   -3.7757   -0.2228    8.7045 H   0  0  0  0  0  0  0  0  0  0  0  0
   -8.1849   -1.9493    8.7937 H   0  0  0  0  0  0  0  0  0  0  0  0
   -8.3233   -4.0043    5.7820 H   0  0  0  0  0  0  0  0  0  0  0  0
   -8.9400   -3.7989    7.4214 H   0  0  0  0  0  0  0  0  0  0  0  0
  -10.2586   -2.3137    3.6430 H   0  0  0  0  0  0  0  0  0  0  0  0
   -9.6649   -0.8990    4.3384 H   0  0  0  0  0  0  0  0  0  0  0  0
   -6.9753   -1.9685    4.7192 H   0  0  0  0  0  0  0  0  0  0  0  0
   -6.2829    0.3535    4.3501 H   0  0  0  0  0  0  0  0  0  0  0  0
   -6.0574    3.8281    7.2163 H   0  0  0  0  0  0  0  0  0  0  0  0
   -7.9966    4.6726    8.5269 H   0  0  0  0  0  0  0  0  0  0  0  0
  -12.6721    1.4037   11.7447 H   0  0  0  0  0  0  0  0  0  0  0  0
  -12.7755    2.9646   13.6543 H   0  0  0  0  0  0  0  0  0  0  0  0
  -13.0854    5.3938   13.3036 H   0  0  0  0  0  0  0  0  0  0  0  0
  -13.0718    4.7298    7.9675 H   0  0  0  0  0  0  0  0  0  0  0  0
  -10.9107    0.4049    7.2454 H   0  0  0  0  0  0  0  0  0  0  0  0
   -8.3819    0.4301    5.9083 H   0  0  0  0  0  0  0  0  0  0  0  0
  1  2  1  0
  2  3  2  0
  3  4  1  0
  3  5  1  0
  5  6  2  0
  6  7  1  0
  7  8  1  0
  8  9  1  0
  8 10  2  0
  8 11  2  0
  6 12  1  0
 12 13  2  0
 13 14  1  0
 14 15  1  0
 15 16  1  0
 16 17  2  0
 17 18  1  0
 18 19  2  0
 19 20  1  0
 20 21  2  0
 21 22  1  0
 22 23  1  0
 23 24  2  0
 24 25  1  0
 25 26  2  0
 26 27  1  0
 27 28  2  0
 28 29  1  0
 29 30  2  0
 30 31  1  0
 21 32  1  0
 32 33  1  0
 33 34  2  0
 13  2  1  0
 34 16  1  0
 33 19  1  0
 31 23  1  0
 31 27  1  0
  1 35  1  0
  1 36  1  0
  1 37  1  0
  5 38  1  0
  7 39  1  0
  7 40  1  0
  9 41  1  0
  9 42  1  0
 12 43  1  0
 14 44  1  0
 17 45  1  0
 18 46  1  0
 24 47  1  0
 25 48  1  0
 26 49  1  0
 30 50  1  0
 32 51  1  0
 34 52  1  0
M  END
>  <Energy>  (673) 
25.088872931915109

>  <compound_id>  (673) 
941

>  <target_id>  (673) 
1

>  <reference_id>  (673) 
73

>  <inspiration_ids>  (673) 
[73, 91]

>  <energy_score>  (673) 
-32.450802004495074

>  <distance_score>  (673) 
1.2971650709275164

>  <path>  (673) 
/opt/xchem-fragalysis-2/maxwin/BulkDock/SCRATCH/505733/C941-P73/C941-P73.minimised.mol

>  <scratch_subdir>  (673) 
/opt/xchem-fragalysis-2/maxwin/BulkDock/SCRATCH/505733/C941-P73

>  <fragmenstein_runtime>  (673) 
14.52397608757019

>  <fragmenstein_outcome>  (673) 
too moved

>  <fragmenstein_mode>  (673) 
expansion

>  <fragmenstein_error>  (673) 


$$$$
C943-P73
     RDKit          3D

 33 34  0  0  0  0  0  0  0  0999 V2000
   -9.5692   -2.8697    6.4612 C   0  0  0  0  0  0  0  0  0  0  0  0
   -8.6591   -2.9146    7.6706 C   0  0  0  0  0  0  0  0  0  0  0  0
   -7.2848   -2.6483    7.3243 N   0  0  0  0  0  0  0  0  0  0  0  0
   -6.4733   -3.4454    6.5744 C   0  0  0  0  0  0  0  0  0  0  0  0
   -5.2779   -2.7803    6.4708 C   0  0  0  0  0  0  0  0  0  0  0  0
   -5.5004   -1.5513    7.1279 C   0  0  0  0  0  0  0  0  0  0  0  0
   -4.7463   -0.2803    6.8916 C   0  0  0  0  0  0  0  0  0  0  0  0
   -5.3478    0.4694    5.7243 N   0  0  0  0  0  0  0  0  0  0  0  0
   -5.0828   -0.2640    4.4524 C   0  0  0  0  0  0  0  0  0  0  0  0
   -6.6401    1.0614    5.8787 C   0  0  0  0  0  0  0  0  0  0  0  0
   -7.1116    1.5361    7.0426 C   0  0  0  0  0  0  0  0  0  0  0  0
   -8.5545    1.8037    7.1376 C   0  0  0  0  0  0  0  0  0  0  0  0
   -9.4001    1.8583    6.1682 N   0  0  0  0  0  0  0  0  0  0  0  0
   -8.9186    1.7351    4.8916 C   0  0  0  0  0  0  0  0  0  0  0  0
   -9.5694    2.1023    3.9139 O   0  0  0  0  0  0  0  0  0  0  0  0
   -7.5760    1.0538    4.6817 C   0  0  0  0  0  0  0  0  0  0  0  0
   -6.6887   -1.5241    7.7455 N   0  0  0  0  0  0  0  0  0  0  0  0
   -9.3195   -3.6535    5.7399 H   0  0  0  0  0  0  0  0  0  0  0  0
  -10.6127   -3.0077    6.7592 H   0  0  0  0  0  0  0  0  0  0  0  0
   -9.4907   -1.9062    5.9455 H   0  0  0  0  0  0  0  0  0  0  0  0
   -8.6887   -3.9003    8.1450 H   0  0  0  0  0  0  0  0  0  0  0  0
   -8.9753   -2.1693    8.4079 H   0  0  0  0  0  0  0  0  0  0  0  0
   -6.8176   -4.3878    6.1723 H   0  0  0  0  0  0  0  0  0  0  0  0
   -4.4242   -3.0680    5.8769 H   0  0  0  0  0  0  0  0  0  0  0  0
   -4.7351    0.3455    7.7908 H   0  0  0  0  0  0  0  0  0  0  0  0
   -3.6947   -0.5035    6.6762 H   0  0  0  0  0  0  0  0  0  0  0  0
   -5.1412    0.4134    3.5944 H   0  0  0  0  0  0  0  0  0  0  0  0
   -5.8103   -1.0677    4.2952 H   0  0  0  0  0  0  0  0  0  0  0  0
   -4.0874   -0.7215    4.4487 H   0  0  0  0  0  0  0  0  0  0  0  0
   -6.5491    1.5669    7.9639 H   0  0  0  0  0  0  0  0  0  0  0  0
   -8.9292    1.9379    8.1666 H   0  0  0  0  0  0  0  0  0  0  0  0
   -7.7989    0.0226    4.3850 H   0  0  0  0  0  0  0  0  0  0  0  0
   -7.0931    1.5733    3.8456 H   0  0  0  0  0  0  0  0  0  0  0  0
  1  2  1  0
  2  3  1  0
  3  4  1  0
  4  5  2  0
  5  6  1  0
  6  7  1  0
  7  8  1  0
  8  9  1  0
  8 10  1  0
 10 11  2  0
 11 12  1  0
 12 13  2  0
 13 14  1  0
 14 15  2  0
 14 16  1  0
  6 17  2  0
 17  3  1  0
 16 10  1  0
  1 18  1  0
  1 19  1  0
  1 20  1  0
  2 21  1  0
  2 22  1  0
  4 23  1  0
  5 24  1  0
  7 25  1  0
  7 26  1  0
  9 27  1  0
  9 28  1  0
  9 29  1  0
 11 30  1  0
 12 31  1  0
 16 32  1  0
 16 33  1  0
M  END
>  <Energy>  (674) 
81.299792061833088

>  <compound_id>  (674) 
943

>  <target_id>  (674) 
1

>  <reference_id>  (674) 
73

>  <inspiration_ids>  (674) 
[73, 99]

>  <energy_score>  (674) 
-14.827626329935526

>  <distance_score>  (674) 
1.982261263943316

>  <path>  (674) 
/opt/xchem-fragalysis-2/maxwin/BulkDock/SCRATCH/505733/C943-P73/C943-P73.minimised.mol

>  <scratch_subdir>  (674) 
/opt/xchem-fragalysis-2/maxwin/BulkDock/SCRATCH/505733/C943-P73

>  <fragmenstein_runtime>  (674) 
2.319655179977417

>  <fragmenstein_outcome>  (674) 
too moved

>  <fragmenstein_mode>  (674) 
expansion

>  <fragmenstein_error>  (674) 


$$$$
C943-P99
     RDKit          3D

 33 34  0  0  0  0  0  0  0  0999 V2000
   -9.6464   -2.9977    6.3724 C   0  0  0  0  0  0  0  0  0  0  0  0
   -8.6565   -3.1836    7.4993 C   0  0  0  0  0  0  0  0  0  0  0  0
   -7.3165   -2.8290    7.1038 N   0  0  0  0  0  0  0  0  0  0  0  0
   -6.5213   -3.5021    6.2266 C   0  0  0  0  0  0  0  0  0  0  0  0
   -5.3694   -2.7633    6.1162 C   0  0  0  0  0  0  0  0  0  0  0  0
   -5.5823   -1.6477    6.9534 C   0  0  0  0  0  0  0  0  0  0  0  0
   -4.8326   -0.3565    6.9538 C   0  0  0  0  0  0  0  0  0  0  0  0
   -5.4268    0.6195    5.9650 N   0  0  0  0  0  0  0  0  0  0  0  0
   -5.0016    0.2833    4.5801 C   0  0  0  0  0  0  0  0  0  0  0  0
   -6.7616    1.0850    6.1617 C   0  0  0  0  0  0  0  0  0  0  0  0
   -7.3149    1.2681    7.3708 C   0  0  0  0  0  0  0  0  0  0  0  0
   -8.7754    1.4191    7.4394 C   0  0  0  0  0  0  0  0  0  0  0  0
   -9.5811    1.6312    6.4576 N   0  0  0  0  0  0  0  0  0  0  0  0
   -9.0384    1.8114    5.2118 C   0  0  0  0  0  0  0  0  0  0  0  0
   -9.6739    2.3392    4.2993 O   0  0  0  0  0  0  0  0  0  0  0  0
   -7.6410    1.2756    4.9383 C   0  0  0  0  0  0  0  0  0  0  0  0
   -6.7382   -1.7390    7.6208 N   0  0  0  0  0  0  0  0  0  0  0  0
   -9.4367   -3.6751    5.5382 H   0  0  0  0  0  0  0  0  0  0  0  0
  -10.6630   -3.1968    6.7221 H   0  0  0  0  0  0  0  0  0  0  0  0
   -9.6178   -1.9732    5.9853 H   0  0  0  0  0  0  0  0  0  0  0  0
   -8.6332   -4.2247    7.8344 H   0  0  0  0  0  0  0  0  0  0  0  0
   -8.9379   -2.5570    8.3512 H   0  0  0  0  0  0  0  0  0  0  0  0
   -6.8536   -4.4104    5.7427 H   0  0  0  0  0  0  0  0  0  0  0  0
   -4.5436   -2.9489    5.4466 H   0  0  0  0  0  0  0  0  0  0  0  0
   -4.8251    0.0886    7.9558 H   0  0  0  0  0  0  0  0  0  0  0  0
   -3.7801   -0.5500    6.7134 H   0  0  0  0  0  0  0  0  0  0  0  0
   -5.0119    1.1805    3.9525 H   0  0  0  0  0  0  0  0  0  0  0  0
   -5.6586   -0.4718    4.1355 H   0  0  0  0  0  0  0  0  0  0  0  0
   -3.9849   -0.1230    4.5476 H   0  0  0  0  0  0  0  0  0  0  0  0
   -6.7951    1.1248    8.3067 H   0  0  0  0  0  0  0  0  0  0  0  0
   -9.2013    1.3044    8.4507 H   0  0  0  0  0  0  0  0  0  0  0  0
   -7.7734    0.3190    4.4201 H   0  0  0  0  0  0  0  0  0  0  0  0
   -7.1624    1.9901    4.2583 H   0  0  0  0  0  0  0  0  0  0  0  0
  1  2  1  0
  2  3  1  0
  3  4  1  0
  4  5  2  0
  5  6  1  0
  6  7  1  0
  7  8  1  0
  8  9  1  0
  8 10  1  0
 10 11  2  0
 11 12  1  0
 12 13  2  0
 13 14  1  0
 14 15  2  0
 14 16  1  0
  6 17  2  0
 17  3  1  0
 16 10  1  0
  1 18  1  0
  1 19  1  0
  1 20  1  0
  2 21  1  0
  2 22  1  0
  4 23  1  0
  5 24  1  0
  7 25  1  0
  7 26  1  0
  9 27  1  0
  9 28  1  0
  9 29  1  0
 11 30  1  0
 12 31  1  0
 16 32  1  0
 16 33  1  0
M  END
>  <Energy>  (675) 
77.92844927175625

>  <compound_id>  (675) 
943

>  <target_id>  (675) 
1

>  <reference_id>  (675) 
99

>  <inspiration_ids>  (675) 
[73, 99]

>  <energy_score>  (675) 
-18.198969120012464

>  <distance_score>  (675) 
1.8972918516652886

>  <path>  (675) 
/opt/xchem-fragalysis-2/maxwin/BulkDock/SCRATCH/505733/C943-P99/C943-P99.minimised.mol

>  <scratch_subdir>  (675) 
/opt/xchem-fragalysis-2/maxwin/BulkDock/SCRATCH/505733/C943-P99

>  <fragmenstein_runtime>  (675) 
2.3051376342773438

>  <fragmenstein_outcome>  (675) 
too moved

>  <fragmenstein_mode>  (675) 
expansion

>  <fragmenstein_error>  (675) 


$$$$
C948-P73
     RDKit          3D

 33 34  0  0  0  0  0  0  0  0999 V2000
   -4.1697    0.0487    7.6007 C   0  0  0  0  0  0  0  0  0  0  0  0
   -4.5853   -1.2959    7.0243 C   0  0  0  0  0  0  0  0  0  0  0  0
   -5.9765   -1.3711    6.5613 N   0  0  0  0  0  0  0  0  0  0  0  0
   -6.2840   -2.7269    6.1248 C   0  0  0  0  0  0  0  0  0  0  0  0
   -7.7306   -2.7967    6.1000 N   0  0  0  0  0  0  0  0  0  0  0  0
   -8.1770   -2.0138    7.2643 C   0  0  0  0  0  0  0  0  0  0  0  0
   -9.5004   -1.3316    6.9014 C   0  0  0  0  0  0  0  0  0  0  0  0
   -9.8889   -0.1332    7.7894 C   0  0  0  0  0  0  0  0  0  0  0  0
  -10.9679   -0.4756    8.8547 C   0  0  0  0  0  0  0  0  0  0  0  0
  -12.2360   -0.7752    8.2127 N   0  0  0  0  0  0  0  0  0  0  0  0
  -10.6785   -0.4083   10.0161 O   0  0  0  0  0  0  0  0  0  0  0  0
   -8.6708    0.5726    8.4119 C   0  0  0  0  0  0  0  0  0  0  0  0
   -7.4203    0.4009    7.5608 C   0  0  0  0  0  0  0  0  0  0  0  0
   -6.9961   -1.0681    7.5797 C   0  0  0  0  0  0  0  0  0  0  0  0
   -4.6319    0.2286    8.5754 H   0  0  0  0  0  0  0  0  0  0  0  0
   -4.4219    0.8717    6.9255 H   0  0  0  0  0  0  0  0  0  0  0  0
   -3.0877    0.0607    7.7530 H   0  0  0  0  0  0  0  0  0  0  0  0
   -4.3729   -2.0659    7.7736 H   0  0  0  0  0  0  0  0  0  0  0  0
   -3.9313   -1.5038    6.1680 H   0  0  0  0  0  0  0  0  0  0  0  0
   -5.9002   -3.4792    6.8222 H   0  0  0  0  0  0  0  0  0  0  0  0
   -5.8699   -2.9312    5.1324 H   0  0  0  0  0  0  0  0  0  0  0  0
   -8.0371   -3.7657    6.1721 H   0  0  0  0  0  0  0  0  0  0  0  0
   -8.3305   -2.6887    8.1160 H   0  0  0  0  0  0  0  0  0  0  0  0
   -9.4289   -0.9507    5.8716 H   0  0  0  0  0  0  0  0  0  0  0  0
  -10.2917   -2.0908    6.8758 H   0  0  0  0  0  0  0  0  0  0  0  0
  -10.3618    0.6107    7.1298 H   0  0  0  0  0  0  0  0  0  0  0  0
  -12.0861   -0.8606    7.1917 H   0  0  0  0  0  0  0  0  0  0  0  0
  -12.1407   -0.6296    7.1918 H   0  0  0  0  0  0  0  0  0  0  0  0
   -8.4588    0.2041    9.4224 H   0  0  0  0  0  0  0  0  0  0  0  0
   -8.8967    1.6405    8.5235 H   0  0  0  0  0  0  0  0  0  0  0  0
   -6.6327    1.0436    7.9638 H   0  0  0  0  0  0  0  0  0  0  0  0
   -7.6130    0.7459    6.5368 H   0  0  0  0  0  0  0  0  0  0  0  0
   -6.6215   -1.3269    8.5782 H   0  0  0  0  0  0  0  0  0  0  0  0
  1  2  1  0
  2  3  1  0
  3  4  1  0
  4  5  1  0
  5  6  1  0
  6  7  1  0
  7  8  1  0
  8  9  1  0
  9 10  1  0
  9 11  2  0
  8 12  1  0
 12 13  1  0
 13 14  1  0
 14  3  1  0
 14  6  1  0
  1 15  1  0
  1 16  1  0
  1 17  1  0
  2 18  1  0
  2 19  1  0
  4 20  1  0
  4 21  1  0
  5 22  1  0
  6 23  1  0
  7 24  1  0
  7 25  1  0
  8 26  1  0
 10 27  1  0
 10 28  1  0
 12 29  1  0
 12 30  1  0
 13 31  1  0
 13 32  1  0
 14 33  1  0
M  END
>  <Energy>  (676) 
153.70802013924953

>  <compound_id>  (676) 
948

>  <target_id>  (676) 
1

>  <reference_id>  (676) 
73

>  <inspiration_ids>  (676) 
[73, 169]

>  <energy_score>  (676) 
134.83560899202973

>  <distance_score>  (676) 
1.748697267846493

>  <path>  (676) 
/opt/xchem-fragalysis-2/maxwin/BulkDock/SCRATCH/505733/C948-P73/C948-P73.minimised.mol

>  <scratch_subdir>  (676) 
/opt/xchem-fragalysis-2/maxwin/BulkDock/SCRATCH/505733/C948-P73

>  <fragmenstein_runtime>  (676) 
14.33416485786438

>  <fragmenstein_outcome>  (676) 
too moved

>  <fragmenstein_mode>  (676) 
expansion

>  <fragmenstein_error>  (676) 


$$$$
C948-P169
     RDKit          3D

 33 34  0  0  0  0  0  0  0  0999 V2000
   -4.8866    0.7803    7.1590 C   0  0  0  0  0  0  0  0  0  0  0  0
   -4.8103   -0.6509    7.6598 C   0  0  0  0  0  0  0  0  0  0  0  0
   -5.7132   -1.6100    7.0660 N   0  0  0  0  0  0  0  0  0  0  0  0
   -5.5812   -1.9107    5.6573 C   0  0  0  0  0  0  0  0  0  0  0  0
   -6.8100   -2.6224    5.2907 N   0  0  0  0  0  0  0  0  0  0  0  0
   -7.5090   -2.8582    6.5637 C   0  0  0  0  0  0  0  0  0  0  0  0
   -9.0096   -3.0757    6.4066 C   0  0  0  0  0  0  0  0  0  0  0  0
   -9.7759   -1.7959    6.0632 C   0  0  0  0  0  0  0  0  0  0  0  0
  -11.3010   -2.0259    5.8981 C   0  0  0  0  0  0  0  0  0  0  0  0
  -11.9272   -2.5142    7.1077 N   0  0  0  0  0  0  0  0  0  0  0  0
  -11.7699   -1.7838    4.8175 O   0  0  0  0  0  0  0  0  0  0  0  0
   -9.4442   -0.6671    7.0442 C   0  0  0  0  0  0  0  0  0  0  0  0
   -7.9435   -0.3708    7.0352 C   0  0  0  0  0  0  0  0  0  0  0  0
   -7.1302   -1.6223    7.3904 C   0  0  0  0  0  0  0  0  0  0  0  0
   -4.0517    1.3556    7.5726 H   0  0  0  0  0  0  0  0  0  0  0  0
   -4.8223    0.8339    6.0701 H   0  0  0  0  0  0  0  0  0  0  0  0
   -5.8030    1.2822    7.4734 H   0  0  0  0  0  0  0  0  0  0  0  0
   -4.9494   -0.6481    8.7471 H   0  0  0  0  0  0  0  0  0  0  0  0
   -3.7844   -1.0094    7.5049 H   0  0  0  0  0  0  0  0  0  0  0  0
   -4.7037   -2.5407    5.4789 H   0  0  0  0  0  0  0  0  0  0  0  0
   -5.5033   -1.0185    5.0292 H   0  0  0  0  0  0  0  0  0  0  0  0
   -6.5636   -3.5211    4.8798 H   0  0  0  0  0  0  0  0  0  0  0  0
   -7.0828   -3.7631    7.0217 H   0  0  0  0  0  0  0  0  0  0  0  0
   -9.2103   -3.8392    5.6462 H   0  0  0  0  0  0  0  0  0  0  0  0
   -9.3678   -3.4992    7.3497 H   0  0  0  0  0  0  0  0  0  0  0  0
   -9.4303   -1.4703    5.0702 H   0  0  0  0  0  0  0  0  0  0  0  0
  -11.2291   -2.4931    7.8848 H   0  0  0  0  0  0  0  0  0  0  0  0
  -11.1865   -2.7182    7.8162 H   0  0  0  0  0  0  0  0  0  0  0  0
   -9.7544   -0.9253    8.0636 H   0  0  0  0  0  0  0  0  0  0  0  0
   -9.9978    0.2393    6.7711 H   0  0  0  0  0  0  0  0  0  0  0  0
   -7.7463    0.4194    7.7673 H   0  0  0  0  0  0  0  0  0  0  0  0
   -7.6618    0.0250    6.0518 H   0  0  0  0  0  0  0  0  0  0  0  0
   -7.2891   -1.8226    8.4522 H   0  0  0  0  0  0  0  0  0  0  0  0
  1  2  1  0
  2  3  1  0
  3  4  1  0
  4  5  1  0
  5  6  1  0
  6  7  1  0
  7  8  1  0
  8  9  1  0
  9 10  1  0
  9 11  2  0
  8 12  1  0
 12 13  1  0
 13 14  1  0
 14  3  1  0
 14  6  1  0
  1 15  1  0
  1 16  1  0
  1 17  1  0
  2 18  1  0
  2 19  1  0
  4 20  1  0
  4 21  1  0
  5 22  1  0
  6 23  1  0
  7 24  1  0
  7 25  1  0
  8 26  1  0
 10 27  1  0
 10 28  1  0
 12 29  1  0
 12 30  1  0
 13 31  1  0
 13 32  1  0
 14 33  1  0
M  END
>  <Energy>  (677) 
157.21917595166997

>  <compound_id>  (677) 
948

>  <target_id>  (677) 
1

>  <reference_id>  (677) 
169

>  <inspiration_ids>  (677) 
[73, 169]

>  <energy_score>  (677) 
138.34676480445302

>  <distance_score>  (677) 
2.215209008277678

>  <path>  (677) 
/opt/xchem-fragalysis-2/maxwin/BulkDock/SCRATCH/505733/C948-P169/C948-P169.minimised.mol

>  <scratch_subdir>  (677) 
/opt/xchem-fragalysis-2/maxwin/BulkDock/SCRATCH/505733/C948-P169

>  <fragmenstein_runtime>  (677) 
15.319444179534912

>  <fragmenstein_outcome>  (677) 
too moved

>  <fragmenstein_mode>  (677) 
expansion

>  <fragmenstein_error>  (677) 


$$$$
C950-P73
     RDKit          3D

 47 49  0  0  0  0  0  0  0  0999 V2000
  -12.1962    1.8630   10.8852 C   0  0  0  0  0  0  0  0  0  0  0  0
  -12.2542    0.4893   10.2315 C   0  0  0  0  0  0  0  0  0  0  0  0
  -11.7952    0.4857    8.8557 N   0  0  0  0  0  0  0  0  0  0  0  0
  -12.2948   -0.2623    7.8308 C   0  0  0  0  0  0  0  0  0  0  0  0
  -11.6228    0.1543    6.7061 C   0  0  0  0  0  0  0  0  0  0  0  0
  -10.7100    1.1543    7.1511 C   0  0  0  0  0  0  0  0  0  0  0  0
   -9.7768    1.9814    6.2809 C   0  0  0  0  0  0  0  0  0  0  0  0
   -9.9279    3.4332    6.3171 N   0  0  0  0  0  0  0  0  0  0  0  0
  -10.0383    4.0446    7.6358 C   0  0  0  0  0  0  0  0  0  0  0  0
   -8.3779    1.6109    6.3092 N   0  0  0  0  0  0  0  0  0  0  0  0
   -7.6523    1.7715    7.5591 C   0  0  0  0  0  0  0  0  0  0  0  0
   -6.4749    0.8942    7.4592 N   0  0  0  0  0  0  0  0  0  0  0  0
   -5.1588    1.2785    7.4193 C   0  0  0  0  0  0  0  0  0  0  0  0
   -4.3908    0.1423    7.2628 C   0  0  0  0  0  0  0  0  0  0  0  0
   -5.2706   -0.9597    7.0982 C   0  0  0  0  0  0  0  0  0  0  0  0
   -5.1182   -2.3160    6.7607 C   0  0  0  0  0  0  0  0  0  0  0  0
   -6.2728   -3.1094    6.6136 C   0  0  0  0  0  0  0  0  0  0  0  0
   -7.5458   -2.6197    6.9105 C   0  0  0  0  0  0  0  0  0  0  0  0
   -8.7848   -3.4654    6.8000 C   0  0  0  0  0  0  0  0  0  0  0  0
   -9.6448   -3.0395    5.6922 N   0  0  0  0  0  0  0  0  0  0  0  0
   -7.6844   -1.2942    7.3158 C   0  0  0  0  0  0  0  0  0  0  0  0
   -6.5548   -0.4771    7.3242 C   0  0  0  0  0  0  0  0  0  0  0  0
  -10.7877    1.2953    8.4848 N   0  0  0  0  0  0  0  0  0  0  0  0
  -11.1767    2.2598   10.9187 H   0  0  0  0  0  0  0  0  0  0  0  0
  -12.5741    1.8086   11.9110 H   0  0  0  0  0  0  0  0  0  0  0  0
  -12.8133    2.5815   10.3348 H   0  0  0  0  0  0  0  0  0  0  0  0
  -13.2876    0.1247   10.2344 H   0  0  0  0  0  0  0  0  0  0  0  0
  -11.6387   -0.2412   10.7629 H   0  0  0  0  0  0  0  0  0  0  0  0
  -13.0822   -0.9894    7.9769 H   0  0  0  0  0  0  0  0  0  0  0  0
  -11.7790   -0.1930    5.6941 H   0  0  0  0  0  0  0  0  0  0  0  0
  -10.0775    1.7181    5.2563 H   0  0  0  0  0  0  0  0  0  0  0  0
  -10.7923    3.6510    5.8232 H   0  0  0  0  0  0  0  0  0  0  0  0
   -9.2467    3.7458    8.3253 H   0  0  0  0  0  0  0  0  0  0  0  0
  -11.0130    3.8516    8.0942 H   0  0  0  0  0  0  0  0  0  0  0  0
   -9.9599    5.1310    7.5204 H   0  0  0  0  0  0  0  0  0  0  0  0
   -7.9088    2.1671    5.6023 H   0  0  0  0  0  0  0  0  0  0  0  0
   -7.2888    2.7941    7.7000 H   0  0  0  0  0  0  0  0  0  0  0  0
   -8.1888    1.4419    8.4526 H   0  0  0  0  0  0  0  0  0  0  0  0
   -4.8733    2.3186    7.5031 H   0  0  0  0  0  0  0  0  0  0  0  0
   -3.3134    0.1157    7.2060 H   0  0  0  0  0  0  0  0  0  0  0  0
   -4.1389   -2.7304    6.5520 H   0  0  0  0  0  0  0  0  0  0  0  0
   -6.1806   -4.1307    6.2604 H   0  0  0  0  0  0  0  0  0  0  0  0
   -9.3346   -3.3812    7.7416 H   0  0  0  0  0  0  0  0  0  0  0  0
   -8.5250   -4.5211    6.6869 H   0  0  0  0  0  0  0  0  0  0  0  0
   -9.7932   -2.0345    5.7848 H   0  0  0  0  0  0  0  0  0  0  0  0
  -10.5612   -3.4604    5.8245 H   0  0  0  0  0  0  0  0  0  0  0  0
   -8.6661   -0.8917    7.5449 H   0  0  0  0  0  0  0  0  0  0  0  0
  1  2  1  0
  2  3  1  0
  3  4  1  0
  4  5  2  0
  5  6  1  0
  6  7  1  0
  7  8  1  0
  8  9  1  0
  7 10  1  0
 10 11  1  0
 11 12  1  0
 12 13  1  0
 13 14  2  0
 14 15  1  0
 15 16  2  0
 16 17  1  0
 17 18  2  0
 18 19  1  0
 19 20  1  0
 18 21  1  0
 21 22  2  0
  6 23  2  0
 23  3  1  0
 22 12  1  0
 22 15  1  0
  1 24  1  0
  1 25  1  0
  1 26  1  0
  2 27  1  0
  2 28  1  0
  4 29  1  0
  5 30  1  0
  7 31  1  0
  8 32  1  0
  9 33  1  0
  9 34  1  0
  9 35  1  0
 10 36  1  0
 11 37  1  0
 11 38  1  0
 13 39  1  0
 14 40  1  0
 16 41  1  0
 17 42  1  0
 19 43  1  0
 19 44  1  0
 20 45  1  0
 20 46  1  0
 21 47  1  0
M  END
>  <Energy>  (678) 
12.27795464996959

>  <compound_id>  (678) 
950

>  <target_id>  (678) 
1

>  <reference_id>  (678) 
73

>  <inspiration_ids>  (678) 
[73, 181]

>  <energy_score>  (678) 
-26.401495192522702

>  <distance_score>  (678) 
0.8003747456915846

>  <path>  (678) 
/opt/xchem-fragalysis-2/maxwin/BulkDock/SCRATCH/505733/C950-P73/C950-P73.minimised.mol

>  <scratch_subdir>  (678) 
/opt/xchem-fragalysis-2/maxwin/BulkDock/SCRATCH/505733/C950-P73

>  <fragmenstein_runtime>  (678) 
4.248527526855469

>  <fragmenstein_outcome>  (678) 
acceptable

>  <fragmenstein_mode>  (678) 
expansion

>  <fragmenstein_error>  (678) 


$$$$
C950-P181
     RDKit          3D

 47 49  0  0  0  0  0  0  0  0999 V2000
  -11.8583    1.8301   11.0348 C   0  0  0  0  0  0  0  0  0  0  0  0
  -12.0672    0.4903   10.3445 C   0  0  0  0  0  0  0  0  0  0  0  0
  -11.7270    0.4953    8.9339 N   0  0  0  0  0  0  0  0  0  0  0  0
  -12.3015   -0.2615    7.9547 C   0  0  0  0  0  0  0  0  0  0  0  0
  -11.7040    0.1309    6.7804 C   0  0  0  0  0  0  0  0  0  0  0  0
  -10.7607    1.1337    7.1454 C   0  0  0  0  0  0  0  0  0  0  0  0
   -9.8786    1.9348    6.2000 C   0  0  0  0  0  0  0  0  0  0  0  0
  -10.0401    3.3878    6.1982 N   0  0  0  0  0  0  0  0  0  0  0  0
  -10.0881    4.0344    7.5041 C   0  0  0  0  0  0  0  0  0  0  0  0
   -8.4764    1.5768    6.1636 N   0  0  0  0  0  0  0  0  0  0  0  0
   -7.6963    1.7564    7.3746 C   0  0  0  0  0  0  0  0  0  0  0  0
   -6.5008    0.9118    7.2211 N   0  0  0  0  0  0  0  0  0  0  0  0
   -5.1967    1.3340    7.1588 C   0  0  0  0  0  0  0  0  0  0  0  0
   -4.3957    0.2120    7.1022 C   0  0  0  0  0  0  0  0  0  0  0  0
   -5.2358   -0.9231    6.9753 C   0  0  0  0  0  0  0  0  0  0  0  0
   -5.0316   -2.2942    6.7452 C   0  0  0  0  0  0  0  0  0  0  0  0
   -6.1577   -3.1298    6.6150 C   0  0  0  0  0  0  0  0  0  0  0  0
   -7.4608   -2.6536    6.8003 C   0  0  0  0  0  0  0  0  0  0  0  0
   -8.6494   -3.5735    6.7211 C   0  0  0  0  0  0  0  0  0  0  0  0
   -9.8183   -2.9648    6.0644 N   0  0  0  0  0  0  0  0  0  0  0  0
   -7.6445   -1.3120    7.1248 C   0  0  0  0  0  0  0  0  0  0  0  0
   -6.5386   -0.4645    7.1280 C   0  0  0  0  0  0  0  0  0  0  0  0
  -10.7590    1.3100    8.4773 N   0  0  0  0  0  0  0  0  0  0  0  0
  -10.8079    2.1377   11.0136 H   0  0  0  0  0  0  0  0  0  0  0  0
  -12.1709    1.7667   12.0818 H   0  0  0  0  0  0  0  0  0  0  0  0
  -12.4479    2.6164   10.5511 H   0  0  0  0  0  0  0  0  0  0  0  0
  -13.1191    0.1944   10.4253 H   0  0  0  0  0  0  0  0  0  0  0  0
  -11.4575   -0.2907   10.8066 H   0  0  0  0  0  0  0  0  0  0  0  0
  -13.0759   -0.9869    8.1656 H   0  0  0  0  0  0  0  0  0  0  0  0
  -11.9226   -0.2416    5.7888 H   0  0  0  0  0  0  0  0  0  0  0  0
  -10.2311    1.6371    5.2016 H   0  0  0  0  0  0  0  0  0  0  0  0
  -10.9345    3.5783    5.7485 H   0  0  0  0  0  0  0  0  0  0  0  0
   -9.2608    3.7595    8.1606 H   0  0  0  0  0  0  0  0  0  0  0  0
  -11.0372    3.8489    8.0163 H   0  0  0  0  0  0  0  0  0  0  0  0
  -10.0237    5.1177    7.3552 H   0  0  0  0  0  0  0  0  0  0  0  0
   -8.0467    2.1232    5.4253 H   0  0  0  0  0  0  0  0  0  0  0  0
   -7.3538    2.7879    7.4998 H   0  0  0  0  0  0  0  0  0  0  0  0
   -8.1823    1.4101    8.2899 H   0  0  0  0  0  0  0  0  0  0  0  0
   -4.9424    2.3842    7.2181 H   0  0  0  0  0  0  0  0  0  0  0  0
   -3.3192    0.2132    7.1067 H   0  0  0  0  0  0  0  0  0  0  0  0
   -4.0327   -2.6972    6.6193 H   0  0  0  0  0  0  0  0  0  0  0  0
   -6.0111   -4.1770    6.3702 H   0  0  0  0  0  0  0  0  0  0  0  0
   -8.9134   -3.8794    7.7386 H   0  0  0  0  0  0  0  0  0  0  0  0
   -8.3848   -4.4767    6.1652 H   0  0  0  0  0  0  0  0  0  0  0  0
  -10.1768   -2.2489    6.7041 H   0  0  0  0  0  0  0  0  0  0  0  0
  -10.5568   -3.6731    6.0595 H   0  0  0  0  0  0  0  0  0  0  0  0
   -8.6367   -0.9137    7.3017 H   0  0  0  0  0  0  0  0  0  0  0  0
  1  2  1  0
  2  3  1  0
  3  4  1  0
  4  5  2  0
  5  6  1  0
  6  7  1  0
  7  8  1  0
  8  9  1  0
  7 10  1  0
 10 11  1  0
 11 12  1  0
 12 13  1  0
 13 14  2  0
 14 15  1  0
 15 16  2  0
 16 17  1  0
 17 18  2  0
 18 19  1  0
 19 20  1  0
 18 21  1  0
 21 22  2  0
  6 23  2  0
 23  3  1  0
 22 12  1  0
 22 15  1  0
  1 24  1  0
  1 25  1  0
  1 26  1  0
  2 27  1  0
  2 28  1  0
  4 29  1  0
  5 30  1  0
  7 31  1  0
  8 32  1  0
  9 33  1  0
  9 34  1  0
  9 35  1  0
 10 36  1  0
 11 37  1  0
 11 38  1  0
 13 39  1  0
 14 40  1  0
 16 41  1  0
 17 42  1  0
 19 43  1  0
 19 44  1  0
 20 45  1  0
 20 46  1  0
 21 47  1  0
M  END
>  <Energy>  (679) 
13.060436963689323

>  <compound_id>  (679) 
950

>  <target_id>  (679) 
1

>  <reference_id>  (679) 
181

>  <inspiration_ids>  (679) 
[73, 181]

>  <energy_score>  (679) 
-25.619012878802323

>  <distance_score>  (679) 
0.7944008950156294

>  <path>  (679) 
/opt/xchem-fragalysis-2/maxwin/BulkDock/SCRATCH/505733/C950-P181/C950-P181.minimised.mol

>  <scratch_subdir>  (679) 
/opt/xchem-fragalysis-2/maxwin/BulkDock/SCRATCH/505733/C950-P181

>  <fragmenstein_runtime>  (679) 
4.617232799530029

>  <fragmenstein_outcome>  (679) 
acceptable

>  <fragmenstein_mode>  (679) 
expansion

>  <fragmenstein_error>  (679) 


$$$$
C951-P73
     RDKit          3D

 50 52  0  0  0  0  0  0  0  0999 V2000
  -10.9954    1.0860    3.1543 C   0  0  0  0  0  0  0  0  0  0  0  0
   -9.6922    1.2643    2.3935 C   0  0  0  0  0  0  0  0  0  0  0  0
   -8.8130    2.2407    3.0091 N   0  0  0  0  0  0  0  0  0  0  0  0
   -9.0890    3.5505    2.8705 N   0  0  0  0  0  0  0  0  0  0  0  0
   -8.0952    4.1721    3.5229 C   0  0  0  0  0  0  0  0  0  0  0  0
   -8.0416    5.6688    3.6098 C   0  0  0  0  0  0  0  0  0  0  0  0
   -8.6737    6.1691    4.8397 N   0  0  0  0  0  0  0  0  0  0  0  0
   -7.8191    6.0342    6.0102 C   0  0  0  0  0  0  0  0  0  0  0  0
   -7.1602    3.2391    4.0321 C   0  0  0  0  0  0  0  0  0  0  0  0
   -7.6664    1.9974    3.7120 C   0  0  0  0  0  0  0  0  0  0  0  0
   -7.1884    0.6707    3.9938 C   0  0  0  0  0  0  0  0  0  0  0  0
   -7.9011   -0.1901    4.8043 C   0  0  0  0  0  0  0  0  0  0  0  0
   -7.3095   -1.3934    5.0778 C   0  0  0  0  0  0  0  0  0  0  0  0
   -7.6005   -2.1957    6.1791 N   0  0  0  0  0  0  0  0  0  0  0  0
   -8.4721   -1.6561    7.2293 C   0  0  0  0  0  0  0  0  0  0  0  0
   -7.8035   -0.4697    7.9325 C   0  0  0  0  0  0  0  0  0  0  0  0
   -6.3661   -0.7590    8.3463 C   0  0  0  0  0  0  0  0  0  0  0  0
   -5.5322   -1.5840    7.3674 C   0  0  0  0  0  0  0  0  0  0  0  0
   -6.3453   -2.7346    6.7465 C   0  0  0  0  0  0  0  0  0  0  0  0
   -6.2753   -1.7819    4.3454 N   0  0  0  0  0  0  0  0  0  0  0  0
   -5.6581   -0.8766    3.5770 C   0  0  0  0  0  0  0  0  0  0  0  0
   -4.4612   -1.4101    2.8962 C   0  0  0  0  0  0  0  0  0  0  0  0
   -4.7163   -2.7968    2.6542 O   0  0  0  0  0  0  0  0  0  0  0  0
   -6.0305    0.3806    3.4026 N   0  0  0  0  0  0  0  0  0  0  0  0
  -11.5576    2.0247    3.2001 H   0  0  0  0  0  0  0  0  0  0  0  0
  -11.6235    0.3391    2.6589 H   0  0  0  0  0  0  0  0  0  0  0  0
  -10.8187    0.7558    4.1821 H   0  0  0  0  0  0  0  0  0  0  0  0
   -9.1680    0.3101    2.2914 H   0  0  0  0  0  0  0  0  0  0  0  0
   -9.8984    1.6206    1.3771 H   0  0  0  0  0  0  0  0  0  0  0  0
   -8.5867    6.0866    2.7540 H   0  0  0  0  0  0  0  0  0  0  0  0
   -7.0089    6.0268    3.5199 H   0  0  0  0  0  0  0  0  0  0  0  0
   -8.8929    7.1539    4.7030 H   0  0  0  0  0  0  0  0  0  0  0  0
   -7.6411    4.9866    6.2683 H   0  0  0  0  0  0  0  0  0  0  0  0
   -8.3139    6.4944    6.8716 H   0  0  0  0  0  0  0  0  0  0  0  0
   -6.8585    6.5403    5.8700 H   0  0  0  0  0  0  0  0  0  0  0  0
   -6.2584    3.4483    4.5878 H   0  0  0  0  0  0  0  0  0  0  0  0
   -8.8018    0.1448    5.2966 H   0  0  0  0  0  0  0  0  0  0  0  0
   -8.6728   -2.4463    7.9646 H   0  0  0  0  0  0  0  0  0  0  0  0
   -9.4523   -1.3737    6.8275 H   0  0  0  0  0  0  0  0  0  0  0  0
   -8.3932   -0.1966    8.8163 H   0  0  0  0  0  0  0  0  0  0  0  0
   -7.8053    0.4239    7.3022 H   0  0  0  0  0  0  0  0  0  0  0  0
   -6.4511   -1.3226    9.2596 H   0  0  0  0  0  0  0  0  0  0  0  0
   -5.8449    0.1707    8.5990 H   0  0  0  0  0  0  0  0  0  0  0  0
   -5.1494   -0.9135    6.5898 H   0  0  0  0  0  0  0  0  0  0  0  0
   -4.6441   -1.9801    7.8694 H   0  0  0  0  0  0  0  0  0  0  0  0
   -6.6161   -3.4819    7.4925 H   0  0  0  0  0  0  0  0  0  0  0  0
   -5.7452   -3.2907    6.0161 H   0  0  0  0  0  0  0  0  0  0  0  0
   -4.2787   -0.9102    1.9413 H   0  0  0  0  0  0  0  0  0  0  0  0
   -3.5967   -1.2882    3.5506 H   0  0  0  0  0  0  0  0  0  0  0  0
   -5.4071   -3.0604    3.3022 H   0  0  0  0  0  0  0  0  0  0  0  0
  1  2  1  0
  2  3  1  0
  3  4  1  0
  4  5  2  0
  5  6  1  0
  6  7  1  0
  7  8  1  0
  5  9  1  0
  9 10  2  0
 10 11  1  0
 11 12  2  0
 12 13  1  0
 13 14  1  0
 14 15  1  0
 15 16  1  0
 16 17  1  0
 17 18  1  0
 18 19  1  0
 13 20  2  0
 20 21  1  0
 21 22  1  0
 22 23  1  0
 21 24  2  0
 10  3  1  0
 24 11  1  0
 19 14  1  0
  1 25  1  0
  1 26  1  0
  1 27  1  0
  2 28  1  0
  2 29  1  0
  6 30  1  0
  6 31  1  0
  7 32  1  0
  8 33  1  0
  8 34  1  0
  8 35  1  0
  9 36  1  0
 12 37  1  0
 15 38  1  0
 15 39  1  0
 16 40  1  0
 16 41  1  0
 17 42  1  0
 17 43  1  0
 18 44  1  0
 18 45  1  0
 19 46  1  0
 19 47  1  0
 22 48  1  0
 22 49  1  0
 23 50  1  0
M  END
>  <Energy>  (680) 
18.155958753026209

>  <compound_id>  (680) 
951

>  <target_id>  (680) 
1

>  <reference_id>  (680) 
73

>  <inspiration_ids>  (680) 
[73, 182]

>  <energy_score>  (680) 
-21.490567940034452

>  <distance_score>  (680) 
1.417855639836172

>  <path>  (680) 
/opt/xchem-fragalysis-2/maxwin/BulkDock/SCRATCH/505733/C951-P73/C951-P73.minimised.mol

>  <scratch_subdir>  (680) 
/opt/xchem-fragalysis-2/maxwin/BulkDock/SCRATCH/505733/C951-P73

>  <fragmenstein_runtime>  (680) 
9.969329118728638

>  <fragmenstein_outcome>  (680) 
too moved

>  <fragmenstein_mode>  (680) 
expansion

>  <fragmenstein_error>  (680) 


$$$$
C951-P182
     RDKit          3D

 50 52  0  0  0  0  0  0  0  0999 V2000
   -9.9372    1.7187    4.3993 C   0  0  0  0  0  0  0  0  0  0  0  0
   -9.2502    1.3363    3.0980 C   0  0  0  0  0  0  0  0  0  0  0  0
   -7.8664    1.7692    3.0329 N   0  0  0  0  0  0  0  0  0  0  0  0
   -7.5939    3.0929    3.0201 N   0  0  0  0  0  0  0  0  0  0  0  0
   -6.2577    3.1541    2.8929 C   0  0  0  0  0  0  0  0  0  0  0  0
   -5.5425    4.4711    2.9751 C   0  0  0  0  0  0  0  0  0  0  0  0
   -4.1477    4.2984    3.4562 N   0  0  0  0  0  0  0  0  0  0  0  0
   -3.2167    4.3502    2.3243 C   0  0  0  0  0  0  0  0  0  0  0  0
   -5.7057    1.8638    2.7381 C   0  0  0  0  0  0  0  0  0  0  0  0
   -6.7457    0.9846    2.9534 C   0  0  0  0  0  0  0  0  0  0  0  0
   -6.6713   -0.4364    3.2303 C   0  0  0  0  0  0  0  0  0  0  0  0
   -7.1965   -0.9265    4.4016 C   0  0  0  0  0  0  0  0  0  0  0  0
   -6.7095   -2.1353    4.8211 C   0  0  0  0  0  0  0  0  0  0  0  0
   -6.7161   -2.5333    6.1522 N   0  0  0  0  0  0  0  0  0  0  0  0
   -7.5747   -1.8894    7.1463 C   0  0  0  0  0  0  0  0  0  0  0  0
   -7.0004   -0.5610    7.6482 C   0  0  0  0  0  0  0  0  0  0  0  0
   -5.5025   -0.5904    7.9339 C   0  0  0  0  0  0  0  0  0  0  0  0
   -4.6811   -1.3704    6.9208 C   0  0  0  0  0  0  0  0  0  0  0  0
   -5.3238   -2.7143    6.5940 C   0  0  0  0  0  0  0  0  0  0  0  0
   -6.0024   -2.9073    3.9905 N   0  0  0  0  0  0  0  0  0  0  0  0
   -5.5865   -2.3813    2.8397 C   0  0  0  0  0  0  0  0  0  0  0  0
   -4.7770   -3.2779    1.9505 C   0  0  0  0  0  0  0  0  0  0  0  0
   -5.5657   -3.8491    0.8969 O   0  0  0  0  0  0  0  0  0  0  0  0
   -5.8565   -1.1361    2.4300 N   0  0  0  0  0  0  0  0  0  0  0  0
   -9.9764    2.8064    4.5214 H   0  0  0  0  0  0  0  0  0  0  0  0
  -10.9648    1.3422    4.4084 H   0  0  0  0  0  0  0  0  0  0  0  0
   -9.4146    1.3079    5.2680 H   0  0  0  0  0  0  0  0  0  0  0  0
   -9.2985    0.2552    2.9404 H   0  0  0  0  0  0  0  0  0  0  0  0
   -9.7639    1.8059    2.2509 H   0  0  0  0  0  0  0  0  0  0  0  0
   -6.0665    5.0991    3.7070 H   0  0  0  0  0  0  0  0  0  0  0  0
   -5.5936    4.9979    2.0148 H   0  0  0  0  0  0  0  0  0  0  0  0
   -3.9412    5.1048    4.0528 H   0  0  0  0  0  0  0  0  0  0  0  0
   -3.4105    3.5479    1.6060 H   0  0  0  0  0  0  0  0  0  0  0  0
   -2.1940    4.2241    2.6931 H   0  0  0  0  0  0  0  0  0  0  0  0
   -3.2682    5.3148    1.8084 H   0  0  0  0  0  0  0  0  0  0  0  0
   -4.6644    1.5941    2.6339 H   0  0  0  0  0  0  0  0  0  0  0  0
   -7.7801   -0.2910    5.0422 H   0  0  0  0  0  0  0  0  0  0  0  0
   -7.6806   -2.5750    7.9928 H   0  0  0  0  0  0  0  0  0  0  0  0
   -8.5912   -1.7475    6.7589 H   0  0  0  0  0  0  0  0  0  0  0  0
   -7.5399   -0.2482    8.5499 H   0  0  0  0  0  0  0  0  0  0  0  0
   -7.1834    0.2370    6.9231 H   0  0  0  0  0  0  0  0  0  0  0  0
   -5.3405   -1.0271    8.9137 H   0  0  0  0  0  0  0  0  0  0  0  0
   -5.1173    0.4326    7.9868 H   0  0  0  0  0  0  0  0  0  0  0  0
   -4.5685   -0.7710    6.0093 H   0  0  0  0  0  0  0  0  0  0  0  0
   -3.6695   -1.5303    7.3126 H   0  0  0  0  0  0  0  0  0  0  0  0
   -5.3344   -3.3527    7.4659 H   0  0  0  0  0  0  0  0  0  0  0  0
   -4.6947   -3.2451    5.8723 H   0  0  0  0  0  0  0  0  0  0  0  0
   -3.9815   -2.6978    1.4752 H   0  0  0  0  0  0  0  0  0  0  0  0
   -4.3318   -4.1005    2.5177 H   0  0  0  0  0  0  0  0  0  0  0  0
   -6.3190   -3.2442    0.7597 H   0  0  0  0  0  0  0  0  0  0  0  0
  1  2  1  0
  2  3  1  0
  3  4  1  0
  4  5  2  0
  5  6  1  0
  6  7  1  0
  7  8  1  0
  5  9  1  0
  9 10  2  0
 10 11  1  0
 11 12  2  0
 12 13  1  0
 13 14  1  0
 14 15  1  0
 15 16  1  0
 16 17  1  0
 17 18  1  0
 18 19  1  0
 13 20  2  0
 20 21  1  0
 21 22  1  0
 22 23  1  0
 21 24  2  0
 10  3  1  0
 24 11  1  0
 19 14  1  0
  1 25  1  0
  1 26  1  0
  1 27  1  0
  2 28  1  0
  2 29  1  0
  6 30  1  0
  6 31  1  0
  7 32  1  0
  8 33  1  0
  8 34  1  0
  8 35  1  0
  9 36  1  0
 12 37  1  0
 15 38  1  0
 15 39  1  0
 16 40  1  0
 16 41  1  0
 17 42  1  0
 17 43  1  0
 18 44  1  0
 18 45  1  0
 19 46  1  0
 19 47  1  0
 22 48  1  0
 22 49  1  0
 23 50  1  0
M  END
>  <Energy>  (681) 
21.394822493217688

>  <compound_id>  (681) 
951

>  <target_id>  (681) 
1

>  <reference_id>  (681) 
182

>  <inspiration_ids>  (681) 
[73, 182]

>  <energy_score>  (681) 
-18.251704199842834

>  <distance_score>  (681) 
1.2045673608893568

>  <path>  (681) 
/opt/xchem-fragalysis-2/maxwin/BulkDock/SCRATCH/505733/C951-P182/C951-P182.minimised.mol

>  <scratch_subdir>  (681) 
/opt/xchem-fragalysis-2/maxwin/BulkDock/SCRATCH/505733/C951-P182

>  <fragmenstein_runtime>  (681) 
9.317958116531372

>  <fragmenstein_outcome>  (681) 
too moved

>  <fragmenstein_mode>  (681) 
expansion

>  <fragmenstein_error>  (681) 


$$$$
C952-P74
     RDKit          3D

 43 43  0  0  0  0  0  0  0  0999 V2000
   -9.4863    3.4122    6.0793 C   0  0  0  0  0  0  0  0  0  0  0  0
   -9.4538    2.0600    6.7970 C   0  0  0  0  0  0  0  0  0  0  0  0
   -8.2384    1.8476    7.7742 N   0  0  0  0  0  0  0  0  0  0  0  0
   -8.6413    1.0121    8.9836 C   0  0  0  0  0  0  0  0  0  0  0  0
   -8.6156   -0.1508    9.1466 O   0  0  0  0  0  0  0  0  0  0  0  0
   -7.5846    1.4355    6.4503 N   0  0  0  0  0  0  0  0  0  0  0  0
   -6.4207    2.3261    6.2912 C   0  0  0  0  0  0  0  0  0  0  0  0
   -7.1222    0.0068    6.3253 C   0  0  0  0  0  0  0  0  0  0  0  0
   -6.0567   -0.5484    7.3062 C   0  0  0  0  0  0  0  0  0  0  0  0
   -5.9130   -2.0075    7.3268 N   0  0  0  0  0  0  0  0  0  0  0  0
   -6.3495   -2.6771    6.1201 C   0  0  0  0  0  0  0  0  0  0  0  0
   -7.8024   -2.3735    5.7329 C   0  0  0  0  0  0  0  0  0  0  0  0
   -8.8190   -3.4136    6.2273 C   0  0  0  0  0  0  0  0  0  0  0  0
  -10.2151   -3.2232    5.6110 C   0  0  0  0  0  0  0  0  0  0  0  0
  -10.2988   -3.1673    4.0778 C   0  0  0  0  0  0  0  0  0  0  0  0
  -10.0494   -4.4476    3.4163 N   0  0  0  0  0  0  0  0  0  0  0  0
   -8.2773   -0.9715    6.1437 C   0  0  0  0  0  0  0  0  0  0  0  0
  -10.4942    3.6048    5.6968 H   0  0  0  0  0  0  0  0  0  0  0  0
   -8.8069    3.4433    5.2228 H   0  0  0  0  0  0  0  0  0  0  0  0
   -9.2200    4.2241    6.7636 H   0  0  0  0  0  0  0  0  0  0  0  0
   -9.7262    1.2084    6.1588 H   0  0  0  0  0  0  0  0  0  0  0  0
  -10.3077    2.0962    7.4921 H   0  0  0  0  0  0  0  0  0  0  0  0
   -9.0600    1.7373    9.7051 H   0  0  0  0  0  0  0  0  0  0  0  0
   -6.7298    3.3740    6.2207 H   0  0  0  0  0  0  0  0  0  0  0  0
   -5.8628    2.1016    5.3761 H   0  0  0  0  0  0  0  0  0  0  0  0
   -5.7561    2.2481    7.1543 H   0  0  0  0  0  0  0  0  0  0  0  0
   -6.6281   -0.0134    5.3401 H   0  0  0  0  0  0  0  0  0  0  0  0
   -6.2463   -0.2183    8.3304 H   0  0  0  0  0  0  0  0  0  0  0  0
   -5.0870   -0.1207    7.0307 H   0  0  0  0  0  0  0  0  0  0  0  0
   -4.9533   -2.2593    7.5535 H   0  0  0  0  0  0  0  0  0  0  0  0
   -5.6847   -2.3819    5.2976 H   0  0  0  0  0  0  0  0  0  0  0  0
   -6.2171   -3.7557    6.2412 H   0  0  0  0  0  0  0  0  0  0  0  0
   -7.7889   -2.4095    4.6369 H   0  0  0  0  0  0  0  0  0  0  0  0
   -8.9040   -3.3611    7.3206 H   0  0  0  0  0  0  0  0  0  0  0  0
   -8.4494   -4.4139    6.0145 H   0  0  0  0  0  0  0  0  0  0  0  0
  -10.8565   -4.0266    5.9759 H   0  0  0  0  0  0  0  0  0  0  0  0
  -10.6569   -2.3004    6.0068 H   0  0  0  0  0  0  0  0  0  0  0  0
  -11.2984   -2.8216    3.7961 H   0  0  0  0  0  0  0  0  0  0  0  0
   -9.6234   -2.4153    3.6622 H   0  0  0  0  0  0  0  0  0  0  0  0
  -10.5386   -5.1832    3.9398 H   0  0  0  0  0  0  0  0  0  0  0  0
  -10.4874   -4.4231    2.4939 H   0  0  0  0  0  0  0  0  0  0  0  0
   -8.8823   -1.0307    7.0491 H   0  0  0  0  0  0  0  0  0  0  0  0
   -8.9462   -0.6089    5.3530 H   0  0  0  0  0  0  0  0  0  0  0  0
  1  2  1  0
  2  3  1  0
  3  4  1  0
  4  5  2  0
  3  6  1  0
  6  7  1  0
  6  8  1  0
  8  9  1  0
  9 10  1  0
 10 11  1  0
 11 12  1  0
 12 13  1  0
 13 14  1  0
 14 15  1  0
 15 16  1  0
 12 17  1  0
 17  8  1  0
  1 18  1  0
  1 19  1  0
  1 20  1  0
  2 21  1  0
  2 22  1  0
  4 23  1  0
  7 24  1  0
  7 25  1  0
  7 26  1  0
  8 27  1  0
  9 28  1  0
  9 29  1  0
 10 30  1  0
 11 31  1  0
 11 32  1  0
 12 33  1  0
 13 34  1  0
 13 35  1  0
 14 36  1  0
 14 37  1  0
 15 38  1  0
 15 39  1  0
 16 40  1  0
 16 41  1  0
 17 42  1  0
 17 43  1  0
M  END
>  <Energy>  (682) 
149.66318510825582

>  <compound_id>  (682) 
952

>  <target_id>  (682) 
1

>  <reference_id>  (682) 
74

>  <inspiration_ids>  (682) 
[74, 17]

>  <energy_score>  (682) 
10.510420323295932

>  <distance_score>  (682) 
1.7240056249262699

>  <path>  (682) 
/opt/xchem-fragalysis-2/maxwin/BulkDock/SCRATCH/505733/C952-P74/C952-P74.minimised.mol

>  <scratch_subdir>  (682) 
/opt/xchem-fragalysis-2/maxwin/BulkDock/SCRATCH/505733/C952-P74

>  <fragmenstein_runtime>  (682) 
4.344107627868652

>  <fragmenstein_outcome>  (682) 
too moved

>  <fragmenstein_mode>  (682) 
expansion

>  <fragmenstein_error>  (682) 


$$$$
C952-P17
     RDKit          3D

 43 43  0  0  0  0  0  0  0  0999 V2000
   -3.8263    0.5246    8.2761 C   0  0  0  0  0  0  0  0  0  0  0  0
   -4.6282    0.3849    6.9918 C   0  0  0  0  0  0  0  0  0  0  0  0
   -4.0340   -0.8210    6.2066 N   0  0  0  0  0  0  0  0  0  0  0  0
   -3.8705   -2.0435    7.1086 C   0  0  0  0  0  0  0  0  0  0  0  0
   -4.6159   -2.9214    7.3416 O   0  0  0  0  0  0  0  0  0  0  0  0
   -5.1594   -0.4305    5.2692 N   0  0  0  0  0  0  0  0  0  0  0  0
   -4.5708   -0.1469    3.9459 C   0  0  0  0  0  0  0  0  0  0  0  0
   -6.2260   -1.4476    5.1207 C   0  0  0  0  0  0  0  0  0  0  0  0
   -5.7518   -2.8315    4.6120 C   0  0  0  0  0  0  0  0  0  0  0  0
   -6.7606   -3.8808    4.7013 N   0  0  0  0  0  0  0  0  0  0  0  0
   -7.3865   -3.9062    6.0242 C   0  0  0  0  0  0  0  0  0  0  0  0
   -8.1546   -2.6119    6.1738 C   0  0  0  0  0  0  0  0  0  0  0  0
   -9.1314   -2.6537    7.3349 C   0  0  0  0  0  0  0  0  0  0  0  0
  -10.2735   -1.6752    7.0710 C   0  0  0  0  0  0  0  0  0  0  0  0
  -11.2893   -2.2610    6.1119 C   0  0  0  0  0  0  0  0  0  0  0  0
  -12.3051   -1.2455    5.8107 N   0  0  0  0  0  0  0  0  0  0  0  0
   -7.1545   -1.4829    6.3406 C   0  0  0  0  0  0  0  0  0  0  0  0
   -4.2808   -0.0687    9.0732 H   0  0  0  0  0  0  0  0  0  0  0  0
   -3.8048    1.5692    8.5662 H   0  0  0  0  0  0  0  0  0  0  0  0
   -2.7909    0.2017    8.1703 H   0  0  0  0  0  0  0  0  0  0  0  0
   -5.6640    0.2536    7.3256 H   0  0  0  0  0  0  0  0  0  0  0  0
   -4.5292    1.3214    6.4238 H   0  0  0  0  0  0  0  0  0  0  0  0
   -2.8850   -1.9217    7.5865 H   0  0  0  0  0  0  0  0  0  0  0  0
   -3.9863   -0.9877    3.5587 H   0  0  0  0  0  0  0  0  0  0  0  0
   -3.9086    0.7151    4.0036 H   0  0  0  0  0  0  0  0  0  0  0  0
   -5.3449    0.1137    3.2158 H   0  0  0  0  0  0  0  0  0  0  0  0
   -6.8874   -1.0700    4.3238 H   0  0  0  0  0  0  0  0  0  0  0  0
   -4.8343   -3.1784    5.0832 H   0  0  0  0  0  0  0  0  0  0  0  0
   -5.4932   -2.7399    3.5498 H   0  0  0  0  0  0  0  0  0  0  0  0
   -6.3318   -4.7880    4.5359 H   0  0  0  0  0  0  0  0  0  0  0  0
   -8.0853   -4.7358    6.1119 H   0  0  0  0  0  0  0  0  0  0  0  0
   -6.6563   -4.0564    6.8220 H   0  0  0  0  0  0  0  0  0  0  0  0
   -8.7145   -2.4440    5.2445 H   0  0  0  0  0  0  0  0  0  0  0  0
   -8.6274   -2.3883    8.2720 H   0  0  0  0  0  0  0  0  0  0  0  0
   -9.5251   -3.6612    7.4656 H   0  0  0  0  0  0  0  0  0  0  0  0
  -10.7686   -1.4333    8.0188 H   0  0  0  0  0  0  0  0  0  0  0  0
   -9.8883   -0.7221    6.6894 H   0  0  0  0  0  0  0  0  0  0  0  0
  -11.7681   -3.1131    6.6013 H   0  0  0  0  0  0  0  0  0  0  0  0
  -10.8310   -2.6012    5.1797 H   0  0  0  0  0  0  0  0  0  0  0  0
  -11.8884   -0.5459    5.2010 H   0  0  0  0  0  0  0  0  0  0  0  0
  -12.9989   -1.7333    5.2353 H   0  0  0  0  0  0  0  0  0  0  0  0
   -6.6145   -1.6321    7.2790 H   0  0  0  0  0  0  0  0  0  0  0  0
   -7.6704   -0.5189    6.4286 H   0  0  0  0  0  0  0  0  0  0  0  0
  1  2  1  0
  2  3  1  0
  3  4  1  0
  4  5  2  0
  3  6  1  0
  6  7  1  0
  6  8  1  0
  8  9  1  0
  9 10  1  0
 10 11  1  0
 11 12  1  0
 12 13  1  0
 13 14  1  0
 14 15  1  0
 15 16  1  0
 12 17  1  0
 17  8  1  0
  1 18  1  0
  1 19  1  0
  1 20  1  0
  2 21  1  0
  2 22  1  0
  4 23  1  0
  7 24  1  0
  7 25  1  0
  7 26  1  0
  8 27  1  0
  9 28  1  0
  9 29  1  0
 10 30  1  0
 11 31  1  0
 11 32  1  0
 12 33  1  0
 13 34  1  0
 13 35  1  0
 14 36  1  0
 14 37  1  0
 15 38  1  0
 15 39  1  0
 16 40  1  0
 16 41  1  0
 17 42  1  0
 17 43  1  0
M  END
>  <Energy>  (683) 
145.45620657228716

>  <compound_id>  (683) 
952

>  <target_id>  (683) 
1

>  <reference_id>  (683) 
17

>  <inspiration_ids>  (683) 
[74, 17]

>  <energy_score>  (683) 
6.303441787328325

>  <distance_score>  (683) 
2.7504527403543375

>  <path>  (683) 
/opt/xchem-fragalysis-2/maxwin/BulkDock/SCRATCH/505733/C952-P17/C952-P17.minimised.mol

>  <scratch_subdir>  (683) 
/opt/xchem-fragalysis-2/maxwin/BulkDock/SCRATCH/505733/C952-P17

>  <fragmenstein_runtime>  (683) 
4.253450632095337

>  <fragmenstein_outcome>  (683) 
too moved

>  <fragmenstein_mode>  (683) 
expansion

>  <fragmenstein_error>  (683) 


$$$$
C60-P74
     RDKit          3D

 23 23  0  0  0  0  0  0  0  0999 V2000
   -9.9205   -3.0798    6.4101 C   0  0  0  0  0  0  0  0  0  0  0  0
   -8.8685   -3.0894    7.5030 C   0  0  0  0  0  0  0  0  0  0  0  0
   -7.5382   -2.8887    6.9853 N   0  0  0  0  0  0  0  0  0  0  0  0
   -6.9294   -3.6162    6.0105 C   0  0  0  0  0  0  0  0  0  0  0  0
   -5.7329   -3.0033    5.7615 C   0  0  0  0  0  0  0  0  0  0  0  0
   -5.6822   -1.9518    6.6936 C   0  0  0  0  0  0  0  0  0  0  0  0
   -4.6426   -0.9098    6.7839 C   0  0  0  0  0  0  0  0  0  0  0  0
   -5.0792    0.2135    5.9391 N   0  0  0  0  0  0  0  0  0  0  0  0
   -6.0606    1.0335    6.6454 C   0  0  0  0  0  0  0  0  0  0  0  0
   -6.7705   -1.9071    7.4728 N   0  0  0  0  0  0  0  0  0  0  0  0
  -10.9261   -3.0947    6.8398 H   0  0  0  0  0  0  0  0  0  0  0  0
   -9.8374   -2.1803    5.7902 H   0  0  0  0  0  0  0  0  0  0  0  0
   -9.8257   -3.9489    5.7519 H   0  0  0  0  0  0  0  0  0  0  0  0
   -9.0753   -2.2901    8.2229 H   0  0  0  0  0  0  0  0  0  0  0  0
   -8.8609   -4.0418    8.0407 H   0  0  0  0  0  0  0  0  0  0  0  0
   -7.4009   -4.4688    5.5627 H   0  0  0  0  0  0  0  0  0  0  0  0
   -5.0057   -3.2578    5.0051 H   0  0  0  0  0  0  0  0  0  0  0  0
   -4.4455   -0.6107    7.8204 H   0  0  0  0  0  0  0  0  0  0  0  0
   -3.7024   -1.3067    6.3850 H   0  0  0  0  0  0  0  0  0  0  0  0
   -4.2566    0.7796    5.7628 H   0  0  0  0  0  0  0  0  0  0  0  0
   -6.1828    1.9796    6.1073 H   0  0  0  0  0  0  0  0  0  0  0  0
   -5.7570    1.2741    7.6679 H   0  0  0  0  0  0  0  0  0  0  0  0
   -7.0472    0.5624    6.6646 H   0  0  0  0  0  0  0  0  0  0  0  0
  1  2  1  0
  2  3  1  0
  3  4  1  0
  4  5  2  0
  5  6  1  0
  6  7  1  0
  7  8  1  0
  8  9  1  0
  6 10  2  0
 10  3  1  0
  1 11  1  0
  1 12  1  0
  1 13  1  0
  2 14  1  0
  2 15  1  0
  4 16  1  0
  5 17  1  0
  7 18  1  0
  7 19  1  0
  8 20  1  0
  9 21  1  0
  9 22  1  0
  9 23  1  0
M  END
>  <Energy>  (684) 
27.378538320128577

>  <compound_id>  (684) 
60

>  <target_id>  (684) 
1

>  <reference_id>  (684) 
74

>  <inspiration_ids>  (684) 
[74, 65]

>  <energy_score>  (684) 
-11.893671132038833

>  <distance_score>  (684) 
1.2561715993662739

>  <path>  (684) 
/opt/xchem-fragalysis-2/maxwin/BulkDock/SCRATCH/505733/C60-P74/C60-P74.minimised.mol

>  <scratch_subdir>  (684) 
/opt/xchem-fragalysis-2/maxwin/BulkDock/SCRATCH/505733/C60-P74

>  <fragmenstein_runtime>  (684) 
1.3188724517822266

>  <fragmenstein_outcome>  (684) 
too moved

>  <fragmenstein_mode>  (684) 
expansion

>  <fragmenstein_error>  (684) 


$$$$
C60-P65
     RDKit          3D

 23 23  0  0  0  0  0  0  0  0999 V2000
   -9.5561   -3.0369    6.2779 C   0  0  0  0  0  0  0  0  0  0  0  0
   -8.4550   -2.9608    7.3114 C   0  0  0  0  0  0  0  0  0  0  0  0
   -7.1683   -2.5653    6.7795 N   0  0  0  0  0  0  0  0  0  0  0  0
   -6.5057   -3.1225    5.7247 C   0  0  0  0  0  0  0  0  0  0  0  0
   -5.2394   -2.5901    5.7452 C   0  0  0  0  0  0  0  0  0  0  0  0
   -5.2168   -1.7393    6.8714 C   0  0  0  0  0  0  0  0  0  0  0  0
   -4.0501   -1.0196    7.4711 C   0  0  0  0  0  0  0  0  0  0  0  0
   -3.7665    0.2823    6.8452 N   0  0  0  0  0  0  0  0  0  0  0  0
   -4.9427    1.1421    6.8298 C   0  0  0  0  0  0  0  0  0  0  0  0
   -6.4227   -1.6742    7.4542 N   0  0  0  0  0  0  0  0  0  0  0  0
   -9.6366   -2.1004    5.7158 H   0  0  0  0  0  0  0  0  0  0  0  0
   -9.3867   -3.8447    5.5611 H   0  0  0  0  0  0  0  0  0  0  0  0
  -10.5138   -3.2181    6.7711 H   0  0  0  0  0  0  0  0  0  0  0  0
   -8.3145   -3.9334    7.7961 H   0  0  0  0  0  0  0  0  0  0  0  0
   -8.7320   -2.2358    8.0854 H   0  0  0  0  0  0  0  0  0  0  0  0
   -6.9647   -3.8615    5.0874 H   0  0  0  0  0  0  0  0  0  0  0  0
   -4.4226   -2.8233    5.0811 H   0  0  0  0  0  0  0  0  0  0  0  0
   -4.2042   -0.8842    8.5478 H   0  0  0  0  0  0  0  0  0  0  0  0
   -3.1563   -1.6464    7.3702 H   0  0  0  0  0  0  0  0  0  0  0  0
   -3.0742    0.7289    7.4453 H   0  0  0  0  0  0  0  0  0  0  0  0
   -5.6317    0.8546    6.0293 H   0  0  0  0  0  0  0  0  0  0  0  0
   -4.6397    2.1741    6.6295 H   0  0  0  0  0  0  0  0  0  0  0  0
   -5.4796    1.1467    7.7754 H   0  0  0  0  0  0  0  0  0  0  0  0
  1  2  1  0
  2  3  1  0
  3  4  1  0
  4  5  2  0
  5  6  1  0
  6  7  1  0
  7  8  1  0
  8  9  1  0
  6 10  2  0
 10  3  1  0
  1 11  1  0
  1 12  1  0
  1 13  1  0
  2 14  1  0
  2 15  1  0
  4 16  1  0
  5 17  1  0
  7 18  1  0
  7 19  1  0
  8 20  1  0
  9 21  1  0
  9 22  1  0
  9 23  1  0
M  END
>  <Energy>  (685) 
26.372251365633748

>  <compound_id>  (685) 
60

>  <target_id>  (685) 
1

>  <reference_id>  (685) 
65

>  <inspiration_ids>  (685) 
[74, 65]

>  <energy_score>  (685) 
-12.899958086533985

>  <distance_score>  (685) 
1.3087523439066062

>  <path>  (685) 
/opt/xchem-fragalysis-2/maxwin/BulkDock/SCRATCH/505733/C60-P65/C60-P65.minimised.mol

>  <scratch_subdir>  (685) 
/opt/xchem-fragalysis-2/maxwin/BulkDock/SCRATCH/505733/C60-P65

>  <fragmenstein_runtime>  (685) 
1.6519300937652588

>  <fragmenstein_outcome>  (685) 
too moved

>  <fragmenstein_mode>  (685) 
expansion

>  <fragmenstein_error>  (685) 


$$$$
C954-P74
     RDKit          3D

 40 41  0  0  0  0  0  0  0  0999 V2000
   -6.9143    3.0603    7.1085 C   0  0  0  0  0  0  0  0  0  0  0  0
   -7.2037    1.5932    7.3958 C   0  0  0  0  0  0  0  0  0  0  0  0
   -6.6143    0.7206    6.3681 N   0  0  0  0  0  0  0  0  0  0  0  0
   -7.3734    0.7036    5.1270 C   0  0  0  0  0  0  0  0  0  0  0  0
   -8.0542   -0.6421    5.0719 C   0  0  0  0  0  0  0  0  0  0  0  0
   -6.8055   -2.0453    4.9328 C   0  0  0  0  0  0  0  0  0  0  0  0
   -7.0057   -3.2741    6.3399 C   0  0  0  0  0  0  0  0  0  0  0  0
   -8.5615   -3.2340    7.3345 C   0  0  0  0  0  0  0  0  0  0  0  0
   -9.9346   -2.0108    7.1499 C   0  0  0  0  0  0  0  0  0  0  0  0
   -9.7204   -0.6484    5.8693 C   0  0  0  0  0  0  0  0  0  0  0  0
   -7.9480   -1.3198    6.2791 C   0  0  0  0  0  0  0  0  0  0  0  0
   -8.9174   -2.5948    5.0329 C   0  0  0  0  0  0  0  0  0  0  0  0
   -9.1660   -2.3023    3.5393 N   0  0  0  0  0  0  0  0  0  0  0  0
  -10.1439   -3.2184    2.9611 C   0  0  0  0  0  0  0  0  0  0  0  0
   -6.6708   -0.6403    6.8357 N   0  0  0  0  0  0  0  0  0  0  0  0
   -5.8380    3.2468    7.0420 H   0  0  0  0  0  0  0  0  0  0  0  0
   -7.3108    3.6844    7.9160 H   0  0  0  0  0  0  0  0  0  0  0  0
   -7.3774    3.3939    6.1749 H   0  0  0  0  0  0  0  0  0  0  0  0
   -8.2843    1.4479    7.5038 H   0  0  0  0  0  0  0  0  0  0  0  0
   -6.7603    1.3519    8.3673 H   0  0  0  0  0  0  0  0  0  0  0  0
   -6.6876    0.7981    4.2773 H   0  0  0  0  0  0  0  0  0  0  0  0
   -8.1007    1.5172    5.0301 H   0  0  0  0  0  0  0  0  0  0  0  0
   -6.8775   -2.5793    3.9734 H   0  0  0  0  0  0  0  0  0  0  0  0
   -5.7683   -1.6724    4.9138 H   0  0  0  0  0  0  0  0  0  0  0  0
   -6.1729   -3.1308    7.0395 H   0  0  0  0  0  0  0  0  0  0  0  0
   -6.8854   -4.2827    5.9253 H   0  0  0  0  0  0  0  0  0  0  0  0
   -9.0154   -4.2240    7.2085 H   0  0  0  0  0  0  0  0  0  0  0  0
   -8.2473   -3.1525    8.3792 H   0  0  0  0  0  0  0  0  0  0  0  0
  -10.0484   -1.5089    8.1235 H   0  0  0  0  0  0  0  0  0  0  0  0
  -10.8828   -2.5354    6.9669 H   0  0  0  0  0  0  0  0  0  0  0  0
   -9.8750    0.3032    6.4006 H   0  0  0  0  0  0  0  0  0  0  0  0
  -10.5271   -0.7266    5.1286 H   0  0  0  0  0  0  0  0  0  0  0  0
   -8.3979   -0.9601    7.2120 H   0  0  0  0  0  0  0  0  0  0  0  0
   -8.5096   -3.6108    4.9949 H   0  0  0  0  0  0  0  0  0  0  0  0
   -9.9374   -2.8379    5.3354 H   0  0  0  0  0  0  0  0  0  0  0  0
   -9.5213   -1.3553    3.4181 H   0  0  0  0  0  0  0  0  0  0  0  0
   -9.8648   -4.2629    3.1111 H   0  0  0  0  0  0  0  0  0  0  0  0
  -10.2039   -3.0456    1.8821 H   0  0  0  0  0  0  0  0  0  0  0  0
  -11.1381   -3.0439    3.3789 H   0  0  0  0  0  0  0  0  0  0  0  0
   -5.7948   -1.1453    6.7133 H   0  0  0  0  0  0  0  0  0  0  0  0
  1  2  1  0
  2  3  1  0
  3  4  1  0
  4  5  1  0
  5  6  1  0
  6  7  1  0
  7  8  1  0
  8  9  1  0
  9 10  1  0
  5 11  1  0
 11 12  1  0
 12 13  1  0
 13 14  1  0
 11 15  1  0
 15  3  1  0
 10  5  1  0
  1 16  1  0
  1 17  1  0
  1 18  1  0
  2 19  1  0
  2 20  1  0
  4 21  1  0
  4 22  1  0
  6 23  1  0
  6 24  1  0
  7 25  1  0
  7 26  1  0
  8 27  1  0
  8 28  1  0
  9 29  1  0
  9 30  1  0
 10 31  1  0
 10 32  1  0
 11 33  1  0
 12 34  1  0
 12 35  1  0
 13 36  1  0
 14 37  1  0
 14 38  1  0
 14 39  1  0
 15 40  1  0
M  END
>  <Energy>  (686) 
629.96175964918734

>  <compound_id>  (686) 
954

>  <target_id>  (686) 
1

>  <reference_id>  (686) 
74

>  <inspiration_ids>  (686) 
[74, 84]

>  <energy_score>  (686) 
525.6793328120111

>  <distance_score>  (686) 
2.618069771395712

>  <path>  (686) 
/opt/xchem-fragalysis-2/maxwin/BulkDock/SCRATCH/505733/C954-P74/C954-P74.minimised.mol

>  <scratch_subdir>  (686) 
/opt/xchem-fragalysis-2/maxwin/BulkDock/SCRATCH/505733/C954-P74

>  <fragmenstein_runtime>  (686) 
6.009627103805542

>  <fragmenstein_outcome>  (686) 
too moved

>  <fragmenstein_mode>  (686) 
expansion

>  <fragmenstein_error>  (686) 


$$$$
C954-P84
     RDKit          3D

 40 41  0  0  0  0  0  0  0  0999 V2000
   -6.6668    3.1550    6.4015 C   0  0  0  0  0  0  0  0  0  0  0  0
   -6.9481    1.7379    6.8802 C   0  0  0  0  0  0  0  0  0  0  0  0
   -6.5525    0.7335    5.8780 N   0  0  0  0  0  0  0  0  0  0  0  0
   -7.4772    0.6466    4.7465 C   0  0  0  0  0  0  0  0  0  0  0  0
   -8.1945   -0.6855    4.8498 C   0  0  0  0  0  0  0  0  0  0  0  0
   -6.9712   -2.0841    4.7339 C   0  0  0  0  0  0  0  0  0  0  0  0
   -7.0091   -3.1752    6.2994 C   0  0  0  0  0  0  0  0  0  0  0  0
   -8.3731   -2.8916    7.5412 C   0  0  0  0  0  0  0  0  0  0  0  0
   -9.8552   -1.7839    7.2444 C   0  0  0  0  0  0  0  0  0  0  0  0
   -9.7390   -0.5526    5.8359 C   0  0  0  0  0  0  0  0  0  0  0  0
   -7.9670   -1.2358    6.1080 C   0  0  0  0  0  0  0  0  0  0  0  0
   -9.0358   -2.7106    5.2216 C   0  0  0  0  0  0  0  0  0  0  0  0
   -9.9892   -2.4585    4.0598 N   0  0  0  0  0  0  0  0  0  0  0  0
  -10.1170   -3.6211    3.1854 C   0  0  0  0  0  0  0  0  0  0  0  0
   -6.6154   -0.5708    6.5094 N   0  0  0  0  0  0  0  0  0  0  0  0
   -5.6079    3.2873    6.1570 H   0  0  0  0  0  0  0  0  0  0  0  0
   -6.9169    3.8717    7.1907 H   0  0  0  0  0  0  0  0  0  0  0  0
   -7.2577    3.4148    5.5180 H   0  0  0  0  0  0  0  0  0  0  0  0
   -8.0013    1.6489    7.1700 H   0  0  0  0  0  0  0  0  0  0  0  0
   -6.3554    1.5821    7.7870 H   0  0  0  0  0  0  0  0  0  0  0  0
   -6.9040    0.6752    3.8126 H   0  0  0  0  0  0  0  0  0  0  0  0
   -8.1950    1.4726    4.6927 H   0  0  0  0  0  0  0  0  0  0  0  0
   -7.1482   -2.6729    3.8185 H   0  0  0  0  0  0  0  0  0  0  0  0
   -5.9405   -1.7251    4.5745 H   0  0  0  0  0  0  0  0  0  0  0  0
   -6.0577   -3.0485    6.8327 H   0  0  0  0  0  0  0  0  0  0  0  0
   -7.0383   -4.2293    5.9903 H   0  0  0  0  0  0  0  0  0  0  0  0
   -8.7457   -3.8747    7.8520 H   0  0  0  0  0  0  0  0  0  0  0  0
   -7.8768   -2.4363    8.4053 H   0  0  0  0  0  0  0  0  0  0  0  0
   -9.9977   -1.2013    8.1662 H   0  0  0  0  0  0  0  0  0  0  0  0
  -10.7629   -2.3858    7.1034 H   0  0  0  0  0  0  0  0  0  0  0  0
  -10.6498   -0.5694    5.2296 H   0  0  0  0  0  0  0  0  0  0  0  0
   -9.7609    0.4428    6.3145 H   0  0  0  0  0  0  0  0  0  0  0  0
   -8.3108   -0.7477    7.0353 H   0  0  0  0  0  0  0  0  0  0  0  0
   -8.4341   -3.5340    4.8175 H   0  0  0  0  0  0  0  0  0  0  0  0
   -9.6213   -3.3565    5.8873 H   0  0  0  0  0  0  0  0  0  0  0  0
  -10.9272   -2.3471    4.4635 H   0  0  0  0  0  0  0  0  0  0  0  0
   -9.1728   -3.8351    2.6757 H   0  0  0  0  0  0  0  0  0  0  0  0
  -10.8605   -3.4105    2.4103 H   0  0  0  0  0  0  0  0  0  0  0  0
  -10.4479   -4.5062    3.7368 H   0  0  0  0  0  0  0  0  0  0  0  0
   -5.7734   -1.1214    6.3533 H   0  0  0  0  0  0  0  0  0  0  0  0
  1  2  1  0
  2  3  1  0
  3  4  1  0
  4  5  1  0
  5  6  1  0
  6  7  1  0
  7  8  1  0
  8  9  1  0
  9 10  1  0
  5 11  1  0
 11 12  1  0
 12 13  1  0
 13 14  1  0
 11 15  1  0
 15  3  1  0
 10  5  1  0
  1 16  1  0
  1 17  1  0
  1 18  1  0
  2 19  1  0
  2 20  1  0
  4 21  1  0
  4 22  1  0
  6 23  1  0
  6 24  1  0
  7 25  1  0
  7 26  1  0
  8 27  1  0
  8 28  1  0
  9 29  1  0
  9 30  1  0
 10 31  1  0
 10 32  1  0
 11 33  1  0
 12 34  1  0
 12 35  1  0
 13 36  1  0
 14 37  1  0
 14 38  1  0
 14 39  1  0
 15 40  1  0
M  END
>  <Energy>  (687) 
632.96442769591351

>  <compound_id>  (687) 
954

>  <target_id>  (687) 
1

>  <reference_id>  (687) 
84

>  <inspiration_ids>  (687) 
[74, 84]

>  <energy_score>  (687) 
528.6820008587375

>  <distance_score>  (687) 
2.5382937928110896

>  <path>  (687) 
/opt/xchem-fragalysis-2/maxwin/BulkDock/SCRATCH/505733/C954-P84/C954-P84.minimised.mol

>  <scratch_subdir>  (687) 
/opt/xchem-fragalysis-2/maxwin/BulkDock/SCRATCH/505733/C954-P84

>  <fragmenstein_runtime>  (687) 
5.612455129623413

>  <fragmenstein_outcome>  (687) 
too moved

>  <fragmenstein_mode>  (687) 
expansion

>  <fragmenstein_error>  (687) 


$$$$
C957-P74
     RDKit          3D

 35 37  0  0  0  0  0  0  0  0999 V2000
  -11.3239   -2.7209    2.6833 C   0  0  0  0  0  0  0  0  0  0  0  0
  -10.5388   -3.8788    3.2749 C   0  0  0  0  0  0  0  0  0  0  0  0
   -9.6176   -3.4559    4.3046 N   0  0  0  0  0  0  0  0  0  0  0  0
   -9.8852   -2.9369    5.5328 C   0  0  0  0  0  0  0  0  0  0  0  0
   -8.6545   -2.5605    5.9922 C   0  0  0  0  0  0  0  0  0  0  0  0
   -8.4178   -1.7718    7.0989 C   0  0  0  0  0  0  0  0  0  0  0  0
   -7.0745   -1.3838    7.2056 C   0  0  0  0  0  0  0  0  0  0  0  0
   -6.0238   -1.8994    6.4211 C   0  0  0  0  0  0  0  0  0  0  0  0
   -4.8114   -1.4352    6.9060 N   0  0  0  0  0  0  0  0  0  0  0  0
   -5.1282   -0.5299    7.8061 C   0  0  0  0  0  0  0  0  0  0  0  0
   -6.4818   -0.3252    7.8538 N   0  0  0  0  0  0  0  0  0  0  0  0
   -7.1108    0.9833    7.9418 C   0  0  0  0  0  0  0  0  0  0  0  0
   -8.2930    1.0733    8.8830 C   0  0  0  0  0  0  0  0  0  0  0  0
   -6.2790   -2.7158    5.2659 C   0  0  0  0  0  0  0  0  0  0  0  0
   -5.2272   -3.0860    4.4054 N   0  0  0  0  0  0  0  0  0  0  0  0
   -5.4915   -4.0697    3.3778 C   0  0  0  0  0  0  0  0  0  0  0  0
   -7.6671   -2.9830    5.0478 C   0  0  0  0  0  0  0  0  0  0  0  0
   -8.3138   -3.5570    4.0166 N   0  0  0  0  0  0  0  0  0  0  0  0
  -12.0167   -3.0829    1.9177 H   0  0  0  0  0  0  0  0  0  0  0  0
  -10.6497   -1.9961    2.2136 H   0  0  0  0  0  0  0  0  0  0  0  0
  -11.8982   -2.1845    3.4449 H   0  0  0  0  0  0  0  0  0  0  0  0
  -11.1505   -4.6827    3.6821 H   0  0  0  0  0  0  0  0  0  0  0  0
   -9.9537   -4.3407    2.4688 H   0  0  0  0  0  0  0  0  0  0  0  0
  -10.8875   -2.7963    5.9098 H   0  0  0  0  0  0  0  0  0  0  0  0
   -9.2024   -1.4113    7.7501 H   0  0  0  0  0  0  0  0  0  0  0  0
   -4.4226    0.0560    8.3785 H   0  0  0  0  0  0  0  0  0  0  0  0
   -7.4359    1.2446    6.9262 H   0  0  0  0  0  0  0  0  0  0  0  0
   -6.3427    1.7101    8.2004 H   0  0  0  0  0  0  0  0  0  0  0  0
   -9.1814    0.5923    8.4682 H   0  0  0  0  0  0  0  0  0  0  0  0
   -8.5656    2.1203    9.0456 H   0  0  0  0  0  0  0  0  0  0  0  0
   -8.0788    0.6015    9.8461 H   0  0  0  0  0  0  0  0  0  0  0  0
   -4.3421   -3.1271    4.9024 H   0  0  0  0  0  0  0  0  0  0  0  0
   -6.0766   -4.9172    3.7421 H   0  0  0  0  0  0  0  0  0  0  0  0
   -4.5535   -4.4839    3.0038 H   0  0  0  0  0  0  0  0  0  0  0  0
   -6.0067   -3.6108    2.5279 H   0  0  0  0  0  0  0  0  0  0  0  0
  1  2  1  0
  2  3  1  0
  3  4  1  0
  4  5  2  0
  5  6  1  0
  6  7  2  0
  7  8  1  0
  8  9  1  0
  9 10  2  0
 10 11  1  0
 11 12  1  0
 12 13  1  0
  8 14  2  0
 14 15  1  0
 15 16  1  0
 14 17  1  0
 17 18  2  0
 18  3  1  0
 17  5  1  0
 11  7  1  0
  1 19  1  0
  1 20  1  0
  1 21  1  0
  2 22  1  0
  2 23  1  0
  4 24  1  0
  6 25  1  0
 10 26  1  0
 12 27  1  0
 12 28  1  0
 13 29  1  0
 13 30  1  0
 13 31  1  0
 15 32  1  0
 16 33  1  0
 16 34  1  0
 16 35  1  0
M  END
>  <Energy>  (688) 
82.90397035955796

>  <compound_id>  (688) 
957

>  <target_id>  (688) 
1

>  <reference_id>  (688) 
74

>  <inspiration_ids>  (688) 
[74, 91]

>  <energy_score>  (688) 
-28.737541832397426

>  <distance_score>  (688) 
1.4465575299020712

>  <path>  (688) 
/opt/xchem-fragalysis-2/maxwin/BulkDock/SCRATCH/505733/C957-P74/C957-P74.minimised.mol

>  <scratch_subdir>  (688) 
/opt/xchem-fragalysis-2/maxwin/BulkDock/SCRATCH/505733/C957-P74

>  <fragmenstein_runtime>  (688) 
4.303252696990967

>  <fragmenstein_outcome>  (688) 
too moved

>  <fragmenstein_mode>  (688) 
expansion

>  <fragmenstein_error>  (688) 


$$$$
C958-P74
     RDKit          3D

 39 39  0  0  0  0  0  0  0  0999 V2000
   -6.3190   -3.3403    5.6641 C   0  0  0  0  0  0  0  0  0  0  0  0
   -5.0458   -2.5448    5.8819 C   0  0  0  0  0  0  0  0  0  0  0  0
   -5.1505   -1.1396    6.4998 C   0  0  0  0  0  0  0  0  0  0  0  0
   -5.7317   -1.0417    7.9138 C   0  0  0  0  0  0  0  0  0  0  0  0
   -7.1701   -0.5682    8.2041 C   0  0  0  0  0  0  0  0  0  0  0  0
   -8.2711   -1.4083    7.5653 C   0  0  0  0  0  0  0  0  0  0  0  0
   -8.4128   -0.6849    6.2482 C   0  0  0  0  0  0  0  0  0  0  0  0
   -9.4847   -1.1775    5.4084 N   0  0  0  0  0  0  0  0  0  0  0  0
   -9.3937   -0.5217    4.0954 N   0  0  0  0  0  0  0  0  0  0  0  0
   -8.2847   -1.0950    3.3064 C   0  0  0  0  0  0  0  0  0  0  0  0
  -10.6793   -0.7524    3.4197 C   0  0  0  0  0  0  0  0  0  0  0  0
  -10.7741   -0.0756    2.0621 C   0  0  0  0  0  0  0  0  0  0  0  0
   -8.4310    0.7711    6.7089 C   0  0  0  0  0  0  0  0  0  0  0  0
   -7.3638    0.8259    7.7323 N   0  0  0  0  0  0  0  0  0  0  0  0
   -7.1144   -2.7556    5.2189 H   0  0  0  0  0  0  0  0  0  0  0  0
   -6.6654   -3.7973    6.5931 H   0  0  0  0  0  0  0  0  0  0  0  0
   -6.1390   -4.1442    4.9459 H   0  0  0  0  0  0  0  0  0  0  0  0
   -4.5534   -2.4305    4.9074 H   0  0  0  0  0  0  0  0  0  0  0  0
   -4.3622   -3.1480    6.4927 H   0  0  0  0  0  0  0  0  0  0  0  0
   -5.5911   -0.4208    5.8059 H   0  0  0  0  0  0  0  0  0  0  0  0
   -4.1062   -0.8084    6.5812 H   0  0  0  0  0  0  0  0  0  0  0  0
   -5.6161   -2.0186    8.3534 H   0  0  0  0  0  0  0  0  0  0  0  0
   -5.0656   -0.3813    8.4877 H   0  0  0  0  0  0  0  0  0  0  0  0
   -7.3012   -0.5800    9.2914 H   0  0  0  0  0  0  0  0  0  0  0  0
   -9.1970   -1.3282    8.1509 H   0  0  0  0  0  0  0  0  0  0  0  0
   -8.0291   -2.4665    7.4890 H   0  0  0  0  0  0  0  0  0  0  0  0
   -7.4920   -0.8214    5.7017 H   0  0  0  0  0  0  0  0  0  0  0  0
  -10.3694   -0.9578    5.8730 H   0  0  0  0  0  0  0  0  0  0  0  0
   -7.3039   -0.8708    3.7339 H   0  0  0  0  0  0  0  0  0  0  0  0
   -8.2398   -0.6491    2.3077 H   0  0  0  0  0  0  0  0  0  0  0  0
   -8.3808   -2.1809    3.1917 H   0  0  0  0  0  0  0  0  0  0  0  0
  -11.4864   -0.3393    4.0396 H   0  0  0  0  0  0  0  0  0  0  0  0
  -10.8849   -1.8252    3.3033 H   0  0  0  0  0  0  0  0  0  0  0  0
  -10.4806    0.9778    2.1197 H   0  0  0  0  0  0  0  0  0  0  0  0
  -10.1575   -0.5719    1.3070 H   0  0  0  0  0  0  0  0  0  0  0  0
  -11.8084   -0.1113    1.7029 H   0  0  0  0  0  0  0  0  0  0  0  0
   -9.3959    1.0326    7.1599 H   0  0  0  0  0  0  0  0  0  0  0  0
   -8.2212    1.4741    5.8974 H   0  0  0  0  0  0  0  0  0  0  0  0
   -7.6950    1.4001    8.5095 H   0  0  0  0  0  0  0  0  0  0  0  0
  1  2  1  0
  2  3  1  0
  3  4  1  0
  4  5  1  0
  5  6  1  0
  6  7  1  0
  7  8  1  0
  8  9  1  0
  9 10  1  0
  9 11  1  0
 11 12  1  0
  7 13  1  0
 13 14  1  0
 14  5  1  0
  1 15  1  0
  1 16  1  0
  1 17  1  0
  2 18  1  0
  2 19  1  0
  3 20  1  0
  3 21  1  0
  4 22  1  0
  4 23  1  0
  5 24  1  0
  6 25  1  0
  6 26  1  0
  7 27  1  0
  8 28  1  0
 10 29  1  0
 10 30  1  0
 10 31  1  0
 11 32  1  0
 11 33  1  0
 12 34  1  0
 12 35  1  0
 12 36  1  0
 13 37  1  0
 13 38  1  0
 14 39  1  0
M  END
>  <Energy>  (689) 
75.564480560140609

>  <compound_id>  (689) 
958

>  <target_id>  (689) 
1

>  <reference_id>  (689) 
74

>  <inspiration_ids>  (689) 
[74, 95]

>  <energy_score>  (689) 
-11.01110696249168

>  <distance_score>  (689) 
2.024328905131991

>  <path>  (689) 
/opt/xchem-fragalysis-2/maxwin/BulkDock/SCRATCH/505733/C958-P74/C958-P74.minimised.mol

>  <scratch_subdir>  (689) 
/opt/xchem-fragalysis-2/maxwin/BulkDock/SCRATCH/505733/C958-P74

>  <fragmenstein_runtime>  (689) 
1.6649653911590576

>  <fragmenstein_outcome>  (689) 
too moved

>  <fragmenstein_mode>  (689) 
expansion

>  <fragmenstein_error>  (689) 


$$$$
C958-P95
     RDKit          3D

 39 39  0  0  0  0  0  0  0  0999 V2000
   -6.4500   -3.4541    5.9832 C   0  0  0  0  0  0  0  0  0  0  0  0
   -5.1240   -2.7211    6.0504 C   0  0  0  0  0  0  0  0  0  0  0  0
   -5.1012   -1.2526    6.5002 C   0  0  0  0  0  0  0  0  0  0  0  0
   -5.6505   -0.9162    7.8913 C   0  0  0  0  0  0  0  0  0  0  0  0
   -7.0574   -0.3368    8.1332 C   0  0  0  0  0  0  0  0  0  0  0  0
   -8.2172   -1.1548    7.5790 C   0  0  0  0  0  0  0  0  0  0  0  0
   -8.2935   -0.5808    6.1876 C   0  0  0  0  0  0  0  0  0  0  0  0
   -9.3954   -1.0731    5.3943 N   0  0  0  0  0  0  0  0  0  0  0  0
   -9.2718   -0.4988    4.0565 N   0  0  0  0  0  0  0  0  0  0  0  0
   -8.3476   -1.3197    3.2587 C   0  0  0  0  0  0  0  0  0  0  0  0
  -10.6200   -0.4637    3.4790 C   0  0  0  0  0  0  0  0  0  0  0  0
  -10.6597   -0.0185    2.0268 C   0  0  0  0  0  0  0  0  0  0  0  0
   -8.1991    0.9171    6.4792 C   0  0  0  0  0  0  0  0  0  0  0  0
   -7.1577    1.0173    7.5280 N   0  0  0  0  0  0  0  0  0  0  0  0
   -7.2067   -2.9090    5.4281 H   0  0  0  0  0  0  0  0  0  0  0  0
   -6.8150   -3.7035    6.9799 H   0  0  0  0  0  0  0  0  0  0  0  0
   -6.3383   -4.3990    5.4493 H   0  0  0  0  0  0  0  0  0  0  0  0
   -4.6685   -2.7610    5.0527 H   0  0  0  0  0  0  0  0  0  0  0  0
   -4.4509   -3.2860    6.7068 H   0  0  0  0  0  0  0  0  0  0  0  0
   -5.4740   -0.5815    5.7234 H   0  0  0  0  0  0  0  0  0  0  0  0
   -4.0280   -1.0217    6.5438 H   0  0  0  0  0  0  0  0  0  0  0  0
   -5.5621   -1.8094    8.4837 H   0  0  0  0  0  0  0  0  0  0  0  0
   -4.9438   -0.2071    8.3473 H   0  0  0  0  0  0  0  0  0  0  0  0
   -7.1819   -0.2330    9.2173 H   0  0  0  0  0  0  0  0  0  0  0  0
   -9.1367   -0.9309    8.1374 H   0  0  0  0  0  0  0  0  0  0  0  0
   -8.0682   -2.2296    7.6351 H   0  0  0  0  0  0  0  0  0  0  0  0
   -7.3902   -0.8521    5.6589 H   0  0  0  0  0  0  0  0  0  0  0  0
  -10.2775   -0.8283    5.8528 H   0  0  0  0  0  0  0  0  0  0  0  0
   -7.3365   -1.3381    3.6752 H   0  0  0  0  0  0  0  0  0  0  0  0
   -8.2179   -0.9013    2.2553 H   0  0  0  0  0  0  0  0  0  0  0  0
   -8.6982   -2.3542    3.1600 H   0  0  0  0  0  0  0  0  0  0  0  0
  -11.2278    0.2455    4.0564 H   0  0  0  0  0  0  0  0  0  0  0  0
  -11.1110   -1.4382    3.5636 H   0  0  0  0  0  0  0  0  0  0  0  0
  -11.6972    0.1556    1.7214 H   0  0  0  0  0  0  0  0  0  0  0  0
  -10.1099    0.9171    1.8804 H   0  0  0  0  0  0  0  0  0  0  0  0
  -10.2513   -0.7777    1.3526 H   0  0  0  0  0  0  0  0  0  0  0  0
   -9.1507    1.3058    6.8621 H   0  0  0  0  0  0  0  0  0  0  0  0
   -7.9119    1.5020    5.6004 H   0  0  0  0  0  0  0  0  0  0  0  0
   -7.4961    1.6690    8.2386 H   0  0  0  0  0  0  0  0  0  0  0  0
  1  2  1  0
  2  3  1  0
  3  4  1  0
  4  5  1  0
  5  6  1  0
  6  7  1  0
  7  8  1  0
  8  9  1  0
  9 10  1  0
  9 11  1  0
 11 12  1  0
  7 13  1  0
 13 14  1  0
 14  5  1  0
  1 15  1  0
  1 16  1  0
  1 17  1  0
  2 18  1  0
  2 19  1  0
  3 20  1  0
  3 21  1  0
  4 22  1  0
  4 23  1  0
  5 24  1  0
  6 25  1  0
  6 26  1  0
  7 27  1  0
  8 28  1  0
 10 29  1  0
 10 30  1  0
 10 31  1  0
 11 32  1  0
 11 33  1  0
 12 34  1  0
 12 35  1  0
 12 36  1  0
 13 37  1  0
 13 38  1  0
 14 39  1  0
M  END
>  <Energy>  (690) 
75.733291190219575

>  <compound_id>  (690) 
958

>  <target_id>  (690) 
1

>  <reference_id>  (690) 
95

>  <inspiration_ids>  (690) 
[74, 95]

>  <energy_score>  (690) 
-10.84229633241273

>  <distance_score>  (690) 
2.039784396021253

>  <path>  (690) 
/opt/xchem-fragalysis-2/maxwin/BulkDock/SCRATCH/505733/C958-P95/C958-P95.minimised.mol

>  <scratch_subdir>  (690) 
/opt/xchem-fragalysis-2/maxwin/BulkDock/SCRATCH/505733/C958-P95

>  <fragmenstein_runtime>  (690) 
2.280660390853882

>  <fragmenstein_outcome>  (690) 
too moved

>  <fragmenstein_mode>  (690) 
expansion

>  <fragmenstein_error>  (690) 


$$$$
C60-P74
     RDKit          3D

 23 23  0  0  0  0  0  0  0  0999 V2000
   -9.7963   -3.0114    6.2194 C   0  0  0  0  0  0  0  0  0  0  0  0
   -8.6320   -3.5646    7.0111 C   0  0  0  0  0  0  0  0  0  0  0  0
   -7.3594   -3.0869    6.5233 N   0  0  0  0  0  0  0  0  0  0  0  0
   -6.7823   -3.3526    5.3184 C   0  0  0  0  0  0  0  0  0  0  0  0
   -5.5408   -2.7677    5.3544 C   0  0  0  0  0  0  0  0  0  0  0  0
   -5.4604   -2.1614    6.6281 C   0  0  0  0  0  0  0  0  0  0  0  0
   -4.3141   -1.3712    7.1768 C   0  0  0  0  0  0  0  0  0  0  0  0
   -4.7152   -0.2494    8.0426 N   0  0  0  0  0  0  0  0  0  0  0  0
   -5.7900    0.5413    7.4530 C   0  0  0  0  0  0  0  0  0  0  0  0
   -6.5910   -2.3442    7.3196 N   0  0  0  0  0  0  0  0  0  0  0  0
  -10.7500   -3.3273    6.6491 H   0  0  0  0  0  0  0  0  0  0  0  0
   -9.7692   -3.3523    5.1790 H   0  0  0  0  0  0  0  0  0  0  0  0
   -9.7797   -1.9161    6.2102 H   0  0  0  0  0  0  0  0  0  0  0  0
   -8.7243   -3.2806    8.0651 H   0  0  0  0  0  0  0  0  0  0  0  0
   -8.6087   -4.6577    6.9619 H   0  0  0  0  0  0  0  0  0  0  0  0
   -7.2814   -3.9333    4.5604 H   0  0  0  0  0  0  0  0  0  0  0  0
   -4.7934   -2.7808    4.5752 H   0  0  0  0  0  0  0  0  0  0  0  0
   -3.7299   -0.9852    6.3349 H   0  0  0  0  0  0  0  0  0  0  0  0
   -3.6524   -2.0344    7.7434 H   0  0  0  0  0  0  0  0  0  0  0  0
   -3.8846    0.3271    8.1654 H   0  0  0  0  0  0  0  0  0  0  0  0
   -6.7761    0.1221    7.6695 H   0  0  0  0  0  0  0  0  0  0  0  0
   -5.6764    0.6681    6.3704 H   0  0  0  0  0  0  0  0  0  0  0  0
   -5.7996    1.5463    7.8787 H   0  0  0  0  0  0  0  0  0  0  0  0
  1  2  1  0
  2  3  1  0
  3  4  1  0
  4  5  2  0
  5  6  1  0
  6  7  1  0
  7  8  1  0
  8  9  1  0
  6 10  2  0
 10  3  1  0
  1 11  1  0
  1 12  1  0
  1 13  1  0
  2 14  1  0
  2 15  1  0
  4 16  1  0
  5 17  1  0
  7 18  1  0
  7 19  1  0
  8 20  1  0
  9 21  1  0
  9 22  1  0
  9 23  1  0
M  END
>  <Energy>  (691) 
31.94871635960693

>  <compound_id>  (691) 
60

>  <target_id>  (691) 
1

>  <reference_id>  (691) 
74

>  <inspiration_ids>  (691) 
[74, 99]

>  <energy_score>  (691) 
-9.395010538700262

>  <distance_score>  (691) 
1.5010628852939287

>  <path>  (691) 
/opt/xchem-fragalysis-2/maxwin/BulkDock/SCRATCH/505733/C60-P74/C60-P74.minimised.mol

>  <scratch_subdir>  (691) 
/opt/xchem-fragalysis-2/maxwin/BulkDock/SCRATCH/505733/C60-P74

>  <fragmenstein_runtime>  (691) 
0.9953873157501221

>  <fragmenstein_outcome>  (691) 
too moved

>  <fragmenstein_mode>  (691) 
expansion

>  <fragmenstein_error>  (691) 


$$$$
C60-P99
     RDKit          3D

 23 23  0  0  0  0  0  0  0  0999 V2000
   -9.7449   -3.1671    6.2726 C   0  0  0  0  0  0  0  0  0  0  0  0
   -8.6141   -3.1314    7.2784 C   0  0  0  0  0  0  0  0  0  0  0  0
   -7.3261   -2.8150    6.7014 N   0  0  0  0  0  0  0  0  0  0  0  0
   -6.7769   -3.3242    5.5629 C   0  0  0  0  0  0  0  0  0  0  0  0
   -5.5140   -2.7926    5.4795 C   0  0  0  0  0  0  0  0  0  0  0  0
   -5.3665   -1.9992    6.6410 C   0  0  0  0  0  0  0  0  0  0  0  0
   -4.1363   -1.2369    7.0456 C   0  0  0  0  0  0  0  0  0  0  0  0
   -4.3655   -0.0570    7.8912 N   0  0  0  0  0  0  0  0  0  0  0  0
   -5.4688    0.7701    7.4264 C   0  0  0  0  0  0  0  0  0  0  0  0
   -6.4910   -2.0064    7.3680 N   0  0  0  0  0  0  0  0  0  0  0  0
  -10.7065   -3.2531    6.7856 H   0  0  0  0  0  0  0  0  0  0  0  0
   -9.6506   -4.0186    5.5919 H   0  0  0  0  0  0  0  0  0  0  0  0
   -9.7684   -2.2536    5.6689 H   0  0  0  0  0  0  0  0  0  0  0  0
   -8.8310   -2.3739    8.0402 H   0  0  0  0  0  0  0  0  0  0  0  0
   -8.5101   -4.0987    7.7808 H   0  0  0  0  0  0  0  0  0  0  0  0
   -7.3125   -4.0129    4.9276 H   0  0  0  0  0  0  0  0  0  0  0  0
   -4.7853   -2.9772    4.7049 H   0  0  0  0  0  0  0  0  0  0  0  0
   -3.6055   -0.9260    6.1378 H   0  0  0  0  0  0  0  0  0  0  0  0
   -3.4666   -1.9172    7.5840 H   0  0  0  0  0  0  0  0  0  0  0  0
   -3.5055    0.4823    7.9155 H   0  0  0  0  0  0  0  0  0  0  0  0
   -6.4221    0.4564    7.8601 H   0  0  0  0  0  0  0  0  0  0  0  0
   -5.5522    0.7974    6.3344 H   0  0  0  0  0  0  0  0  0  0  0  0
   -5.3186    1.8045    7.7465 H   0  0  0  0  0  0  0  0  0  0  0  0
  1  2  1  0
  2  3  1  0
  3  4  1  0
  4  5  2  0
  5  6  1  0
  6  7  1  0
  7  8  1  0
  8  9  1  0
  6 10  2  0
 10  3  1  0
  1 11  1  0
  1 12  1  0
  1 13  1  0
  2 14  1  0
  2 15  1  0
  4 16  1  0
  5 17  1  0
  7 18  1  0
  7 19  1  0
  8 20  1  0
  9 21  1  0
  9 22  1  0
  9 23  1  0
M  END
>  <Energy>  (692) 
32.982127365003663

>  <compound_id>  (692) 
60

>  <target_id>  (692) 
1

>  <reference_id>  (692) 
99

>  <inspiration_ids>  (692) 
[74, 99]

>  <energy_score>  (692) 
-8.36159953330241

>  <distance_score>  (692) 
1.349203764093541

>  <path>  (692) 
/opt/xchem-fragalysis-2/maxwin/BulkDock/SCRATCH/505733/C60-P99/C60-P99.minimised.mol

>  <scratch_subdir>  (692) 
/opt/xchem-fragalysis-2/maxwin/BulkDock/SCRATCH/505733/C60-P99

>  <fragmenstein_runtime>  (692) 
1.3835704326629639

>  <fragmenstein_outcome>  (692) 
too moved

>  <fragmenstein_mode>  (692) 
expansion

>  <fragmenstein_error>  (692) 


$$$$
C966-P74
     RDKit          3D

 61 63  0  0  0  0  0  0  0  0999 V2000
  -13.0816   -1.2133    1.1466 C   0  0  0  0  0  0  0  0  0  0  0  0
  -12.7086    0.2310    0.8171 C   0  0  0  0  0  0  0  0  0  0  0  0
  -11.3910    0.6097    1.3518 N   0  0  0  0  0  0  0  0  0  0  0  0
  -10.3137   -0.1034    0.6486 N   0  0  0  0  0  0  0  0  0  0  0  0
   -9.6354    0.8373   -0.2468 C   0  0  0  0  0  0  0  0  0  0  0  0
   -8.1050    0.8996    0.0633 C   0  0  0  0  0  0  0  0  0  0  0  0
   -7.7175    1.2887    1.4326 N   0  0  0  0  0  0  0  0  0  0  0  0
   -7.2677    0.1625    2.2445 C   0  0  0  0  0  0  0  0  0  0  0  0
  -10.4035    2.1528   -0.0892 C   0  0  0  0  0  0  0  0  0  0  0  0
  -11.0665    2.0388    1.2676 C   0  0  0  0  0  0  0  0  0  0  0  0
  -12.1205    3.1007    1.5701 C   0  0  0  0  0  0  0  0  0  0  0  0
  -12.1532    3.1903    3.0918 C   0  0  0  0  0  0  0  0  0  0  0  0
  -10.8192    2.5933    3.5504 C   0  0  0  0  0  0  0  0  0  0  0  0
  -11.0323    1.3631    4.4445 C   0  0  0  0  0  0  0  0  0  0  0  0
   -9.8705    0.3831    4.5734 C   0  0  0  0  0  0  0  0  0  0  0  0
   -9.9786   -0.4727    5.7883 N   0  0  0  0  0  0  0  0  0  0  0  0
  -11.0576   -1.7298    5.8382 S   0  0  0  0  0  0  0  0  0  0  0  0
  -11.7775   -1.8316    4.5980 O   0  0  0  0  0  0  0  0  0  0  0  0
  -10.3170   -2.8609    6.3330 O   0  0  0  0  0  0  0  0  0  0  0  0
  -12.0816   -1.1708    7.0508 N   0  0  0  0  0  0  0  0  0  0  0  0
  -13.2722   -2.0094    7.3316 C   0  0  0  0  0  0  0  0  0  0  0  0
  -14.5925   -1.2771    7.0095 C   0  0  0  0  0  0  0  0  0  0  0  0
  -14.8038   -0.0314    7.7817 N   0  0  0  0  0  0  0  0  0  0  0  0
  -13.5109    0.5544    8.1676 C   0  0  0  0  0  0  0  0  0  0  0  0
  -12.4009    0.2735    7.1409 C   0  0  0  0  0  0  0  0  0  0  0  0
  -10.0794    2.3525    2.3198 N   0  0  0  0  0  0  0  0  0  0  0  0
  -12.4223   -1.9375    0.6598 H   0  0  0  0  0  0  0  0  0  0  0  0
  -14.1023   -1.4193    0.8071 H   0  0  0  0  0  0  0  0  0  0  0  0
  -13.0505   -1.3878    2.2262 H   0  0  0  0  0  0  0  0  0  0  0  0
  -13.4871    0.8433    1.2831 H   0  0  0  0  0  0  0  0  0  0  0  0
  -12.7692    0.3931   -0.2660 H   0  0  0  0  0  0  0  0  0  0  0  0
  -10.6177   -0.9439    0.1594 H   0  0  0  0  0  0  0  0  0  0  0  0
   -9.7421    0.4981   -1.2850 H   0  0  0  0  0  0  0  0  0  0  0  0
   -7.6455   -0.0594   -0.2097 H   0  0  0  0  0  0  0  0  0  0  0  0
   -7.6661    1.6441   -0.6120 H   0  0  0  0  0  0  0  0  0  0  0  0
   -8.5907    1.5960    1.8908 H   0  0  0  0  0  0  0  0  0  0  0  0
   -7.0595    0.5017    3.2631 H   0  0  0  0  0  0  0  0  0  0  0  0
   -6.3352   -0.2477    1.8433 H   0  0  0  0  0  0  0  0  0  0  0  0
   -8.0089   -0.6399    2.2875 H   0  0  0  0  0  0  0  0  0  0  0  0
  -11.1695    2.2261   -0.8732 H   0  0  0  0  0  0  0  0  0  0  0  0
   -9.7525    3.0288   -0.1910 H   0  0  0  0  0  0  0  0  0  0  0  0
  -11.8020    4.0719    1.1656 H   0  0  0  0  0  0  0  0  0  0  0  0
  -13.1080    2.9080    1.1437 H   0  0  0  0  0  0  0  0  0  0  0  0
  -13.0167    2.6421    3.4845 H   0  0  0  0  0  0  0  0  0  0  0  0
  -12.2533    4.2354    3.4054 H   0  0  0  0  0  0  0  0  0  0  0  0
  -10.2662    3.3354    4.1403 H   0  0  0  0  0  0  0  0  0  0  0  0
  -11.2439    1.7846    5.4305 H   0  0  0  0  0  0  0  0  0  0  0  0
  -11.9203    0.8064    4.1255 H   0  0  0  0  0  0  0  0  0  0  0  0
   -8.9353    0.9447    4.6761 H   0  0  0  0  0  0  0  0  0  0  0  0
   -9.7741   -0.2515    3.6896 H   0  0  0  0  0  0  0  0  0  0  0  0
   -9.0773   -0.8328    6.1050 H   0  0  0  0  0  0  0  0  0  0  0  0
  -13.2299   -2.2531    8.3918 H   0  0  0  0  0  0  0  0  0  0  0  0
  -13.2265   -2.9447    6.7794 H   0  0  0  0  0  0  0  0  0  0  0  0
  -15.4458   -1.9283    7.2047 H   0  0  0  0  0  0  0  0  0  0  0  0
  -14.6126   -1.0370    5.9387 H   0  0  0  0  0  0  0  0  0  0  0  0
  -15.3182    0.6176    7.1878 H   0  0  0  0  0  0  0  0  0  0  0  0
  -13.2217    0.1579    9.1485 H   0  0  0  0  0  0  0  0  0  0  0  0
  -13.6387    1.6358    8.2888 H   0  0  0  0  0  0  0  0  0  0  0  0
  -12.7659    0.6272    6.1757 H   0  0  0  0  0  0  0  0  0  0  0  0
  -11.5085    0.8265    7.4478 H   0  0  0  0  0  0  0  0  0  0  0  0
   -9.6274    3.2327    2.0578 H   0  0  0  0  0  0  0  0  0  0  0  0
  1  2  1  0
  2  3  1  0
  3  4  1  0
  4  5  1  0
  5  6  1  0
  6  7  1  0
  7  8  1  0
  5  9  1  0
  9 10  1  0
 10 11  1  0
 11 12  1  0
 12 13  1  0
 13 14  1  0
 14 15  1  0
 15 16  1  0
 16 17  1  0
 17 18  2  0
 17 19  2  0
 17 20  1  0
 20 21  1  0
 21 22  1  0
 22 23  1  0
 23 24  1  0
 24 25  1  0
 13 26  1  0
 10  3  1  0
 25 20  1  0
 26 10  1  0
  1 27  1  0
  1 28  1  0
  1 29  1  0
  2 30  1  0
  2 31  1  0
  4 32  1  0
  5 33  1  0
  6 34  1  0
  6 35  1  0
  7 36  1  0
  8 37  1  0
  8 38  1  0
  8 39  1  0
  9 40  1  0
  9 41  1  0
 11 42  1  0
 11 43  1  0
 12 44  1  0
 12 45  1  0
 13 46  1  0
 14 47  1  0
 14 48  1  0
 15 49  1  0
 15 50  1  0
 16 51  1  0
 21 52  1  0
 21 53  1  0
 22 54  1  0
 22 55  1  0
 23 56  1  0
 24 57  1  0
 24 58  1  0
 25 59  1  0
 25 60  1  0
 26 61  1  0
M  END
>  <Energy>  (693) 
-69.104054306104203

>  <compound_id>  (693) 
966

>  <target_id>  (693) 
1

>  <reference_id>  (693) 
74

>  <inspiration_ids>  (693) 
[74, 182]

>  <energy_score>  (693) 
-141.4031493212428

>  <distance_score>  (693) 
1.8331277199251719

>  <path>  (693) 
/opt/xchem-fragalysis-2/maxwin/BulkDock/SCRATCH/505733/C966-P74/C966-P74.minimised.mol

>  <scratch_subdir>  (693) 
/opt/xchem-fragalysis-2/maxwin/BulkDock/SCRATCH/505733/C966-P74

>  <fragmenstein_runtime>  (693) 
3.0680975914001465

>  <fragmenstein_outcome>  (693) 
too moved

>  <fragmenstein_mode>  (693) 
expansion

>  <fragmenstein_error>  (693) 


$$$$
C966-P182
     RDKit          3D

 61 63  0  0  0  0  0  0  0  0999 V2000
  -12.1642    4.0996   -0.8487 C   0  0  0  0  0  0  0  0  0  0  0  0
  -11.7148    2.6436   -0.8036 C   0  0  0  0  0  0  0  0  0  0  0  0
  -10.6217    2.4724    0.1649 N   0  0  0  0  0  0  0  0  0  0  0  0
   -9.6799    1.4616   -0.4070 N   0  0  0  0  0  0  0  0  0  0  0  0
   -9.1873    0.7224    0.7616 C   0  0  0  0  0  0  0  0  0  0  0  0
   -8.4325   -0.5904    0.5074 C   0  0  0  0  0  0  0  0  0  0  0  0
   -7.3424   -0.8682    1.4720 N   0  0  0  0  0  0  0  0  0  0  0  0
   -7.7385   -0.7381    2.8746 C   0  0  0  0  0  0  0  0  0  0  0  0
  -10.5079    0.5504    1.4961 C   0  0  0  0  0  0  0  0  0  0  0  0
  -11.0197    1.9796    1.5067 C   0  0  0  0  0  0  0  0  0  0  0  0
  -12.4535    2.1302    1.9949 C   0  0  0  0  0  0  0  0  0  0  0  0
  -12.3062    2.0809    3.4985 C   0  0  0  0  0  0  0  0  0  0  0  0
  -11.0104    2.8200    3.7636 C   0  0  0  0  0  0  0  0  0  0  0  0
  -10.3003    2.4320    5.0903 C   0  0  0  0  0  0  0  0  0  0  0  0
   -9.8843    0.9670    5.3247 C   0  0  0  0  0  0  0  0  0  0  0  0
  -10.8597    0.2257    6.1690 N   0  0  0  0  0  0  0  0  0  0  0  0
  -11.3200   -1.3018    5.6961 S   0  0  0  0  0  0  0  0  0  0  0  0
  -10.4963   -2.2744    6.3681 O   0  0  0  0  0  0  0  0  0  0  0  0
  -11.3419   -1.3021    4.2575 O   0  0  0  0  0  0  0  0  0  0  0  0
  -12.8593   -1.3053    6.3078 N   0  0  0  0  0  0  0  0  0  0  0  0
  -13.0295   -1.3307    7.7748 C   0  0  0  0  0  0  0  0  0  0  0  0
  -14.2431   -0.5065    8.2535 C   0  0  0  0  0  0  0  0  0  0  0  0
  -14.2890    0.8583    7.7091 N   0  0  0  0  0  0  0  0  0  0  0  0
  -14.1400    0.8284    6.2406 C   0  0  0  0  0  0  0  0  0  0  0  0
  -13.9207   -0.5597    5.6004 C   0  0  0  0  0  0  0  0  0  0  0  0
  -10.2115    2.6990    2.5284 N   0  0  0  0  0  0  0  0  0  0  0  0
  -12.5285    4.4595    0.1162 H   0  0  0  0  0  0  0  0  0  0  0  0
  -12.9733    4.2180   -1.5770 H   0  0  0  0  0  0  0  0  0  0  0  0
  -11.3398    4.7511   -1.1592 H   0  0  0  0  0  0  0  0  0  0  0  0
  -11.3695    2.4052   -1.8195 H   0  0  0  0  0  0  0  0  0  0  0  0
  -12.5584    1.9704   -0.6148 H   0  0  0  0  0  0  0  0  0  0  0  0
   -8.8915    1.9357   -0.8534 H   0  0  0  0  0  0  0  0  0  0  0  0
   -8.4998    1.3966    1.2904 H   0  0  0  0  0  0  0  0  0  0  0  0
   -7.9628   -0.5537   -0.4830 H   0  0  0  0  0  0  0  0  0  0  0  0
   -9.1225   -1.4401    0.4821 H   0  0  0  0  0  0  0  0  0  0  0  0
   -6.5752   -0.2204    1.2957 H   0  0  0  0  0  0  0  0  0  0  0  0
   -7.8948    0.3059    3.1529 H   0  0  0  0  0  0  0  0  0  0  0  0
   -8.6262   -1.3367    3.0953 H   0  0  0  0  0  0  0  0  0  0  0  0
   -6.9286   -1.1192    3.5051 H   0  0  0  0  0  0  0  0  0  0  0  0
  -11.1896   -0.1163    0.9486 H   0  0  0  0  0  0  0  0  0  0  0  0
  -10.3707    0.1220    2.4829 H   0  0  0  0  0  0  0  0  0  0  0  0
  -12.8823    3.1003    1.7273 H   0  0  0  0  0  0  0  0  0  0  0  0
  -13.1240    1.3468    1.6275 H   0  0  0  0  0  0  0  0  0  0  0  0
  -12.2469    1.0421    3.8159 H   0  0  0  0  0  0  0  0  0  0  0  0
  -13.1606    2.5512    3.9934 H   0  0  0  0  0  0  0  0  0  0  0  0
  -11.2595    3.8869    3.8561 H   0  0  0  0  0  0  0  0  0  0  0  0
  -10.9269    2.7680    5.9269 H   0  0  0  0  0  0  0  0  0  0  0  0
   -9.3857    3.0390    5.1397 H   0  0  0  0  0  0  0  0  0  0  0  0
   -9.7042    0.4711    4.3799 H   0  0  0  0  0  0  0  0  0  0  0  0
   -8.9330    0.9548    5.8710 H   0  0  0  0  0  0  0  0  0  0  0  0
  -10.6198    0.2302    7.1592 H   0  0  0  0  0  0  0  0  0  0  0  0
  -12.1345   -0.9556    8.2813 H   0  0  0  0  0  0  0  0  0  0  0  0
  -13.1621   -2.3745    8.0518 H   0  0  0  0  0  0  0  0  0  0  0  0
  -14.2270   -0.4467    9.3473 H   0  0  0  0  0  0  0  0  0  0  0  0
  -15.1743   -1.0153    7.9765 H   0  0  0  0  0  0  0  0  0  0  0  0
  -15.1861    1.2776    7.9476 H   0  0  0  0  0  0  0  0  0  0  0  0
  -13.2917    1.4768    6.0116 H   0  0  0  0  0  0  0  0  0  0  0  0
  -15.0210    1.2917    5.7815 H   0  0  0  0  0  0  0  0  0  0  0  0
  -14.8478   -1.1434    5.6575 H   0  0  0  0  0  0  0  0  0  0  0  0
  -13.7077   -0.4621    4.5330 H   0  0  0  0  0  0  0  0  0  0  0  0
  -10.0532    3.6246    2.1308 H   0  0  0  0  0  0  0  0  0  0  0  0
  1  2  1  0
  2  3  1  0
  3  4  1  0
  4  5  1  0
  5  6  1  0
  6  7  1  0
  7  8  1  0
  5  9  1  0
  9 10  1  0
 10 11  1  0
 11 12  1  0
 12 13  1  0
 13 14  1  0
 14 15  1  0
 15 16  1  0
 16 17  1  0
 17 18  2  0
 17 19  2  0
 17 20  1  0
 20 21  1  0
 21 22  1  0
 22 23  1  0
 23 24  1  0
 24 25  1  0
 13 26  1  0
 10  3  1  0
 25 20  1  0
 26 10  1  0
  1 27  1  0
  1 28  1  0
  1 29  1  0
  2 30  1  0
  2 31  1  0
  4 32  1  0
  5 33  1  0
  6 34  1  0
  6 35  1  0
  7 36  1  0
  8 37  1  0
  8 38  1  0
  8 39  1  0
  9 40  1  0
  9 41  1  0
 11 42  1  0
 11 43  1  0
 12 44  1  0
 12 45  1  0
 13 46  1  0
 14 47  1  0
 14 48  1  0
 15 49  1  0
 15 50  1  0
 16 51  1  0
 21 52  1  0
 21 53  1  0
 22 54  1  0
 22 55  1  0
 23 56  1  0
 24 57  1  0
 24 58  1  0
 25 59  1  0
 25 60  1  0
 26 61  1  0
M  END
>  <Energy>  (694) 
-73.821336046736633

>  <compound_id>  (694) 
966

>  <target_id>  (694) 
1

>  <reference_id>  (694) 
182

>  <inspiration_ids>  (694) 
[74, 182]

>  <energy_score>  (694) 
-146.1204310618754

>  <distance_score>  (694) 
2.1467971867055415

>  <path>  (694) 
/opt/xchem-fragalysis-2/maxwin/BulkDock/SCRATCH/505733/C966-P182/C966-P182.minimised.mol

>  <scratch_subdir>  (694) 
/opt/xchem-fragalysis-2/maxwin/BulkDock/SCRATCH/505733/C966-P182

>  <fragmenstein_runtime>  (694) 
2.7143714427948

>  <fragmenstein_outcome>  (694) 
too moved

>  <fragmenstein_mode>  (694) 
expansion

>  <fragmenstein_error>  (694) 


$$$$
C967-P75
     RDKit          3D

 40 41  0  0  0  0  0  0  0  0999 V2000
  -10.2951  -25.6632   32.9945 C   0  0  0  0  0  0  0  0  0  0  0  0
   -9.6986  -25.9387   31.5937 C   0  0  0  0  0  0  0  0  0  0  0  0
   -8.4063  -25.2139   31.6222 C   0  0  0  0  0  0  0  0  0  0  0  0
   -9.3574  -27.4121   31.2150 C   0  0  0  0  0  0  0  0  0  0  0  0
   -9.8074  -27.8054   29.9289 O   0  0  0  0  0  0  0  0  0  0  0  0
  -10.4895  -25.2373   30.5844 N   0  0  0  0  0  0  0  0  0  0  0  0
   -9.9578  -25.2360   29.2307 C   0  0  0  0  0  0  0  0  0  0  0  0
  -11.0455  -25.1060   28.2460 C   0  0  0  0  0  0  0  0  0  0  0  0
  -11.4228  -26.4580   27.2716 S   0  0  0  0  0  0  0  0  0  0  0  0
  -12.5153  -25.5500   26.3598 C   0  0  0  0  0  0  0  0  0  0  0  0
  -12.5400  -24.2410   26.7770 C   0  0  0  0  0  0  0  0  0  0  0  0
  -11.7582  -23.9610   27.9457 C   0  0  0  0  0  0  0  0  0  0  0  0
  -11.5009  -22.5917   28.5206 C   0  0  0  0  0  0  0  0  0  0  0  0
  -11.8541  -22.3706   29.9657 C   0  0  0  0  0  0  0  0  0  0  0  0
  -11.0301  -21.5344   30.6632 C   0  0  0  0  0  0  0  0  0  0  0  0
  -11.1903  -21.2344   32.0022 C   0  0  0  0  0  0  0  0  0  0  0  0
  -12.2048  -21.7837   32.7498 C   0  0  0  0  0  0  0  0  0  0  0  0
  -13.1491  -22.4889   32.0555 C   0  0  0  0  0  0  0  0  0  0  0  0
  -12.9953  -22.6803   30.6686 C   0  0  0  0  0  0  0  0  0  0  0  0
  -10.8898  -24.7413   32.9903 H   0  0  0  0  0  0  0  0  0  0  0  0
  -10.9328  -26.4398   33.3914 H   0  0  0  0  0  0  0  0  0  0  0  0
   -9.5244  -25.5113   33.7577 H   0  0  0  0  0  0  0  0  0  0  0  0
   -7.6460  -25.6340   32.2559 H   0  0  0  0  0  0  0  0  0  0  0  0
   -8.0179  -25.3224   30.6260 H   0  0  0  0  0  0  0  0  0  0  0  0
   -8.5501  -24.1934   31.9536 H   0  0  0  0  0  0  0  0  0  0  0  0
   -8.2910  -27.5979   31.1947 H   0  0  0  0  0  0  0  0  0  0  0  0
   -9.7179  -28.1431   31.9144 H   0  0  0  0  0  0  0  0  0  0  0  0
   -9.0539  -28.2210   29.4783 H   0  0  0  0  0  0  0  0  0  0  0  0
  -11.4174  -25.6522   30.5559 H   0  0  0  0  0  0  0  0  0  0  0  0
   -9.3056  -26.0521   28.9370 H   0  0  0  0  0  0  0  0  0  0  0  0
   -9.3115  -24.3793   29.0737 H   0  0  0  0  0  0  0  0  0  0  0  0
  -13.0425  -25.9932   25.5265 H   0  0  0  0  0  0  0  0  0  0  0  0
  -13.0743  -23.5186   26.1917 H   0  0  0  0  0  0  0  0  0  0  0  0
  -11.9735  -21.8242   27.9342 H   0  0  0  0  0  0  0  0  0  0  0  0
  -10.4307  -22.4104   28.3780 H   0  0  0  0  0  0  0  0  0  0  0  0
  -10.2949  -21.0111   30.0912 H   0  0  0  0  0  0  0  0  0  0  0  0
  -10.5787  -20.4335   32.3927 H   0  0  0  0  0  0  0  0  0  0  0  0
  -12.3326  -21.5586   33.8003 H   0  0  0  0  0  0  0  0  0  0  0  0
  -14.0340  -22.8738   32.5535 H   0  0  0  0  0  0  0  0  0  0  0  0
  -13.8341  -23.0804   30.1335 H   0  0  0  0  0  0  0  0  0  0  0  0
  1  2  1  0
  2  3  1  0
  2  4  1  0
  4  5  1  0
  2  6  1  0
  6  7  1  0
  7  8  1  0
  8  9  1  0
  9 10  1  0
 10 11  2  0
 11 12  1  0
 12 13  1  0
 13 14  1  0
 14 15  2  0
 15 16  1  0
 16 17  2  0
 17 18  1  0
 18 19  2  0
 12  8  2  0
 19 14  1  0
  1 20  1  0
  1 21  1  0
  1 22  1  0
  3 23  1  0
  3 24  1  0
  3 25  1  0
  4 26  1  0
  4 27  1  0
  5 28  1  0
  6 29  1  0
  7 30  1  0
  7 31  1  0
 10 32  1  0
 11 33  1  0
 13 34  1  0
 13 35  1  0
 15 36  1  0
 16 37  1  0
 17 38  1  0
 18 39  1  0
 19 40  1  0
M  END
>  <Energy>  (695) 
108.93848527108479

>  <compound_id>  (695) 
967

>  <target_id>  (695) 
1

>  <reference_id>  (695) 
75

>  <inspiration_ids>  (695) 
[75, 3]

>  <energy_score>  (695) 
10.241446209598337

>  <distance_score>  (695) 
2.030542568899846

>  <path>  (695) 
/opt/xchem-fragalysis-2/maxwin/BulkDock/SCRATCH/505733/C967-P75/C967-P75.minimised.mol

>  <scratch_subdir>  (695) 
/opt/xchem-fragalysis-2/maxwin/BulkDock/SCRATCH/505733/C967-P75

>  <fragmenstein_runtime>  (695) 
3.7337265014648438

>  <fragmenstein_outcome>  (695) 
too moved

>  <fragmenstein_mode>  (695) 
expansion

>  <fragmenstein_error>  (695) 


$$$$
C967-P3
     RDKit          3D

 40 41  0  0  0  0  0  0  0  0999 V2000
  -11.1883  -23.5924   31.3277 C   0  0  0  0  0  0  0  0  0  0  0  0
  -10.0195  -24.4022   31.1291 C   0  0  0  0  0  0  0  0  0  0  0  0
   -8.7814  -23.7223   30.7133 C   0  0  0  0  0  0  0  0  0  0  0  0
   -9.6726  -24.8796   32.5598 C   0  0  0  0  0  0  0  0  0  0  0  0
   -9.7069  -23.7752   33.4666 O   0  0  0  0  0  0  0  0  0  0  0  0
  -10.5057  -25.2761   30.0384 N   0  0  0  0  0  0  0  0  0  0  0  0
  -11.5590  -24.8576   29.0758 C   0  0  0  0  0  0  0  0  0  0  0  0
  -11.7172  -23.5175   28.2825 C   0  0  0  0  0  0  0  0  0  0  0  0
  -12.7506  -23.8575   26.8834 S   0  0  0  0  0  0  0  0  0  0  0  0
  -12.8157  -22.2555   26.3895 C   0  0  0  0  0  0  0  0  0  0  0  0
  -12.1082  -21.4462   27.2303 C   0  0  0  0  0  0  0  0  0  0  0  0
  -11.4323  -22.1172   28.3373 C   0  0  0  0  0  0  0  0  0  0  0  0
  -10.4811  -21.1866   29.1297 C   0  0  0  0  0  0  0  0  0  0  0  0
  -10.7848  -20.7479   30.5657 C   0  0  0  0  0  0  0  0  0  0  0  0
   -9.9875  -21.0687   31.6856 C   0  0  0  0  0  0  0  0  0  0  0  0
  -10.2708  -20.7136   33.0048 C   0  0  0  0  0  0  0  0  0  0  0  0
  -11.3240  -19.8807   33.2542 C   0  0  0  0  0  0  0  0  0  0  0  0
  -11.9712  -19.3387   32.1638 C   0  0  0  0  0  0  0  0  0  0  0  0
  -11.6653  -19.7340   30.8437 C   0  0  0  0  0  0  0  0  0  0  0  0
  -11.5720  -23.0338   30.5044 H   0  0  0  0  0  0  0  0  0  0  0  0
  -11.8528  -24.4283   31.5580 H   0  0  0  0  0  0  0  0  0  0  0  0
  -11.1521  -22.8868   32.1347 H   0  0  0  0  0  0  0  0  0  0  0  0
   -8.1305  -23.3562   31.5124 H   0  0  0  0  0  0  0  0  0  0  0  0
   -8.2403  -24.4816   30.1994 H   0  0  0  0  0  0  0  0  0  0  0  0
   -8.9884  -22.9307   30.0391 H   0  0  0  0  0  0  0  0  0  0  0  0
   -8.6479  -25.2146   32.6130 H   0  0  0  0  0  0  0  0  0  0  0  0
  -10.3635  -25.6400   32.9293 H   0  0  0  0  0  0  0  0  0  0  0  0
   -8.9153  -23.8855   34.0257 H   0  0  0  0  0  0  0  0  0  0  0  0
  -10.8381  -26.1457   30.4505 H   0  0  0  0  0  0  0  0  0  0  0  0
  -12.5327  -25.0252   29.5620 H   0  0  0  0  0  0  0  0  0  0  0  0
  -11.4994  -25.6545   28.3194 H   0  0  0  0  0  0  0  0  0  0  0  0
  -13.3694  -21.9622   25.5075 H   0  0  0  0  0  0  0  0  0  0  0  0
  -12.0323  -20.3796   27.0505 H   0  0  0  0  0  0  0  0  0  0  0  0
  -10.4281  -20.2367   28.5733 H   0  0  0  0  0  0  0  0  0  0  0  0
   -9.4739  -21.5509   28.9917 H   0  0  0  0  0  0  0  0  0  0  0  0
   -9.0747  -21.6265   31.5852 H   0  0  0  0  0  0  0  0  0  0  0  0
   -9.6779  -21.1317   33.8074 H   0  0  0  0  0  0  0  0  0  0  0  0
  -11.6175  -19.6202   34.2649 H   0  0  0  0  0  0  0  0  0  0  0  0
  -12.7652  -18.6303   32.3642 H   0  0  0  0  0  0  0  0  0  0  0  0
  -12.0917  -19.2020   30.0049 H   0  0  0  0  0  0  0  0  0  0  0  0
  1  2  1  0
  2  3  1  0
  2  4  1  0
  4  5  1  0
  2  6  1  0
  6  7  1  0
  7  8  1  0
  8  9  1  0
  9 10  1  0
 10 11  2  0
 11 12  1  0
 12 13  1  0
 13 14  1  0
 14 15  2  0
 15 16  1  0
 16 17  2  0
 17 18  1  0
 18 19  2  0
 12  8  2  0
 19 14  1  0
  1 20  1  0
  1 21  1  0
  1 22  1  0
  3 23  1  0
  3 24  1  0
  3 25  1  0
  4 26  1  0
  4 27  1  0
  5 28  1  0
  6 29  1  0
  7 30  1  0
  7 31  1  0
 10 32  1  0
 11 33  1  0
 13 34  1  0
 13 35  1  0
 15 36  1  0
 16 37  1  0
 17 38  1  0
 18 39  1  0
 19 40  1  0
M  END
>  <Energy>  (696) 
190.07467349121913

>  <compound_id>  (696) 
967

>  <target_id>  (696) 
1

>  <reference_id>  (696) 
3

>  <inspiration_ids>  (696) 
[75, 3]

>  <energy_score>  (696) 
65.76182081022097

>  <distance_score>  (696) 
2.260405358020559

>  <path>  (696) 
/opt/xchem-fragalysis-2/maxwin/BulkDock/SCRATCH/505733/C967-P3/C967-P3.minimised.mol

>  <scratch_subdir>  (696) 
/opt/xchem-fragalysis-2/maxwin/BulkDock/SCRATCH/505733/C967-P3

>  <fragmenstein_runtime>  (696) 
3.8534135818481445

>  <fragmenstein_outcome>  (696) 
too moved

>  <fragmenstein_mode>  (696) 
expansion

>  <fragmenstein_error>  (696) 


$$$$
C971-P75
     RDKit          3D

 41 41  0  0  0  0  0  0  0  0999 V2000
  -16.3808  -25.7165   24.5902 C   0  0  0  0  0  0  0  0  0  0  0  0
  -15.0882  -24.9876   24.8949 C   0  0  0  0  0  0  0  0  0  0  0  0
  -13.8377  -26.0837   25.5403 S   0  0  0  0  0  0  0  0  0  0  0  0
  -13.5005  -26.9742   24.4567 O   0  0  0  0  0  0  0  0  0  0  0  0
  -14.2525  -26.5491   26.8409 O   0  0  0  0  0  0  0  0  0  0  0  0
  -12.4685  -25.1185   25.6337 N   0  0  0  0  0  0  0  0  0  0  0  0
  -11.9036  -25.0167   26.9602 C   0  0  0  0  0  0  0  0  0  0  0  0
  -12.0051  -23.8552   27.6401 C   0  0  0  0  0  0  0  0  0  0  0  0
  -11.3375  -23.8475   28.8900 C   0  0  0  0  0  0  0  0  0  0  0  0
  -11.3944  -22.5537   29.6410 C   0  0  0  0  0  0  0  0  0  0  0  0
  -10.7568  -25.0989   29.1422 C   0  0  0  0  0  0  0  0  0  0  0  0
   -9.8683  -25.6629   30.2216 C   0  0  0  0  0  0  0  0  0  0  0  0
  -10.3680  -26.0357   31.5467 N   0  0  0  0  0  0  0  0  0  0  0  0
  -10.6466  -25.0166   32.5610 C   0  0  0  0  0  0  0  0  0  0  0  0
   -9.3597  -24.2718   32.7426 C   0  0  0  0  0  0  0  0  0  0  0  0
  -10.9242  -25.7794   33.8851 C   0  0  0  0  0  0  0  0  0  0  0  0
  -11.8887  -24.1092   32.4071 C   0  0  0  0  0  0  0  0  0  0  0  0
  -11.8011  -22.8396   33.0465 O   0  0  0  0  0  0  0  0  0  0  0  0
  -10.9519  -26.1442   27.7438 S   0  0  0  0  0  0  0  0  0  0  0  0
  -16.2443  -26.4117   23.7591 H   0  0  0  0  0  0  0  0  0  0  0  0
  -17.1604  -25.0036   24.3043 H   0  0  0  0  0  0  0  0  0  0  0  0
  -16.7363  -26.2840   25.4556 H   0  0  0  0  0  0  0  0  0  0  0  0
  -14.7141  -24.5040   23.9955 H   0  0  0  0  0  0  0  0  0  0  0  0
  -15.2786  -24.2252   25.6295 H   0  0  0  0  0  0  0  0  0  0  0  0
  -11.7762  -25.5082   24.9940 H   0  0  0  0  0  0  0  0  0  0  0  0
  -12.5108  -23.0084   27.2358 H   0  0  0  0  0  0  0  0  0  0  0  0
  -10.9315  -21.7621   29.0439 H   0  0  0  0  0  0  0  0  0  0  0  0
  -12.4370  -22.2642   29.8074 H   0  0  0  0  0  0  0  0  0  0  0  0
  -10.9119  -22.5482   30.6119 H   0  0  0  0  0  0  0  0  0  0  0  0
   -8.9689  -25.0553   30.2612 H   0  0  0  0  0  0  0  0  0  0  0  0
   -9.4981  -26.6224   29.8410 H   0  0  0  0  0  0  0  0  0  0  0  0
   -9.6440  -26.6554   31.9347 H   0  0  0  0  0  0  0  0  0  0  0  0
   -8.5443  -24.5564   32.0793 H   0  0  0  0  0  0  0  0  0  0  0  0
   -8.9903  -24.5457   33.7191 H   0  0  0  0  0  0  0  0  0  0  0  0
   -9.4859  -23.1998   32.6588 H   0  0  0  0  0  0  0  0  0  0  0  0
  -11.8851  -26.2934   33.9293 H   0  0  0  0  0  0  0  0  0  0  0  0
  -10.1555  -26.5151   34.0827 H   0  0  0  0  0  0  0  0  0  0  0  0
  -10.9444  -25.1107   34.7386 H   0  0  0  0  0  0  0  0  0  0  0  0
  -12.0773  -23.8991   31.3779 H   0  0  0  0  0  0  0  0  0  0  0  0
  -12.7948  -24.5823   32.8011 H   0  0  0  0  0  0  0  0  0  0  0  0
  -12.0706  -22.9934   33.9709 H   0  0  0  0  0  0  0  0  0  0  0  0
  1  2  1  0
  2  3  1  0
  3  4  2  0
  3  5  2  0
  3  6  1  0
  6  7  1  0
  7  8  2  0
  8  9  1  0
  9 10  1  0
  9 11  2  0
 11 12  1  0
 12 13  1  0
 13 14  1  0
 14 15  1  0
 14 16  1  0
 14 17  1  0
 17 18  1  0
 11 19  1  0
 19  7  1  0
  1 20  1  0
  1 21  1  0
  1 22  1  0
  2 23  1  0
  2 24  1  0
  6 25  1  0
  8 26  1  0
 10 27  1  0
 10 28  1  0
 10 29  1  0
 12 30  1  0
 12 31  1  0
 13 32  1  0
 15 33  1  0
 15 34  1  0
 15 35  1  0
 16 36  1  0
 16 37  1  0
 16 38  1  0
 17 39  1  0
 17 40  1  0
 18 41  1  0
M  END
>  <Energy>  (697) 
11.671305084285212

>  <compound_id>  (697) 
971

>  <target_id>  (697) 
1

>  <reference_id>  (697) 
75

>  <inspiration_ids>  (697) 
[75, 35]

>  <energy_score>  (697) 
-37.537281476507985

>  <distance_score>  (697) 
1.0854233460528804

>  <path>  (697) 
/opt/xchem-fragalysis-2/maxwin/BulkDock/SCRATCH/505733/C971-P75/C971-P75.minimised.mol

>  <scratch_subdir>  (697) 
/opt/xchem-fragalysis-2/maxwin/BulkDock/SCRATCH/505733/C971-P75

>  <fragmenstein_runtime>  (697) 
3.128114700317383

>  <fragmenstein_outcome>  (697) 
too moved

>  <fragmenstein_mode>  (697) 
expansion

>  <fragmenstein_error>  (697) 


$$$$
C971-P35
     RDKit          3D

 41 41  0  0  0  0  0  0  0  0999 V2000
  -15.3274  -26.3235   28.5361 C   0  0  0  0  0  0  0  0  0  0  0  0
  -15.7414  -26.2276   27.0806 C   0  0  0  0  0  0  0  0  0  0  0  0
  -14.7025  -27.1423   25.9548 S   0  0  0  0  0  0  0  0  0  0  0  0
  -15.4400  -27.2502   24.7103 O   0  0  0  0  0  0  0  0  0  0  0  0
  -14.2286  -28.3181   26.6500 O   0  0  0  0  0  0  0  0  0  0  0  0
  -13.4443  -26.0888   25.5965 N   0  0  0  0  0  0  0  0  0  0  0  0
  -12.5405  -25.7375   26.6677 C   0  0  0  0  0  0  0  0  0  0  0  0
  -12.2490  -24.4348   26.9290 C   0  0  0  0  0  0  0  0  0  0  0  0
  -11.3209  -24.2951   28.0002 C   0  0  0  0  0  0  0  0  0  0  0  0
  -10.8623  -22.9391   28.3656 C   0  0  0  0  0  0  0  0  0  0  0  0
  -10.9285  -25.5320   28.5126 C   0  0  0  0  0  0  0  0  0  0  0  0
   -9.9068  -25.9695   29.5255 C   0  0  0  0  0  0  0  0  0  0  0  0
   -9.6849  -25.1265   30.6999 N   0  0  0  0  0  0  0  0  0  0  0  0
  -10.6588  -25.2543   31.8032 C   0  0  0  0  0  0  0  0  0  0  0  0
   -9.9676  -24.6720   33.0477 C   0  0  0  0  0  0  0  0  0  0  0  0
  -10.9313  -26.7480   32.0578 C   0  0  0  0  0  0  0  0  0  0  0  0
  -11.9202  -24.3907   31.5032 C   0  0  0  0  0  0  0  0  0  0  0  0
  -11.6725  -22.9868   31.6368 O   0  0  0  0  0  0  0  0  0  0  0  0
  -11.6691  -26.8095   27.6247 S   0  0  0  0  0  0  0  0  0  0  0  0
  -16.1112  -25.9210   29.1839 H   0  0  0  0  0  0  0  0  0  0  0  0
  -14.4184  -25.7534   28.7364 H   0  0  0  0  0  0  0  0  0  0  0  0
  -15.1556  -27.3592   28.8438 H   0  0  0  0  0  0  0  0  0  0  0  0
  -16.7439  -26.6562   26.9693 H   0  0  0  0  0  0  0  0  0  0  0  0
  -15.7838  -25.1986   26.7192 H   0  0  0  0  0  0  0  0  0  0  0  0
  -13.7819  -25.3065   25.0357 H   0  0  0  0  0  0  0  0  0  0  0  0
  -12.6554  -23.6005   26.3694 H   0  0  0  0  0  0  0  0  0  0  0  0
  -11.2449  -22.1877   27.6672 H   0  0  0  0  0  0  0  0  0  0  0  0
  -11.2241  -22.6389   29.3428 H   0  0  0  0  0  0  0  0  0  0  0  0
   -9.7771  -22.9070   28.3065 H   0  0  0  0  0  0  0  0  0  0  0  0
   -8.9626  -25.9558   28.9846 H   0  0  0  0  0  0  0  0  0  0  0  0
  -10.0307  -27.0252   29.7860 H   0  0  0  0  0  0  0  0  0  0  0  0
   -8.7747  -25.4154   31.0757 H   0  0  0  0  0  0  0  0  0  0  0  0
   -9.3746  -23.7850   32.8083 H   0  0  0  0  0  0  0  0  0  0  0  0
   -9.3138  -25.4124   33.5194 H   0  0  0  0  0  0  0  0  0  0  0  0
  -10.6989  -24.3386   33.7825 H   0  0  0  0  0  0  0  0  0  0  0  0
  -11.7611  -27.1262   31.4522 H   0  0  0  0  0  0  0  0  0  0  0  0
  -10.0448  -27.3578   31.8438 H   0  0  0  0  0  0  0  0  0  0  0  0
  -11.1154  -26.9638   33.1099 H   0  0  0  0  0  0  0  0  0  0  0  0
  -12.7473  -24.5809   32.1726 H   0  0  0  0  0  0  0  0  0  0  0  0
  -12.3281  -24.5790   30.5103 H   0  0  0  0  0  0  0  0  0  0  0  0
  -10.7301  -22.8665   31.4446 H   0  0  0  0  0  0  0  0  0  0  0  0
  1  2  1  0
  2  3  1  0
  3  4  2  0
  3  5  2  0
  3  6  1  0
  6  7  1  0
  7  8  2  0
  8  9  1  0
  9 10  1  0
  9 11  2  0
 11 12  1  0
 12 13  1  0
 13 14  1  0
 14 15  1  0
 14 16  1  0
 14 17  1  0
 17 18  1  0
 11 19  1  0
 19  7  1  0
  1 20  1  0
  1 21  1  0
  1 22  1  0
  2 23  1  0
  2 24  1  0
  6 25  1  0
  8 26  1  0
 10 27  1  0
 10 28  1  0
 10 29  1  0
 12 30  1  0
 12 31  1  0
 13 32  1  0
 15 33  1  0
 15 34  1  0
 15 35  1  0
 16 36  1  0
 16 37  1  0
 16 38  1  0
 17 39  1  0
 17 40  1  0
 18 41  1  0
M  END
>  <Energy>  (698) 
-9.9715216362627395

>  <compound_id>  (698) 
971

>  <target_id>  (698) 
1

>  <reference_id>  (698) 
35

>  <inspiration_ids>  (698) 
[75, 35]

>  <energy_score>  (698) 
-59.18010819705637

>  <distance_score>  (698) 
1.4004362610557743

>  <path>  (698) 
/opt/xchem-fragalysis-2/maxwin/BulkDock/SCRATCH/505733/C971-P35/C971-P35.minimised.mol

>  <scratch_subdir>  (698) 
/opt/xchem-fragalysis-2/maxwin/BulkDock/SCRATCH/505733/C971-P35

>  <fragmenstein_runtime>  (698) 
2.5490288734436035

>  <fragmenstein_outcome>  (698) 
too moved

>  <fragmenstein_mode>  (698) 
expansion

>  <fragmenstein_error>  (698) 


$$$$
C972-P75
     RDKit          3D

 49 50  0  0  0  0  0  0  0  0999 V2000
  -11.2814  -21.3427   29.6970 C   0  0  0  0  0  0  0  0  0  0  0  0
  -11.9480  -22.4701   30.3638 C   0  0  0  0  0  0  0  0  0  0  0  0
  -12.0563  -22.5396   31.5757 O   0  0  0  0  0  0  0  0  0  0  0  0
  -12.4148  -23.3227   29.4129 N   0  0  0  0  0  0  0  0  0  0  0  0
  -11.9003  -24.5125   28.7328 C   0  0  0  0  0  0  0  0  0  0  0  0
  -10.4990  -25.7622   28.5147 C   0  0  0  0  0  0  0  0  0  0  0  0
  -10.5434  -27.2447   28.5682 C   0  0  0  0  0  0  0  0  0  0  0  0
   -9.7644  -27.6411   27.4474 O   0  0  0  0  0  0  0  0  0  0  0  0
  -11.2259  -25.3271   27.4050 C   0  0  0  0  0  0  0  0  0  0  0  0
  -10.4297  -24.5918   26.0376 S   0  0  0  0  0  0  0  0  0  0  0  0
  -11.9509  -23.9501   25.3686 C   0  0  0  0  0  0  0  0  0  0  0  0
  -13.0146  -24.9826   25.7076 C   0  0  0  0  0  0  0  0  0  0  0  0
  -12.4272  -26.0453   26.6625 C   0  0  0  0  0  0  0  0  0  0  0  0
  -12.1280  -27.3176   25.8596 C   0  0  0  0  0  0  0  0  0  0  0  0
  -11.2876  -24.3874   29.1321 C   0  0  0  0  0  0  0  0  0  0  0  0
  -11.1473  -25.0851   30.7410 N   0  0  0  0  0  0  0  0  0  0  0  0
  -10.1361  -25.1781   31.8018 C   0  0  0  0  0  0  0  0  0  0  0  0
   -9.4132  -23.9420   32.1735 C   0  0  0  0  0  0  0  0  0  0  0  0
   -9.1094  -26.1548   31.2844 C   0  0  0  0  0  0  0  0  0  0  0  0
  -10.6726  -25.5825   33.2412 C   0  0  0  0  0  0  0  0  0  0  0  0
   -9.6745  -25.6928   34.2693 O   0  0  0  0  0  0  0  0  0  0  0  0
  -10.6470  -20.8780   30.4411 H   0  0  0  0  0  0  0  0  0  0  0  0
  -12.0576  -20.6814   29.3275 H   0  0  0  0  0  0  0  0  0  0  0  0
  -10.6700  -21.6677   28.8538 H   0  0  0  0  0  0  0  0  0  0  0  0
  -12.2859  -23.8639   27.7297 H   0  0  0  0  0  0  0  0  0  0  0  0
  -12.8897  -25.1416   28.6534 H   0  0  0  0  0  0  0  0  0  0  0  0
   -9.4663  -25.3618   28.4355 H   0  0  0  0  0  0  0  0  0  0  0  0
  -10.0662  -27.6510   29.4516 H   0  0  0  0  0  0  0  0  0  0  0  0
  -11.5288  -27.6938   28.4992 H   0  0  0  0  0  0  0  0  0  0  0  0
   -8.8247  -27.5159   27.6731 H   0  0  0  0  0  0  0  0  0  0  0  0
  -12.1336  -23.0259   25.8927 H   0  0  0  0  0  0  0  0  0  0  0  0
  -11.8517  -23.6674   24.3282 H   0  0  0  0  0  0  0  0  0  0  0  0
  -13.8519  -24.4854   26.1998 H   0  0  0  0  0  0  0  0  0  0  0  0
  -13.4654  -25.4443   24.8292 H   0  0  0  0  0  0  0  0  0  0  0  0
  -13.2482  -26.3448   27.2930 H   0  0  0  0  0  0  0  0  0  0  0  0
  -12.8976  -27.4785   25.1036 H   0  0  0  0  0  0  0  0  0  0  0  0
  -12.1192  -28.2050   26.4972 H   0  0  0  0  0  0  0  0  0  0  0  0
  -11.1889  -27.2875   25.3275 H   0  0  0  0  0  0  0  0  0  0  0  0
  -10.2861  -23.7486   29.1542 H   0  0  0  0  0  0  0  0  0  0  0  0
  -12.0418  -24.7604   31.1623 H   0  0  0  0  0  0  0  0  0  0  0  0
   -9.9488  -23.0339   31.9388 H   0  0  0  0  0  0  0  0  0  0  0  0
   -8.4149  -24.0609   31.7885 H   0  0  0  0  0  0  0  0  0  0  0  0
   -9.1548  -23.8165   33.2084 H   0  0  0  0  0  0  0  0  0  0  0  0
   -9.4364  -27.1938   31.3496 H   0  0  0  0  0  0  0  0  0  0  0  0
   -8.1521  -26.0314   31.7807 H   0  0  0  0  0  0  0  0  0  0  0  0
   -8.8496  -25.9003   30.2663 H   0  0  0  0  0  0  0  0  0  0  0  0
  -11.4332  -24.8696   33.5804 H   0  0  0  0  0  0  0  0  0  0  0  0
  -11.1039  -26.5528   33.2942 H   0  0  0  0  0  0  0  0  0  0  0  0
   -8.8855  -26.0653   33.8156 H   0  0  0  0  0  0  0  0  0  0  0  0
  1  2  1  0
  2  3  2  0
  2  4  1  0
  4  5  1  0
  5  6  1  0
  6  7  1  0
  7  8  1  0
  6  9  1  0
  9 10  1  0
 10 11  1  0
 11 12  1  0
 12 13  1  0
 13 14  1  0
  9 15  1  0
 15 16  1  0
 16 17  1  0
 17 18  1  0
 17 19  1  0
 17 20  1  0
 20 21  1  0
 15  4  1  0
 13  9  1  0
  1 22  1  0
  1 23  1  0
  1 24  1  0
  5 25  1  0
  5 26  1  0
  6 27  1  0
  7 28  1  0
  7 29  1  0
  8 30  1  0
 11 31  1  0
 11 32  1  0
 12 33  1  0
 12 34  1  0
 13 35  1  0
 14 36  1  0
 14 37  1  0
 14 38  1  0
 15 39  1  0
 16 40  1  0
 18 41  1  0
 18 42  1  0
 18 43  1  0
 19 44  1  0
 19 45  1  0
 19 46  1  0
 20 47  1  0
 20 48  1  0
 21 49  1  0
M  END
>  <Energy>  (699) 
872.5315762449942

>  <compound_id>  (699) 
972

>  <target_id>  (699) 
1

>  <reference_id>  (699) 
75

>  <inspiration_ids>  (699) 
[75, 38]

>  <energy_score>  (699) 
762.5739499858087

>  <distance_score>  (699) 
2.7112514194191544

>  <path>  (699) 
/opt/xchem-fragalysis-2/maxwin/BulkDock/SCRATCH/505733/C972-P75/C972-P75.minimised.mol

>  <scratch_subdir>  (699) 
/opt/xchem-fragalysis-2/maxwin/BulkDock/SCRATCH/505733/C972-P75

>  <fragmenstein_runtime>  (699) 
8.651765823364258

>  <fragmenstein_outcome>  (699) 
too moved

>  <fragmenstein_mode>  (699) 
expansion

>  <fragmenstein_error>  (699) 


$$$$
C972-P38
     RDKit          3D

 49 50  0  0  0  0  0  0  0  0999 V2000
  -12.8952  -22.4222   31.8253 C   0  0  0  0  0  0  0  0  0  0  0  0
  -12.1809  -22.4797   30.4964 C   0  0  0  0  0  0  0  0  0  0  0  0
  -12.1907  -21.5242   29.7390 O   0  0  0  0  0  0  0  0  0  0  0  0
  -11.5883  -23.6800   30.2420 N   0  0  0  0  0  0  0  0  0  0  0  0
  -12.8619  -24.7643   29.4443 C   0  0  0  0  0  0  0  0  0  0  0  0
  -12.6884  -26.1272   28.5738 C   0  0  0  0  0  0  0  0  0  0  0  0
  -14.0732  -26.5910   28.0445 C   0  0  0  0  0  0  0  0  0  0  0  0
  -14.3495  -26.7300   26.6723 O   0  0  0  0  0  0  0  0  0  0  0  0
  -11.5910  -25.3877   27.9202 C   0  0  0  0  0  0  0  0  0  0  0  0
  -10.2359  -24.1634   27.7526 S   0  0  0  0  0  0  0  0  0  0  0  0
  -11.3400  -22.9000   27.1144 C   0  0  0  0  0  0  0  0  0  0  0  0
  -11.7488  -23.6965   25.9221 C   0  0  0  0  0  0  0  0  0  0  0  0
  -12.1838  -25.0250   26.5173 C   0  0  0  0  0  0  0  0  0  0  0  0
  -11.7418  -26.1386   25.5609 C   0  0  0  0  0  0  0  0  0  0  0  0
  -11.9660  -24.8746   29.6622 C   0  0  0  0  0  0  0  0  0  0  0  0
  -11.7718  -25.8264   31.0461 N   0  0  0  0  0  0  0  0  0  0  0  0
  -10.4016  -26.0802   31.5859 C   0  0  0  0  0  0  0  0  0  0  0  0
   -9.2278  -25.1798   31.2466 C   0  0  0  0  0  0  0  0  0  0  0  0
  -10.0792  -27.4487   31.0273 C   0  0  0  0  0  0  0  0  0  0  0  0
  -10.4667  -25.9399   33.1278 C   0  0  0  0  0  0  0  0  0  0  0  0
  -11.2450  -24.7974   33.4891 O   0  0  0  0  0  0  0  0  0  0  0  0
  -13.8841  -21.9785   31.6815 H   0  0  0  0  0  0  0  0  0  0  0  0
  -12.3112  -21.8145   32.5208 H   0  0  0  0  0  0  0  0  0  0  0  0
  -13.0531  -23.4086   32.2581 H   0  0  0  0  0  0  0  0  0  0  0  0
  -13.7729  -24.7905   30.1656 H   0  0  0  0  0  0  0  0  0  0  0  0
  -13.4184  -24.0087   28.7653 H   0  0  0  0  0  0  0  0  0  0  0  0
  -12.2804  -27.0124   29.0888 H   0  0  0  0  0  0  0  0  0  0  0  0
  -14.8544  -25.9212   28.4158 H   0  0  0  0  0  0  0  0  0  0  0  0
  -14.2681  -27.5845   28.4612 H   0  0  0  0  0  0  0  0  0  0  0  0
  -13.6814  -27.3077   26.2533 H   0  0  0  0  0  0  0  0  0  0  0  0
  -10.9092  -21.9224   26.9427 H   0  0  0  0  0  0  0  0  0  0  0  0
  -12.1911  -22.7307   27.7586 H   0  0  0  0  0  0  0  0  0  0  0  0
  -12.5706  -23.2720   25.3471 H   0  0  0  0  0  0  0  0  0  0  0  0
  -10.9437  -23.8150   25.1872 H   0  0  0  0  0  0  0  0  0  0  0  0
  -13.2663  -24.9165   26.5379 H   0  0  0  0  0  0  0  0  0  0  0  0
  -12.5035  -26.3222   24.8023 H   0  0  0  0  0  0  0  0  0  0  0  0
  -11.5320  -27.0645   26.0998 H   0  0  0  0  0  0  0  0  0  0  0  0
  -10.8197  -25.8960   25.0415 H   0  0  0  0  0  0  0  0  0  0  0  0
  -10.8842  -25.1647   29.6722 H   0  0  0  0  0  0  0  0  0  0  0  0
  -12.2549  -25.2671   31.7636 H   0  0  0  0  0  0  0  0  0  0  0  0
   -9.4138  -24.1792   31.6255 H   0  0  0  0  0  0  0  0  0  0  0  0
   -8.3186  -25.5271   31.7489 H   0  0  0  0  0  0  0  0  0  0  0  0
   -8.9963  -25.1613   30.1840 H   0  0  0  0  0  0  0  0  0  0  0  0
  -10.1763  -27.4212   29.9381 H   0  0  0  0  0  0  0  0  0  0  0  0
  -10.7533  -28.2217   31.4109 H   0  0  0  0  0  0  0  0  0  0  0  0
   -9.0427  -27.7389   31.2103 H   0  0  0  0  0  0  0  0  0  0  0  0
  -10.9160  -26.7997   33.6139 H   0  0  0  0  0  0  0  0  0  0  0  0
   -9.4836  -25.7858   33.5820 H   0  0  0  0  0  0  0  0  0  0  0  0
  -10.9426  -24.0501   32.9453 H   0  0  0  0  0  0  0  0  0  0  0  0
  1  2  1  0
  2  3  2  0
  2  4  1  0
  4  5  1  0
  5  6  1  0
  6  7  1  0
  7  8  1  0
  6  9  1  0
  9 10  1  0
 10 11  1  0
 11 12  1  0
 12 13  1  0
 13 14  1  0
  9 15  1  0
 15 16  1  0
 16 17  1  0
 17 18  1  0
 17 19  1  0
 17 20  1  0
 20 21  1  0
 15  4  1  0
 13  9  1  0
  1 22  1  0
  1 23  1  0
  1 24  1  0
  5 25  1  0
  5 26  1  0
  6 27  1  0
  7 28  1  0
  7 29  1  0
  8 30  1  0
 11 31  1  0
 11 32  1  0
 12 33  1  0
 12 34  1  0
 13 35  1  0
 14 36  1  0
 14 37  1  0
 14 38  1  0
 15 39  1  0
 16 40  1  0
 18 41  1  0
 18 42  1  0
 18 43  1  0
 19 44  1  0
 19 45  1  0
 19 46  1  0
 20 47  1  0
 20 48  1  0
 21 49  1  0
M  END
>  <Energy>  (700) 
733.61810214070852

>  <compound_id>  (700) 
972

>  <target_id>  (700) 
1

>  <reference_id>  (700) 
38

>  <inspiration_ids>  (700) 
[75, 38]

>  <energy_score>  (700) 
623.6604758815338

>  <distance_score>  (700) 
2.459335170943532

>  <path>  (700) 
/opt/xchem-fragalysis-2/maxwin/BulkDock/SCRATCH/505733/C972-P38/C972-P38.minimised.mol

>  <scratch_subdir>  (700) 
/opt/xchem-fragalysis-2/maxwin/BulkDock/SCRATCH/505733/C972-P38

>  <fragmenstein_runtime>  (700) 
15.96324872970581

>  <fragmenstein_outcome>  (700) 
too moved

>  <fragmenstein_mode>  (700) 
expansion

>  <fragmenstein_error>  (700) 


$$$$
C973-P75
     RDKit          3D

 31 31  0  0  0  0  0  0  0  0999 V2000
  -11.5857  -22.7542   28.6139 C   0  0  0  0  0  0  0  0  0  0  0  0
  -11.4215  -24.1280   28.0858 C   0  0  0  0  0  0  0  0  0  0  0  0
  -12.0305  -24.4769   26.8404 C   0  0  0  0  0  0  0  0  0  0  0  0
  -11.8056  -25.7746   26.4755 C   0  0  0  0  0  0  0  0  0  0  0  0
  -12.2405  -26.4097   25.3991 O   0  0  0  0  0  0  0  0  0  0  0  0
  -10.8309  -26.5801   27.6012 S   0  0  0  0  0  0  0  0  0  0  0  0
  -10.7553  -25.2155   28.6424 C   0  0  0  0  0  0  0  0  0  0  0  0
  -10.0177  -25.3846   29.9503 C   0  0  0  0  0  0  0  0  0  0  0  0
  -10.8956  -25.2354   31.0884 N   0  0  0  0  0  0  0  0  0  0  0  0
  -10.7415  -24.3352   32.2130 C   0  0  0  0  0  0  0  0  0  0  0  0
   -9.3054  -24.3945   32.6708 C   0  0  0  0  0  0  0  0  0  0  0  0
  -11.6200  -24.8979   33.3636 C   0  0  0  0  0  0  0  0  0  0  0  0
  -11.3120  -22.9162   31.8772 C   0  0  0  0  0  0  0  0  0  0  0  0
  -11.9527  -22.1939   32.9276 O   0  0  0  0  0  0  0  0  0  0  0  0
  -10.8285  -22.4723   29.3258 H   0  0  0  0  0  0  0  0  0  0  0  0
  -11.4965  -22.0335   27.7993 H   0  0  0  0  0  0  0  0  0  0  0  0
  -12.5701  -22.6434   29.0683 H   0  0  0  0  0  0  0  0  0  0  0  0
  -12.6030  -23.7884   26.2326 H   0  0  0  0  0  0  0  0  0  0  0  0
  -12.9649  -25.8891   25.0190 H   0  0  0  0  0  0  0  0  0  0  0  0
   -9.6004  -26.3955   30.0161 H   0  0  0  0  0  0  0  0  0  0  0  0
   -9.1623  -24.7263   29.9403 H   0  0  0  0  0  0  0  0  0  0  0  0
  -11.8565  -25.1408   30.7461 H   0  0  0  0  0  0  0  0  0  0  0  0
   -8.5904  -24.7171   31.9134 H   0  0  0  0  0  0  0  0  0  0  0  0
   -8.9614  -23.4207   33.0082 H   0  0  0  0  0  0  0  0  0  0  0  0
   -9.1965  -25.1171   33.4861 H   0  0  0  0  0  0  0  0  0  0  0  0
  -11.2858  -25.8869   33.6986 H   0  0  0  0  0  0  0  0  0  0  0  0
  -12.6802  -24.9443   33.0918 H   0  0  0  0  0  0  0  0  0  0  0  0
  -11.6070  -24.2653   34.2451 H   0  0  0  0  0  0  0  0  0  0  0  0
  -10.5472  -22.2520   31.4859 H   0  0  0  0  0  0  0  0  0  0  0  0
  -12.0959  -23.0080   31.1269 H   0  0  0  0  0  0  0  0  0  0  0  0
  -12.6830  -22.7430   33.2639 H   0  0  0  0  0  0  0  0  0  0  0  0
  1  2  1  0
  2  3  1  0
  3  4  2  0
  4  5  1  0
  4  6  1  0
  6  7  1  0
  7  8  1  0
  8  9  1  0
  9 10  1  0
 10 11  1  0
 10 12  1  0
 10 13  1  0
 13 14  1  0
  7  2  2  0
  1 15  1  0
  1 16  1  0
  1 17  1  0
  3 18  1  0
  5 19  1  0
  8 20  1  0
  8 21  1  0
  9 22  1  0
 11 23  1  0
 11 24  1  0
 11 25  1  0
 12 26  1  0
 12 27  1  0
 12 28  1  0
 13 29  1  0
 13 30  1  0
 14 31  1  0
M  END
>  <Energy>  (701) 
49.775997782230696

>  <compound_id>  (701) 
973

>  <target_id>  (701) 
1

>  <reference_id>  (701) 
75

>  <inspiration_ids>  (701) 
[75, 39]

>  <energy_score>  (701) 
-10.029558991896224

>  <distance_score>  (701) 
1.664531164411059

>  <path>  (701) 
/opt/xchem-fragalysis-2/maxwin/BulkDock/SCRATCH/505733/C973-P75/C973-P75.minimised.mol

>  <scratch_subdir>  (701) 
/opt/xchem-fragalysis-2/maxwin/BulkDock/SCRATCH/505733/C973-P75

>  <fragmenstein_runtime>  (701) 
3.5718560218811035

>  <fragmenstein_outcome>  (701) 
too moved

>  <fragmenstein_mode>  (701) 
expansion

>  <fragmenstein_error>  (701) 


$$$$
C973-P39
     RDKit          3D

 31 31  0  0  0  0  0  0  0  0999 V2000
  -12.3881  -23.1820   29.9048 C   0  0  0  0  0  0  0  0  0  0  0  0
  -12.1926  -23.8813   28.6019 C   0  0  0  0  0  0  0  0  0  0  0  0
  -11.9641  -23.1348   27.4225 C   0  0  0  0  0  0  0  0  0  0  0  0
  -12.1080  -23.8832   26.2864 C   0  0  0  0  0  0  0  0  0  0  0  0
  -12.3036  -23.4416   25.0571 O   0  0  0  0  0  0  0  0  0  0  0  0
  -12.0243  -25.5294   26.6158 S   0  0  0  0  0  0  0  0  0  0  0  0
  -12.0798  -25.2381   28.3095 C   0  0  0  0  0  0  0  0  0  0  0  0
  -11.9539  -26.4573   29.1586 C   0  0  0  0  0  0  0  0  0  0  0  0
  -11.7944  -26.1747   30.5692 N   0  0  0  0  0  0  0  0  0  0  0  0
  -10.4399  -25.8289   30.9767 C   0  0  0  0  0  0  0  0  0  0  0  0
   -9.5545  -25.2584   29.8707 C   0  0  0  0  0  0  0  0  0  0  0  0
   -9.8358  -27.1764   31.2138 C   0  0  0  0  0  0  0  0  0  0  0  0
  -10.4256  -25.0250   32.2970 C   0  0  0  0  0  0  0  0  0  0  0  0
   -9.1182  -24.6341   32.6762 O   0  0  0  0  0  0  0  0  0  0  0  0
  -11.4754  -23.1698   30.4913 H   0  0  0  0  0  0  0  0  0  0  0  0
  -12.6377  -22.1288   29.7498 H   0  0  0  0  0  0  0  0  0  0  0  0
  -13.2021  -23.6215   30.4825 H   0  0  0  0  0  0  0  0  0  0  0  0
  -11.8467  -22.0612   27.4067 H   0  0  0  0  0  0  0  0  0  0  0  0
  -12.6230  -22.5171   25.1595 H   0  0  0  0  0  0  0  0  0  0  0  0
  -12.8398  -27.0766   29.0084 H   0  0  0  0  0  0  0  0  0  0  0  0
  -11.1563  -27.1021   28.7808 H   0  0  0  0  0  0  0  0  0  0  0  0
  -12.5040  -25.5258   30.8996 H   0  0  0  0  0  0  0  0  0  0  0  0
   -8.5749  -25.0982   30.2853 H   0  0  0  0  0  0  0  0  0  0  0  0
   -9.9190  -24.3458   29.4320 H   0  0  0  0  0  0  0  0  0  0  0  0
   -9.3912  -25.9334   29.0217 H   0  0  0  0  0  0  0  0  0  0  0  0
   -9.6945  -27.6427   30.2601 H   0  0  0  0  0  0  0  0  0  0  0  0
  -10.4672  -27.8316   31.8158 H   0  0  0  0  0  0  0  0  0  0  0  0
   -8.8271  -27.0787   31.5976 H   0  0  0  0  0  0  0  0  0  0  0  0
  -11.0251  -24.1164   32.2333 H   0  0  0  0  0  0  0  0  0  0  0  0
  -10.8303  -25.6032   33.1303 H   0  0  0  0  0  0  0  0  0  0  0  0
   -8.6059  -25.4581   32.7865 H   0  0  0  0  0  0  0  0  0  0  0  0
  1  2  1  0
  2  3  1  0
  3  4  2  0
  4  5  1  0
  4  6  1  0
  6  7  1  0
  7  8  1  0
  8  9  1  0
  9 10  1  0
 10 11  1  0
 10 12  1  0
 10 13  1  0
 13 14  1  0
  7  2  2  0
  1 15  1  0
  1 16  1  0
  1 17  1  0
  3 18  1  0
  5 19  1  0
  8 20  1  0
  8 21  1  0
  9 22  1  0
 11 23  1  0
 11 24  1  0
 11 25  1  0
 12 26  1  0
 12 27  1  0
 12 28  1  0
 13 29  1  0
 13 30  1  0
 14 31  1  0
M  END
>  <Energy>  (702) 
53.578064340755496

>  <compound_id>  (702) 
973

>  <target_id>  (702) 
1

>  <reference_id>  (702) 
39

>  <inspiration_ids>  (702) 
[75, 39]

>  <energy_score>  (702) 
-6.2274924333730155

>  <distance_score>  (702) 
1.3361050329527624

>  <path>  (702) 
/opt/xchem-fragalysis-2/maxwin/BulkDock/SCRATCH/505733/C973-P39/C973-P39.minimised.mol

>  <scratch_subdir>  (702) 
/opt/xchem-fragalysis-2/maxwin/BulkDock/SCRATCH/505733/C973-P39

>  <fragmenstein_runtime>  (702) 
1.6441287994384766

>  <fragmenstein_outcome>  (702) 
too moved

>  <fragmenstein_mode>  (702) 
expansion

>  <fragmenstein_error>  (702) 


$$$$
C974-P75
     RDKit          3D

 38 38  0  0  0  0  0  0  0  0999 V2000
  -11.8364  -22.5821   29.1774 C   0  0  0  0  0  0  0  0  0  0  0  0
  -12.2250  -23.6525   28.1789 C   0  0  0  0  0  0  0  0  0  0  0  0
  -11.7779  -23.2810   26.7756 C   0  0  0  0  0  0  0  0  0  0  0  0
  -10.8765  -24.3722   26.2677 C   0  0  0  0  0  0  0  0  0  0  0  0
  -11.5506  -25.5432   26.8834 C   0  0  0  0  0  0  0  0  0  0  0  0
  -12.8267  -25.7666   26.3012 O   0  0  0  0  0  0  0  0  0  0  0  0
  -10.8260  -26.6997   26.7107 O   0  0  0  0  0  0  0  0  0  0  0  0
  -11.6885  -25.0752   28.3263 C   0  0  0  0  0  0  0  0  0  0  0  0
  -10.4988  -25.2821   29.2772 C   0  0  0  0  0  0  0  0  0  0  0  0
  -10.9186  -25.1775   30.6734 N   0  0  0  0  0  0  0  0  0  0  0  0
  -10.0514  -24.9414   31.8040 C   0  0  0  0  0  0  0  0  0  0  0  0
   -8.6899  -25.4397   31.3963 C   0  0  0  0  0  0  0  0  0  0  0  0
  -10.2387  -23.4999   32.2360 C   0  0  0  0  0  0  0  0  0  0  0  0
  -10.4529  -25.7202   33.0823 C   0  0  0  0  0  0  0  0  0  0  0  0
   -9.5727  -25.5860   34.1949 O   0  0  0  0  0  0  0  0  0  0  0  0
  -12.1943  -22.8138   30.1805 H   0  0  0  0  0  0  0  0  0  0  0  0
  -12.2632  -21.6136   28.9212 H   0  0  0  0  0  0  0  0  0  0  0  0
  -10.7654  -22.4166   29.1683 H   0  0  0  0  0  0  0  0  0  0  0  0
  -13.3164  -23.7016   28.1841 H   0  0  0  0  0  0  0  0  0  0  0  0
  -11.3397  -22.2911   26.7780 H   0  0  0  0  0  0  0  0  0  0  0  0
  -12.6325  -23.3083   26.0943 H   0  0  0  0  0  0  0  0  0  0  0  0
   -9.8606  -24.2805   26.6533 H   0  0  0  0  0  0  0  0  0  0  0  0
  -10.8447  -24.4061   25.1772 H   0  0  0  0  0  0  0  0  0  0  0  0
  -12.6571  -25.8941   25.3532 H   0  0  0  0  0  0  0  0  0  0  0  0
  -11.1783  -27.3271   27.3646 H   0  0  0  0  0  0  0  0  0  0  0  0
  -12.4903  -25.6781   28.6575 H   0  0  0  0  0  0  0  0  0  0  0  0
   -9.7412  -24.5433   29.0102 H   0  0  0  0  0  0  0  0  0  0  0  0
  -10.0723  -26.2784   29.1209 H   0  0  0  0  0  0  0  0  0  0  0  0
  -11.8837  -24.8537   30.8026 H   0  0  0  0  0  0  0  0  0  0  0  0
   -7.9016  -25.1201   32.0624 H   0  0  0  0  0  0  0  0  0  0  0  0
   -8.4166  -25.1362   30.3974 H   0  0  0  0  0  0  0  0  0  0  0  0
   -8.6948  -26.5323   31.3309 H   0  0  0  0  0  0  0  0  0  0  0  0
   -9.3594  -23.1941   32.7957 H   0  0  0  0  0  0  0  0  0  0  0  0
  -10.4241  -22.7804   31.4474 H   0  0  0  0  0  0  0  0  0  0  0  0
  -11.1282  -23.3782   32.8680 H   0  0  0  0  0  0  0  0  0  0  0  0
  -11.4517  -25.4604   33.4454 H   0  0  0  0  0  0  0  0  0  0  0  0
  -10.4158  -26.7583   32.8193 H   0  0  0  0  0  0  0  0  0  0  0  0
   -8.7258  -25.9596   33.8619 H   0  0  0  0  0  0  0  0  0  0  0  0
  1  2  1  0
  2  3  1  0
  3  4  1  0
  4  5  1  0
  5  6  1  0
  5  7  1  0
  5  8  1  0
  8  9  1  0
  9 10  1  0
 10 11  1  0
 11 12  1  0
 11 13  1  0
 11 14  1  0
 14 15  1  0
  8  2  1  0
  1 16  1  0
  1 17  1  0
  1 18  1  0
  2 19  1  0
  3 20  1  0
  3 21  1  0
  4 22  1  0
  4 23  1  0
  6 24  1  0
  7 25  1  0
  8 26  1  0
  9 27  1  0
  9 28  1  0
 10 29  1  0
 12 30  1  0
 12 31  1  0
 12 32  1  0
 13 33  1  0
 13 34  1  0
 13 35  1  0
 14 36  1  0
 14 37  1  0
 15 38  1  0
M  END
>  <Energy>  (703) 
49.594839516075737

>  <compound_id>  (703) 
974

>  <target_id>  (703) 
1

>  <reference_id>  (703) 
75

>  <inspiration_ids>  (703) 
[75, 42]

>  <energy_score>  (703) 
-0.9137755164840655

>  <distance_score>  (703) 
2.4693376979864783

>  <path>  (703) 
/opt/xchem-fragalysis-2/maxwin/BulkDock/SCRATCH/505733/C974-P75/C974-P75.minimised.mol

>  <scratch_subdir>  (703) 
/opt/xchem-fragalysis-2/maxwin/BulkDock/SCRATCH/505733/C974-P75

>  <fragmenstein_runtime>  (703) 
3.4090089797973633

>  <fragmenstein_outcome>  (703) 
too moved

>  <fragmenstein_mode>  (703) 
expansion

>  <fragmenstein_error>  (703) 


$$$$
C974-P42
     RDKit          3D

 38 38  0  0  0  0  0  0  0  0999 V2000
  -11.5454  -21.9558   29.2439 C   0  0  0  0  0  0  0  0  0  0  0  0
  -11.3941  -22.9415   28.1024 C   0  0  0  0  0  0  0  0  0  0  0  0
  -12.0158  -22.4017   26.8240 C   0  0  0  0  0  0  0  0  0  0  0  0
  -11.9294  -23.6018   25.9053 C   0  0  0  0  0  0  0  0  0  0  0  0
  -12.5338  -24.6644   26.7902 C   0  0  0  0  0  0  0  0  0  0  0  0
  -12.2483  -25.9494   26.3392 O   0  0  0  0  0  0  0  0  0  0  0  0
  -13.9361  -24.5345   26.6885 O   0  0  0  0  0  0  0  0  0  0  0  0
  -12.0884  -24.3100   28.2409 C   0  0  0  0  0  0  0  0  0  0  0  0
  -11.2165  -25.3405   28.9680 C   0  0  0  0  0  0  0  0  0  0  0  0
  -11.0100  -24.9356   30.3616 N   0  0  0  0  0  0  0  0  0  0  0  0
  -10.2565  -25.8284   31.2414 C   0  0  0  0  0  0  0  0  0  0  0  0
  -10.3082  -27.2726   30.7424 C   0  0  0  0  0  0  0  0  0  0  0  0
   -8.8436  -25.3640   31.2009 C   0  0  0  0  0  0  0  0  0  0  0  0
  -10.6197  -25.5910   32.7250 C   0  0  0  0  0  0  0  0  0  0  0  0
   -9.7873  -26.3078   33.6380 O   0  0  0  0  0  0  0  0  0  0  0  0
  -10.6319  -21.3814   29.3677 H   0  0  0  0  0  0  0  0  0  0  0  0
  -11.7694  -22.4188   30.2046 H   0  0  0  0  0  0  0  0  0  0  0  0
  -12.2849  -21.1913   29.0213 H   0  0  0  0  0  0  0  0  0  0  0  0
  -10.3238  -23.1180   27.9441 H   0  0  0  0  0  0  0  0  0  0  0  0
  -11.5296  -21.5194   26.4302 H   0  0  0  0  0  0  0  0  0  0  0  0
  -13.0606  -22.1146   26.9783 H   0  0  0  0  0  0  0  0  0  0  0  0
  -12.4886  -23.4164   24.9840 H   0  0  0  0  0  0  0  0  0  0  0  0
  -10.9051  -23.8737   25.6330 H   0  0  0  0  0  0  0  0  0  0  0  0
  -12.8602  -26.5295   26.8234 H   0  0  0  0  0  0  0  0  0  0  0  0
  -14.1427  -24.4945   25.7403 H   0  0  0  0  0  0  0  0  0  0  0  0
  -13.0006  -24.1793   28.8151 H   0  0  0  0  0  0  0  0  0  0  0  0
  -10.2595  -25.4506   28.4455 H   0  0  0  0  0  0  0  0  0  0  0  0
  -11.7563  -26.2921   28.9238 H   0  0  0  0  0  0  0  0  0  0  0  0
  -11.8851  -24.6689   30.8188 H   0  0  0  0  0  0  0  0  0  0  0  0
  -10.0677  -27.3487   29.6773 H   0  0  0  0  0  0  0  0  0  0  0  0
   -9.5299  -27.8790   31.1758 H   0  0  0  0  0  0  0  0  0  0  0  0
  -11.2793  -27.7442   30.8889 H   0  0  0  0  0  0  0  0  0  0  0  0
   -8.1771  -26.0682   31.6963 H   0  0  0  0  0  0  0  0  0  0  0  0
   -8.5579  -25.2157   30.1642 H   0  0  0  0  0  0  0  0  0  0  0  0
   -8.7502  -24.4287   31.7537 H   0  0  0  0  0  0  0  0  0  0  0  0
  -10.5665  -24.5252   32.9778 H   0  0  0  0  0  0  0  0  0  0  0  0
  -11.6311  -25.8653   32.9157 H   0  0  0  0  0  0  0  0  0  0  0  0
   -9.0920  -25.6837   33.9115 H   0  0  0  0  0  0  0  0  0  0  0  0
  1  2  1  0
  2  3  1  0
  3  4  1  0
  4  5  1  0
  5  6  1  0
  5  7  1  0
  5  8  1  0
  8  9  1  0
  9 10  1  0
 10 11  1  0
 11 12  1  0
 11 13  1  0
 11 14  1  0
 14 15  1  0
  8  2  1  0
  1 16  1  0
  1 17  1  0
  1 18  1  0
  2 19  1  0
  3 20  1  0
  3 21  1  0
  4 22  1  0
  4 23  1  0
  6 24  1  0
  7 25  1  0
  8 26  1  0
  9 27  1  0
  9 28  1  0
 10 29  1  0
 12 30  1  0
 12 31  1  0
 12 32  1  0
 13 33  1  0
 13 34  1  0
 13 35  1  0
 14 36  1  0
 14 37  1  0
 15 38  1  0
M  END
>  <Energy>  (704) 
37.720550444420624

>  <compound_id>  (704) 
974

>  <target_id>  (704) 
1

>  <reference_id>  (704) 
42

>  <inspiration_ids>  (704) 
[75, 42]

>  <energy_score>  (704) 
-12.78806458813851

>  <distance_score>  (704) 
1.996834013260655

>  <path>  (704) 
/opt/xchem-fragalysis-2/maxwin/BulkDock/SCRATCH/505733/C974-P42/C974-P42.minimised.mol

>  <scratch_subdir>  (704) 
/opt/xchem-fragalysis-2/maxwin/BulkDock/SCRATCH/505733/C974-P42

>  <fragmenstein_runtime>  (704) 
2.350903034210205

>  <fragmenstein_outcome>  (704) 
too moved

>  <fragmenstein_mode>  (704) 
expansion

>  <fragmenstein_error>  (704) 


$$$$
C975-P75
     RDKit          3D

 50 52  0  0  0  0  0  0  0  0999 V2000
  -11.8520  -23.5814   28.9996 C   0  0  0  0  0  0  0  0  0  0  0  0
  -11.8498  -24.1043   27.6318 C   0  0  0  0  0  0  0  0  0  0  0  0
  -11.7087  -23.1730   26.6040 C   0  0  0  0  0  0  0  0  0  0  0  0
  -12.1428  -23.6305   25.3910 C   0  0  0  0  0  0  0  0  0  0  0  0
  -12.7417  -25.1797   25.6200 S   0  0  0  0  0  0  0  0  0  0  0  0
  -11.7878  -25.3694   27.0524 C   0  0  0  0  0  0  0  0  0  0  0  0
  -11.2647  -26.7287   27.5078 C   0  0  0  0  0  0  0  0  0  0  0  0
  -10.8328  -26.5902   28.9007 N   0  0  0  0  0  0  0  0  0  0  0  0
   -9.7541  -26.1166   29.7100 C   0  0  0  0  0  0  0  0  0  0  0  0
   -9.2543  -27.4151   30.3535 C   0  0  0  0  0  0  0  0  0  0  0  0
   -8.8996  -25.3558   28.7454 C   0  0  0  0  0  0  0  0  0  0  0  0
   -9.9909  -25.2513   31.0127 C   0  0  0  0  0  0  0  0  0  0  0  0
   -8.8066  -25.0220   31.7837 O   0  0  0  0  0  0  0  0  0  0  0  0
  -10.5751  -27.5761   26.4083 C   0  0  0  0  0  0  0  0  0  0  0  0
   -9.3138  -28.1227   26.4532 C   0  0  0  0  0  0  0  0  0  0  0  0
   -8.9010  -29.1701   25.4020 C   0  0  0  0  0  0  0  0  0  0  0  0
   -9.6708  -29.7173   24.4241 C   0  0  0  0  0  0  0  0  0  0  0  0
  -10.7223  -28.9134   24.2147 C   0  0  0  0  0  0  0  0  0  0  0  0
  -11.2054  -27.9601   25.1726 C   0  0  0  0  0  0  0  0  0  0  0  0
  -12.3343  -27.6024   27.8981 N   0  0  0  0  0  0  0  0  0  0  0  0
  -11.9156  -28.9041   28.3246 C   0  0  0  0  0  0  0  0  0  0  0  0
  -12.5861  -29.5862   27.1916 C   0  0  0  0  0  0  0  0  0  0  0  0
  -13.4346  -30.7120   27.5631 O   0  0  0  0  0  0  0  0  0  0  0  0
  -13.2882  -28.1527   27.0265 C   0  0  0  0  0  0  0  0  0  0  0  0
  -11.8476  -24.3730   29.7143 H   0  0  0  0  0  0  0  0  0  0  0  0
  -12.7621  -23.0015   29.1764 H   0  0  0  0  0  0  0  0  0  0  0  0
  -11.0157  -22.9033   29.1724 H   0  0  0  0  0  0  0  0  0  0  0  0
  -11.4598  -22.1410   26.8056 H   0  0  0  0  0  0  0  0  0  0  0  0
  -12.2715  -23.0542   24.4858 H   0  0  0  0  0  0  0  0  0  0  0  0
  -11.6937  -26.5403   29.4144 H   0  0  0  0  0  0  0  0  0  0  0  0
   -9.0399  -28.1640   29.6059 H   0  0  0  0  0  0  0  0  0  0  0  0
   -8.3755  -27.2995   30.9758 H   0  0  0  0  0  0  0  0  0  0  0  0
   -9.9389  -27.8164   31.0853 H   0  0  0  0  0  0  0  0  0  0  0  0
   -7.9597  -25.1950   29.2174 H   0  0  0  0  0  0  0  0  0  0  0  0
   -9.3093  -24.3854   28.4658 H   0  0  0  0  0  0  0  0  0  0  0  0
   -8.6904  -25.8836   27.8241 H   0  0  0  0  0  0  0  0  0  0  0  0
  -10.6975  -25.7119   31.6947 H   0  0  0  0  0  0  0  0  0  0  0  0
  -10.3623  -24.2572   30.8175 H   0  0  0  0  0  0  0  0  0  0  0  0
   -8.5631  -25.8488   32.2567 H   0  0  0  0  0  0  0  0  0  0  0  0
   -8.5807  -27.7939   27.1846 H   0  0  0  0  0  0  0  0  0  0  0  0
   -7.8561  -29.3996   25.2216 H   0  0  0  0  0  0  0  0  0  0  0  0
   -9.2924  -30.4191   23.6936 H   0  0  0  0  0  0  0  0  0  0  0  0
  -11.1151  -28.9324   23.2065 H   0  0  0  0  0  0  0  0  0  0  0  0
  -12.1180  -27.4928   24.8277 H   0  0  0  0  0  0  0  0  0  0  0  0
  -10.8706  -28.8496   28.4563 H   0  0  0  0  0  0  0  0  0  0  0  0
  -12.3661  -29.3587   29.1985 H   0  0  0  0  0  0  0  0  0  0  0  0
  -11.9145  -29.9212   26.4053 H   0  0  0  0  0  0  0  0  0  0  0  0
  -12.8186  -31.4627   27.6166 H   0  0  0  0  0  0  0  0  0  0  0  0
  -14.3039  -28.1520   27.4518 H   0  0  0  0  0  0  0  0  0  0  0  0
  -13.4232  -27.6248   26.0950 H   0  0  0  0  0  0  0  0  0  0  0  0
  1  2  1  0
  2  3  1  0
  3  4  2  0
  4  5  1  0
  5  6  1  0
  6  7  1  0
  7  8  1  0
  8  9  1  0
  9 10  1  0
  9 11  1  0
  9 12  1  0
 12 13  1  0
  7 14  1  0
 14 15  2  0
 15 16  1  0
 16 17  2  0
 17 18  1  0
 18 19  2  0
  7 20  1  0
 20 21  1  0
 21 22  1  0
 22 23  1  0
 22 24  1  0
  6  2  2  0
 19 14  1  0
 24 20  1  0
  1 25  1  0
  1 26  1  0
  1 27  1  0
  3 28  1  0
  4 29  1  0
  8 30  1  0
 10 31  1  0
 10 32  1  0
 10 33  1  0
 11 34  1  0
 11 35  1  0
 11 36  1  0
 12 37  1  0
 12 38  1  0
 13 39  1  0
 15 40  1  0
 16 41  1  0
 17 42  1  0
 18 43  1  0
 19 44  1  0
 21 45  1  0
 21 46  1  0
 22 47  1  0
 23 48  1  0
 24 49  1  0
 24 50  1  0
M  END
>  <Energy>  (705) 
220.65165688433012

>  <compound_id>  (705) 
975

>  <target_id>  (705) 
1

>  <reference_id>  (705) 
75

>  <inspiration_ids>  (705) 
[75, 45]

>  <energy_score>  (705) 
30.173858367634637

>  <distance_score>  (705) 
3.3140409331334655

>  <path>  (705) 
/opt/xchem-fragalysis-2/maxwin/BulkDock/SCRATCH/505733/C975-P75/C975-P75.minimised.mol

>  <scratch_subdir>  (705) 
/opt/xchem-fragalysis-2/maxwin/BulkDock/SCRATCH/505733/C975-P75

>  <fragmenstein_runtime>  (705) 
13.445539712905884

>  <fragmenstein_outcome>  (705) 
too moved

>  <fragmenstein_mode>  (705) 
expansion

>  <fragmenstein_error>  (705) 


$$$$
C975-P45
     RDKit          3D

 50 52  0  0  0  0  0  0  0  0999 V2000
  -11.8836  -23.0642   29.5838 C   0  0  0  0  0  0  0  0  0  0  0  0
  -11.5757  -23.8474   28.3748 C   0  0  0  0  0  0  0  0  0  0  0  0
  -11.7238  -23.1558   27.1395 C   0  0  0  0  0  0  0  0  0  0  0  0
  -11.7297  -23.9485   26.0332 C   0  0  0  0  0  0  0  0  0  0  0  0
  -11.2392  -25.4895   26.4311 S   0  0  0  0  0  0  0  0  0  0  0  0
  -11.1065  -25.1437   28.1730 C   0  0  0  0  0  0  0  0  0  0  0  0
  -10.4291  -26.2758   29.0253 C   0  0  0  0  0  0  0  0  0  0  0  0
  -10.4325  -26.2009   30.5360 N   0  0  0  0  0  0  0  0  0  0  0  0
   -9.8775  -25.5003   31.7444 C   0  0  0  0  0  0  0  0  0  0  0  0
  -10.2414  -26.2678   33.0664 C   0  0  0  0  0  0  0  0  0  0  0  0
   -8.4021  -25.5996   31.7392 C   0  0  0  0  0  0  0  0  0  0  0  0
  -10.3710  -24.1074   32.1528 C   0  0  0  0  0  0  0  0  0  0  0  0
   -9.5800  -23.5090   33.1555 O   0  0  0  0  0  0  0  0  0  0  0  0
   -9.0046  -26.4918   28.3215 C   0  0  0  0  0  0  0  0  0  0  0  0
   -8.1595  -25.3904   28.0324 C   0  0  0  0  0  0  0  0  0  0  0  0
   -6.9746  -25.5302   27.2801 C   0  0  0  0  0  0  0  0  0  0  0  0
   -6.5843  -26.7768   26.8034 C   0  0  0  0  0  0  0  0  0  0  0  0
   -7.4250  -27.8568   26.9785 C   0  0  0  0  0  0  0  0  0  0  0  0
   -8.6009  -27.7066   27.7263 C   0  0  0  0  0  0  0  0  0  0  0  0
  -11.2804  -27.5549   29.0062 N   0  0  0  0  0  0  0  0  0  0  0  0
  -11.5353  -28.3256   27.7803 C   0  0  0  0  0  0  0  0  0  0  0  0
  -13.0398  -28.0510   27.8649 C   0  0  0  0  0  0  0  0  0  0  0  0
  -13.9099  -29.2054   27.9063 O   0  0  0  0  0  0  0  0  0  0  0  0
  -12.7365  -27.3438   29.1921 C   0  0  0  0  0  0  0  0  0  0  0  0
  -12.1956  -23.7096   30.3899 H   0  0  0  0  0  0  0  0  0  0  0  0
  -12.7252  -22.3907   29.4096 H   0  0  0  0  0  0  0  0  0  0  0  0
  -11.0623  -22.3968   29.8393 H   0  0  0  0  0  0  0  0  0  0  0  0
  -11.8790  -22.0912   27.0855 H   0  0  0  0  0  0  0  0  0  0  0  0
  -11.9196  -23.6487   25.0116 H   0  0  0  0  0  0  0  0  0  0  0  0
  -10.2605  -27.1926   30.7302 H   0  0  0  0  0  0  0  0  0  0  0  0
   -9.4657  -26.1437   33.8276 H   0  0  0  0  0  0  0  0  0  0  0  0
  -11.1019  -25.8600   33.6021 H   0  0  0  0  0  0  0  0  0  0  0  0
  -10.4352  -27.3254   32.8733 H   0  0  0  0  0  0  0  0  0  0  0  0
   -7.8699  -25.0618   32.5221 H   0  0  0  0  0  0  0  0  0  0  0  0
   -8.0763  -25.2508   30.7723 H   0  0  0  0  0  0  0  0  0  0  0  0
   -8.1495  -26.6403   31.9228 H   0  0  0  0  0  0  0  0  0  0  0  0
  -11.3758  -24.0737   32.5596 H   0  0  0  0  0  0  0  0  0  0  0  0
  -10.3998  -23.4585   31.3149 H   0  0  0  0  0  0  0  0  0  0  0  0
   -9.1277  -24.1899   33.6717 H   0  0  0  0  0  0  0  0  0  0  0  0
   -8.4259  -24.3959   28.3861 H   0  0  0  0  0  0  0  0  0  0  0  0
   -6.3436  -24.6620   27.1033 H   0  0  0  0  0  0  0  0  0  0  0  0
   -5.6405  -26.8990   26.2809 H   0  0  0  0  0  0  0  0  0  0  0  0
   -7.1667  -28.8260   26.5561 H   0  0  0  0  0  0  0  0  0  0  0  0
   -9.1860  -28.6089   27.8171 H   0  0  0  0  0  0  0  0  0  0  0  0
  -11.0741  -28.0387   26.8364 H   0  0  0  0  0  0  0  0  0  0  0  0
  -11.3094  -29.3937   27.9069 H   0  0  0  0  0  0  0  0  0  0  0  0
  -13.3997  -27.3657   27.0911 H   0  0  0  0  0  0  0  0  0  0  0  0
  -13.5788  -29.7426   28.6484 H   0  0  0  0  0  0  0  0  0  0  0  0
  -13.1154  -26.3193   29.2388 H   0  0  0  0  0  0  0  0  0  0  0  0
  -13.1450  -27.8959   30.0455 H   0  0  0  0  0  0  0  0  0  0  0  0
  1  2  1  0
  2  3  1  0
  3  4  2  0
  4  5  1  0
  5  6  1  0
  6  7  1  0
  7  8  1  0
  8  9  1  0
  9 10  1  0
  9 11  1  0
  9 12  1  0
 12 13  1  0
  7 14  1  0
 14 15  2  0
 15 16  1  0
 16 17  2  0
 17 18  1  0
 18 19  2  0
  7 20  1  0
 20 21  1  0
 21 22  1  0
 22 23  1  0
 22 24  1  0
  6  2  2  0
 19 14  1  0
 24 20  1  0
  1 25  1  0
  1 26  1  0
  1 27  1  0
  3 28  1  0
  4 29  1  0
  8 30  1  0
 10 31  1  0
 10 32  1  0
 10 33  1  0
 11 34  1  0
 11 35  1  0
 11 36  1  0
 12 37  1  0
 12 38  1  0
 13 39  1  0
 15 40  1  0
 16 41  1  0
 17 42  1  0
 18 43  1  0
 19 44  1  0
 21 45  1  0
 21 46  1  0
 22 47  1  0
 23 48  1  0
 24 49  1  0
 24 50  1  0
M  END
>  <Energy>  (706) 
158.82668412101555

>  <compound_id>  (706) 
975

>  <target_id>  (706) 
1

>  <reference_id>  (706) 
45

>  <inspiration_ids>  (706) 
[75, 45]

>  <energy_score>  (706) 
11.280947400985667

>  <distance_score>  (706) 
1.9981737985552848

>  <path>  (706) 
/opt/xchem-fragalysis-2/maxwin/BulkDock/SCRATCH/505733/C975-P45/C975-P45.minimised.mol

>  <scratch_subdir>  (706) 
/opt/xchem-fragalysis-2/maxwin/BulkDock/SCRATCH/505733/C975-P45

>  <fragmenstein_runtime>  (706) 
7.856435298919678

>  <fragmenstein_outcome>  (706) 
too moved

>  <fragmenstein_mode>  (706) 
expansion

>  <fragmenstein_error>  (706) 


$$$$
C978-P75
     RDKit          3D

 43 44  0  0  0  0  0  0  0  0999 V2000
  -11.4989  -22.3862   28.1901 C   0  0  0  0  0  0  0  0  0  0  0  0
  -11.7184  -23.7957   27.7739 C   0  0  0  0  0  0  0  0  0  0  0  0
  -12.2823  -24.2295   26.5397 C   0  0  0  0  0  0  0  0  0  0  0  0
  -12.2080  -25.5901   26.3763 C   0  0  0  0  0  0  0  0  0  0  0  0
  -11.3583  -26.3168   27.6526 S   0  0  0  0  0  0  0  0  0  0  0  0
  -11.2942  -24.8620   28.5414 C   0  0  0  0  0  0  0  0  0  0  0  0
  -10.5292  -24.6616   29.8141 C   0  0  0  0  0  0  0  0  0  0  0  0
  -10.8254  -25.0918   31.1787 N   0  0  0  0  0  0  0  0  0  0  0  0
  -11.6561  -24.3206   31.9583 C   0  0  0  0  0  0  0  0  0  0  0  0
  -12.3085  -24.8267   33.0210 N   0  0  0  0  0  0  0  0  0  0  0  0
  -12.8848  -23.7632   33.6262 O   0  0  0  0  0  0  0  0  0  0  0  0
  -12.6656  -22.7175   32.8125 C   0  0  0  0  0  0  0  0  0  0  0  0
  -13.4707  -21.5385   33.1517 C   0  0  0  0  0  0  0  0  0  0  0  0
  -12.7341  -20.5609   34.0546 C   0  0  0  0  0  0  0  0  0  0  0  0
  -14.8442  -21.8413   33.6189 N   0  0  0  0  0  0  0  0  0  0  0  0
  -11.8699  -22.9720   31.7925 N   0  0  0  0  0  0  0  0  0  0  0  0
   -9.7454  -25.8222   31.9036 C   0  0  0  0  0  0  0  0  0  0  0  0
   -9.9485  -25.8074   33.4364 C   0  0  0  0  0  0  0  0  0  0  0  0
   -8.4727  -25.0718   31.7407 C   0  0  0  0  0  0  0  0  0  0  0  0
   -9.4487  -27.1973   31.2470 C   0  0  0  0  0  0  0  0  0  0  0  0
   -9.8699  -27.3334   29.9085 O   0  0  0  0  0  0  0  0  0  0  0  0
  -11.5180  -21.7531   27.3137 H   0  0  0  0  0  0  0  0  0  0  0  0
  -12.2307  -22.0615   28.9307 H   0  0  0  0  0  0  0  0  0  0  0  0
  -10.4977  -22.2084   28.5810 H   0  0  0  0  0  0  0  0  0  0  0  0
  -12.6866  -23.5799   25.7749 H   0  0  0  0  0  0  0  0  0  0  0  0
  -12.5520  -26.1802   25.5379 H   0  0  0  0  0  0  0  0  0  0  0  0
   -9.5110  -24.8729   29.4924 H   0  0  0  0  0  0  0  0  0  0  0  0
  -10.6019  -23.5999   29.9409 H   0  0  0  0  0  0  0  0  0  0  0  0
  -13.6778  -21.0816   32.1996 H   0  0  0  0  0  0  0  0  0  0  0  0
  -11.8878  -20.1137   33.5249 H   0  0  0  0  0  0  0  0  0  0  0  0
  -13.3874  -19.7538   34.4044 H   0  0  0  0  0  0  0  0  0  0  0  0
  -12.2874  -21.0191   34.9276 H   0  0  0  0  0  0  0  0  0  0  0  0
  -15.2985  -22.3935   32.8857 H   0  0  0  0  0  0  0  0  0  0  0  0
  -14.7704  -22.5228   34.3787 H   0  0  0  0  0  0  0  0  0  0  0  0
   -9.0458  -25.7794   34.0421 H   0  0  0  0  0  0  0  0  0  0  0  0
  -10.3484  -24.8782   33.7835 H   0  0  0  0  0  0  0  0  0  0  0  0
  -10.6066  -26.5869   33.8063 H   0  0  0  0  0  0  0  0  0  0  0  0
   -8.2229  -25.1310   30.6985 H   0  0  0  0  0  0  0  0  0  0  0  0
   -8.5851  -24.0704   32.1337 H   0  0  0  0  0  0  0  0  0  0  0  0
   -7.6192  -25.5300   32.2180 H   0  0  0  0  0  0  0  0  0  0  0  0
   -9.8203  -28.0360   31.8061 H   0  0  0  0  0  0  0  0  0  0  0  0
   -8.3894  -27.4197   31.2068 H   0  0  0  0  0  0  0  0  0  0  0  0
  -10.7877  -26.9931   29.8911 H   0  0  0  0  0  0  0  0  0  0  0  0
  1  2  1  0
  2  3  1  0
  3  4  2  0
  4  5  1  0
  5  6  1  0
  6  7  1  0
  7  8  1  0
  8  9  1  0
  9 10  2  0
 10 11  1  0
 11 12  1  0
 12 13  1  0
 13 14  1  0
 13 15  1  0
 12 16  2  0
  8 17  1  0
 17 18  1  0
 17 19  1  0
 17 20  1  0
 20 21  1  0
  6  2  2  0
 16  9  1  0
  1 22  1  0
  1 23  1  0
  1 24  1  0
  3 25  1  0
  4 26  1  0
  7 27  1  0
  7 28  1  0
 13 29  1  0
 14 30  1  0
 14 31  1  0
 14 32  1  0
 15 33  1  0
 15 34  1  0
 18 35  1  0
 18 36  1  0
 18 37  1  0
 19 38  1  0
 19 39  1  0
 19 40  1  0
 20 41  1  0
 20 42  1  0
 21 43  1  0
M  END
>  <Energy>  (707) 
83.0123894943914

>  <compound_id>  (707) 
978

>  <target_id>  (707) 
1

>  <reference_id>  (707) 
75

>  <inspiration_ids>  (707) 
[75, 49]

>  <energy_score>  (707) 
-15.784010199462074

>  <distance_score>  (707) 
1.7945475047715702

>  <path>  (707) 
/opt/xchem-fragalysis-2/maxwin/BulkDock/SCRATCH/505733/C978-P75/C978-P75.minimised.mol

>  <scratch_subdir>  (707) 
/opt/xchem-fragalysis-2/maxwin/BulkDock/SCRATCH/505733/C978-P75

>  <fragmenstein_runtime>  (707) 
3.412310838699341

>  <fragmenstein_outcome>  (707) 
too moved

>  <fragmenstein_mode>  (707) 
expansion

>  <fragmenstein_error>  (707) 


$$$$
C978-P49
     RDKit          3D

 43 44  0  0  0  0  0  0  0  0999 V2000
  -10.1386  -22.6146   28.3265 C   0  0  0  0  0  0  0  0  0  0  0  0
  -11.2640  -23.5067   27.9848 C   0  0  0  0  0  0  0  0  0  0  0  0
  -11.9943  -23.4559   26.7619 C   0  0  0  0  0  0  0  0  0  0  0  0
  -12.9380  -24.4515   26.6687 C   0  0  0  0  0  0  0  0  0  0  0  0
  -12.9282  -25.4639   28.0326 S   0  0  0  0  0  0  0  0  0  0  0  0
  -11.7187  -24.5220   28.7917 C   0  0  0  0  0  0  0  0  0  0  0  0
  -11.1674  -24.9640   30.0999 C   0  0  0  0  0  0  0  0  0  0  0  0
  -10.7396  -24.0212   31.1342 N   0  0  0  0  0  0  0  0  0  0  0  0
  -11.3289  -22.8332   31.4290 C   0  0  0  0  0  0  0  0  0  0  0  0
  -10.6347  -21.7565   31.8219 N   0  0  0  0  0  0  0  0  0  0  0  0
  -11.4879  -21.0709   32.6459 O   0  0  0  0  0  0  0  0  0  0  0  0
  -12.6761  -21.7316   32.5979 C   0  0  0  0  0  0  0  0  0  0  0  0
  -13.6766  -21.2834   33.6225 C   0  0  0  0  0  0  0  0  0  0  0  0
  -13.6744  -19.7704   33.8097 C   0  0  0  0  0  0  0  0  0  0  0  0
  -15.0826  -21.5731   33.3002 N   0  0  0  0  0  0  0  0  0  0  0  0
  -12.6462  -22.7549   31.7597 N   0  0  0  0  0  0  0  0  0  0  0  0
   -9.7461  -24.5271   32.1335 C   0  0  0  0  0  0  0  0  0  0  0  0
  -10.0818  -24.1001   33.5822 C   0  0  0  0  0  0  0  0  0  0  0  0
   -8.4105  -23.8789   31.7820 C   0  0  0  0  0  0  0  0  0  0  0  0
   -9.5930  -26.0684   32.0357 C   0  0  0  0  0  0  0  0  0  0  0  0
  -10.8163  -26.8089   32.1349 O   0  0  0  0  0  0  0  0  0  0  0  0
   -9.3775  -22.7084   27.5494 H   0  0  0  0  0  0  0  0  0  0  0  0
   -9.6236  -22.8954   29.2385 H   0  0  0  0  0  0  0  0  0  0  0  0
  -10.4701  -21.5752   28.3992 H   0  0  0  0  0  0  0  0  0  0  0  0
  -11.8399  -22.7145   25.9859 H   0  0  0  0  0  0  0  0  0  0  0  0
  -13.6351  -24.6273   25.8624 H   0  0  0  0  0  0  0  0  0  0  0  0
  -11.8406  -25.6985   30.5239 H   0  0  0  0  0  0  0  0  0  0  0  0
  -10.2868  -25.5221   29.7607 H   0  0  0  0  0  0  0  0  0  0  0  0
  -13.4330  -21.7696   34.5725 H   0  0  0  0  0  0  0  0  0  0  0  0
  -14.0357  -19.2820   32.9033 H   0  0  0  0  0  0  0  0  0  0  0  0
  -14.3587  -19.4674   34.6092 H   0  0  0  0  0  0  0  0  0  0  0  0
  -12.6812  -19.3770   34.0485 H   0  0  0  0  0  0  0  0  0  0  0  0
  -15.2597  -21.2660   32.3343 H   0  0  0  0  0  0  0  0  0  0  0  0
  -15.1351  -22.5937   33.1226 H   0  0  0  0  0  0  0  0  0  0  0  0
  -11.1073  -23.7631   33.7304 H   0  0  0  0  0  0  0  0  0  0  0  0
   -9.4513  -23.2726   33.9300 H   0  0  0  0  0  0  0  0  0  0  0  0
   -9.9238  -24.9078   34.2956 H   0  0  0  0  0  0  0  0  0  0  0  0
   -7.5854  -24.3469   32.3086 H   0  0  0  0  0  0  0  0  0  0  0  0
   -8.3867  -22.8275   32.0723 H   0  0  0  0  0  0  0  0  0  0  0  0
   -8.2298  -23.9256   30.7065 H   0  0  0  0  0  0  0  0  0  0  0  0
   -8.9506  -26.4859   32.7973 H   0  0  0  0  0  0  0  0  0  0  0  0
   -9.1106  -26.3023   31.0905 H   0  0  0  0  0  0  0  0  0  0  0  0
  -10.5661  -27.7396   32.2412 H   0  0  0  0  0  0  0  0  0  0  0  0
  1  2  1  0
  2  3  1  0
  3  4  2  0
  4  5  1  0
  5  6  1  0
  6  7  1  0
  7  8  1  0
  8  9  1  0
  9 10  2  0
 10 11  1  0
 11 12  1  0
 12 13  1  0
 13 14  1  0
 13 15  1  0
 12 16  2  0
  8 17  1  0
 17 18  1  0
 17 19  1  0
 17 20  1  0
 20 21  1  0
  6  2  2  0
 16  9  1  0
  1 22  1  0
  1 23  1  0
  1 24  1  0
  3 25  1  0
  4 26  1  0
  7 27  1  0
  7 28  1  0
 13 29  1  0
 14 30  1  0
 14 31  1  0
 14 32  1  0
 15 33  1  0
 15 34  1  0
 18 35  1  0
 18 36  1  0
 18 37  1  0
 19 38  1  0
 19 39  1  0
 19 40  1  0
 20 41  1  0
 20 42  1  0
 21 43  1  0
M  END
>  <Energy>  (708) 
53.420186285581622

>  <compound_id>  (708) 
978

>  <target_id>  (708) 
1

>  <reference_id>  (708) 
49

>  <inspiration_ids>  (708) 
[75, 49]

>  <energy_score>  (708) 
-45.376213408271184

>  <distance_score>  (708) 
1.625060132381961

>  <path>  (708) 
/opt/xchem-fragalysis-2/maxwin/BulkDock/SCRATCH/505733/C978-P49/C978-P49.minimised.mol

>  <scratch_subdir>  (708) 
/opt/xchem-fragalysis-2/maxwin/BulkDock/SCRATCH/505733/C978-P49

>  <fragmenstein_runtime>  (708) 
4.255917310714722

>  <fragmenstein_outcome>  (708) 
too moved

>  <fragmenstein_mode>  (708) 
expansion

>  <fragmenstein_error>  (708) 


$$$$
C979-P75
     RDKit          3D

 39 39  0  0  0  0  0  0  0  0999 V2000
  -11.6840  -22.3412   30.0524 C   0  0  0  0  0  0  0  0  0  0  0  0
  -11.5072  -23.4632   29.1087 C   0  0  0  0  0  0  0  0  0  0  0  0
  -12.4282  -23.5902   28.0674 C   0  0  0  0  0  0  0  0  0  0  0  0
  -12.0843  -24.4961   27.1259 C   0  0  0  0  0  0  0  0  0  0  0  0
  -12.7501  -24.8689   25.5964 S   0  0  0  0  0  0  0  0  0  0  0  0
  -12.5285  -26.6238   25.4575 C   0  0  0  0  0  0  0  0  0  0  0  0
  -14.1784  -24.6434   25.6360 O   0  0  0  0  0  0  0  0  0  0  0  0
  -11.8826  -24.0938   24.7399 O   0  0  0  0  0  0  0  0  0  0  0  0
  -10.5737  -25.1450   27.4667 S   0  0  0  0  0  0  0  0  0  0  0  0
  -10.7242  -24.6089   29.0880 C   0  0  0  0  0  0  0  0  0  0  0  0
  -10.0239  -25.3849   30.1578 C   0  0  0  0  0  0  0  0  0  0  0  0
   -9.8854  -26.8656   29.7653 C   0  0  0  0  0  0  0  0  0  0  0  0
  -10.8558  -25.4192   31.3453 N   0  0  0  0  0  0  0  0  0  0  0  0
  -10.6052  -24.8259   32.6248 C   0  0  0  0  0  0  0  0  0  0  0  0
  -11.0038  -25.7881   33.7702 C   0  0  0  0  0  0  0  0  0  0  0  0
  -11.5347  -23.6259   32.8633 C   0  0  0  0  0  0  0  0  0  0  0  0
   -9.1577  -24.5299   32.8672 C   0  0  0  0  0  0  0  0  0  0  0  0
   -8.2329  -25.2313   32.0577 O   0  0  0  0  0  0  0  0  0  0  0  0
  -10.8535  -22.1897   30.7269 H   0  0  0  0  0  0  0  0  0  0  0  0
  -11.7668  -21.4059   29.4866 H   0  0  0  0  0  0  0  0  0  0  0  0
  -12.6130  -22.4430   30.6183 H   0  0  0  0  0  0  0  0  0  0  0  0
  -13.2791  -22.9762   27.9655 H   0  0  0  0  0  0  0  0  0  0  0  0
  -11.4784  -26.8863   25.3863 H   0  0  0  0  0  0  0  0  0  0  0  0
  -12.9741  -27.0940   26.3370 H   0  0  0  0  0  0  0  0  0  0  0  0
  -13.0604  -26.9649   24.5762 H   0  0  0  0  0  0  0  0  0  0  0  0
   -9.0376  -24.9527   30.2246 H   0  0  0  0  0  0  0  0  0  0  0  0
   -9.4617  -27.4657   30.5776 H   0  0  0  0  0  0  0  0  0  0  0  0
  -10.8433  -27.2859   29.4549 H   0  0  0  0  0  0  0  0  0  0  0  0
   -9.2673  -27.0100   28.8779 H   0  0  0  0  0  0  0  0  0  0  0  0
  -11.8148  -25.2008   31.0524 H   0  0  0  0  0  0  0  0  0  0  0  0
  -10.7731  -25.3511   34.7412 H   0  0  0  0  0  0  0  0  0  0  0  0
  -10.4176  -26.6959   33.7223 H   0  0  0  0  0  0  0  0  0  0  0  0
  -12.0711  -26.0082   33.8399 H   0  0  0  0  0  0  0  0  0  0  0  0
  -12.4922  -23.7322   32.3480 H   0  0  0  0  0  0  0  0  0  0  0  0
  -11.8449  -23.5150   33.9077 H   0  0  0  0  0  0  0  0  0  0  0  0
  -11.0833  -22.6818   32.5757 H   0  0  0  0  0  0  0  0  0  0  0  0
   -8.9507  -23.4699   32.7864 H   0  0  0  0  0  0  0  0  0  0  0  0
   -8.9524  -24.8469   33.8910 H   0  0  0  0  0  0  0  0  0  0  0  0
   -8.2076  -26.1613   32.3735 H   0  0  0  0  0  0  0  0  0  0  0  0
  1  2  1  0
  2  3  1  0
  3  4  2  0
  4  5  1  0
  5  6  1  0
  5  7  2  0
  5  8  2  0
  4  9  1  0
  9 10  1  0
 10 11  1  0
 11 12  1  0
 11 13  1  0
 13 14  1  0
 14 15  1  0
 14 16  1  0
 14 17  1  0
 17 18  1  0
 10  2  2  0
  1 19  1  0
  1 20  1  0
  1 21  1  0
  3 22  1  0
  6 23  1  0
  6 24  1  0
  6 25  1  0
 11 26  1  0
 12 27  1  0
 12 28  1  0
 12 29  1  0
 13 30  1  0
 15 31  1  0
 15 32  1  0
 15 33  1  0
 16 34  1  0
 16 35  1  0
 16 36  1  0
 17 37  1  0
 17 38  1  0
 18 39  1  0
M  END
>  <Energy>  (709) 
118.23509042881039

>  <compound_id>  (709) 
979

>  <target_id>  (709) 
1

>  <reference_id>  (709) 
75

>  <inspiration_ids>  (709) 
[75, 52]

>  <energy_score>  (709) 
-6.161077266726522

>  <distance_score>  (709) 
1.3495766959751982

>  <path>  (709) 
/opt/xchem-fragalysis-2/maxwin/BulkDock/SCRATCH/505733/C979-P75/C979-P75.minimised.mol

>  <scratch_subdir>  (709) 
/opt/xchem-fragalysis-2/maxwin/BulkDock/SCRATCH/505733/C979-P75

>  <fragmenstein_runtime>  (709) 
3.594881057739258

>  <fragmenstein_outcome>  (709) 
too moved

>  <fragmenstein_mode>  (709) 
expansion

>  <fragmenstein_error>  (709) 


$$$$
C979-P52
     RDKit          3D

 39 39  0  0  0  0  0  0  0  0999 V2000
  -11.5088  -22.2065   29.8927 C   0  0  0  0  0  0  0  0  0  0  0  0
  -11.5332  -23.3510   28.9366 C   0  0  0  0  0  0  0  0  0  0  0  0
  -11.9511  -23.1162   27.5885 C   0  0  0  0  0  0  0  0  0  0  0  0
  -12.3887  -24.2947   27.0433 C   0  0  0  0  0  0  0  0  0  0  0  0
  -13.6878  -24.6632   25.9442 S   0  0  0  0  0  0  0  0  0  0  0  0
  -13.4322  -26.3000   25.4127 C   0  0  0  0  0  0  0  0  0  0  0  0
  -14.8831  -24.7588   26.7496 O   0  0  0  0  0  0  0  0  0  0  0  0
  -13.5875  -23.6902   24.8811 O   0  0  0  0  0  0  0  0  0  0  0  0
  -11.4595  -25.5625   27.6665 S   0  0  0  0  0  0  0  0  0  0  0  0
  -11.3216  -24.7162   29.1577 C   0  0  0  0  0  0  0  0  0  0  0  0
  -11.0368  -25.5580   30.3778 C   0  0  0  0  0  0  0  0  0  0  0  0
  -12.0184  -26.7534   30.4522 C   0  0  0  0  0  0  0  0  0  0  0  0
  -11.2032  -24.8163   31.6066 N   0  0  0  0  0  0  0  0  0  0  0  0
  -10.0366  -24.5339   32.4509 C   0  0  0  0  0  0  0  0  0  0  0  0
   -9.6134  -25.8522   33.1094 C   0  0  0  0  0  0  0  0  0  0  0  0
  -10.4848  -23.5536   33.5628 C   0  0  0  0  0  0  0  0  0  0  0  0
   -8.8480  -23.7853   31.8197 C   0  0  0  0  0  0  0  0  0  0  0  0
   -8.7178  -23.9058   30.4108 O   0  0  0  0  0  0  0  0  0  0  0  0
  -10.7862  -22.3279   30.6905 H   0  0  0  0  0  0  0  0  0  0  0  0
  -11.2604  -21.2723   29.3763 H   0  0  0  0  0  0  0  0  0  0  0  0
  -12.4978  -22.0819   30.3470 H   0  0  0  0  0  0  0  0  0  0  0  0
  -12.2306  -22.1436   27.1992 H   0  0  0  0  0  0  0  0  0  0  0  0
  -12.3934  -26.4260   25.1286 H   0  0  0  0  0  0  0  0  0  0  0  0
  -13.6787  -26.9935   26.2209 H   0  0  0  0  0  0  0  0  0  0  0  0
  -14.1414  -26.4497   24.5984 H   0  0  0  0  0  0  0  0  0  0  0  0
  -10.0420  -25.9802   30.3055 H   0  0  0  0  0  0  0  0  0  0  0  0
  -12.0384  -27.2114   31.4471 H   0  0  0  0  0  0  0  0  0  0  0  0
  -13.0419  -26.4766   30.1813 H   0  0  0  0  0  0  0  0  0  0  0  0
  -11.7217  -27.5455   29.7543 H   0  0  0  0  0  0  0  0  0  0  0  0
  -11.8041  -24.0042   31.4978 H   0  0  0  0  0  0  0  0  0  0  0  0
   -9.4699  -25.7387   34.1868 H   0  0  0  0  0  0  0  0  0  0  0  0
   -8.6940  -26.2346   32.6663 H   0  0  0  0  0  0  0  0  0  0  0  0
  -10.3676  -26.6391   33.0094 H   0  0  0  0  0  0  0  0  0  0  0  0
  -11.3156  -23.9059   34.1596 H   0  0  0  0  0  0  0  0  0  0  0  0
   -9.6630  -23.3507   34.2613 H   0  0  0  0  0  0  0  0  0  0  0  0
  -10.8093  -22.5904   33.1480 H   0  0  0  0  0  0  0  0  0  0  0  0
   -8.9618  -22.7222   32.0175 H   0  0  0  0  0  0  0  0  0  0  0  0
   -7.9109  -24.0429   32.3094 H   0  0  0  0  0  0  0  0  0  0  0  0
   -8.5676  -24.8375   30.1981 H   0  0  0  0  0  0  0  0  0  0  0  0
  1  2  1  0
  2  3  1  0
  3  4  2  0
  4  5  1  0
  5  6  1  0
  5  7  2  0
  5  8  2  0
  4  9  1  0
  9 10  1  0
 10 11  1  0
 11 12  1  0
 11 13  1  0
 13 14  1  0
 14 15  1  0
 14 16  1  0
 14 17  1  0
 17 18  1  0
 10  2  2  0
  1 19  1  0
  1 20  1  0
  1 21  1  0
  3 22  1  0
  6 23  1  0
  6 24  1  0
  6 25  1  0
 11 26  1  0
 12 27  1  0
 12 28  1  0
 12 29  1  0
 13 30  1  0
 15 31  1  0
 15 32  1  0
 15 33  1  0
 16 34  1  0
 16 35  1  0
 16 36  1  0
 17 37  1  0
 17 38  1  0
 18 39  1  0
M  END
>  <Energy>  (710) 
103.07768178927417

>  <compound_id>  (710) 
979

>  <target_id>  (710) 
1

>  <reference_id>  (710) 
52

>  <inspiration_ids>  (710) 
[75, 52]

>  <energy_score>  (710) 
-21.318485906264073

>  <distance_score>  (710) 
1.3496289473082987

>  <path>  (710) 
/opt/xchem-fragalysis-2/maxwin/BulkDock/SCRATCH/505733/C979-P52/C979-P52.minimised.mol

>  <scratch_subdir>  (710) 
/opt/xchem-fragalysis-2/maxwin/BulkDock/SCRATCH/505733/C979-P52

>  <fragmenstein_runtime>  (710) 
2.0870800018310547

>  <fragmenstein_outcome>  (710) 
too moved

>  <fragmenstein_mode>  (710) 
expansion

>  <fragmenstein_error>  (710) 


$$$$
C980-P75
     RDKit          3D

 43 43  0  0  0  0  0  0  0  0999 V2000
   -9.8547  -24.8553   32.5313 C   0  0  0  0  0  0  0  0  0  0  0  0
   -8.9962  -25.5036   31.4567 C   0  0  0  0  0  0  0  0  0  0  0  0
   -9.4974  -26.8520   30.9485 C   0  0  0  0  0  0  0  0  0  0  0  0
   -9.9516  -27.0739   29.4809 C   0  0  0  0  0  0  0  0  0  0  0  0
  -10.3246  -25.9165   28.5563 C   0  0  0  0  0  0  0  0  0  0  0  0
   -8.9860  -25.4019   28.0770 C   0  0  0  0  0  0  0  0  0  0  0  0
   -9.0317  -24.0887   27.5884 O   0  0  0  0  0  0  0  0  0  0  0  0
  -11.0487  -24.8773   29.3735 C   0  0  0  0  0  0  0  0  0  0  0  0
  -12.2309  -24.2712   28.7210 C   0  0  0  0  0  0  0  0  0  0  0  0
  -11.8089  -23.3811   27.6371 C   0  0  0  0  0  0  0  0  0  0  0  0
  -11.9610  -22.0606   28.1767 N   0  0  0  0  0  0  0  0  0  0  0  0
  -11.3361  -21.7342   29.4276 C   0  0  0  0  0  0  0  0  0  0  0  0
  -12.6943  -23.6795   26.5496 N   0  0  0  0  0  0  0  0  0  0  0  0
  -12.6566  -25.0419   26.0477 C   0  0  0  0  0  0  0  0  0  0  0  0
  -11.3486  -25.8370   26.2176 C   0  0  0  0  0  0  0  0  0  0  0  0
  -11.1300  -26.5505   27.4767 N   0  0  0  0  0  0  0  0  0  0  0  0
  -10.8918  -24.7036   32.2311 H   0  0  0  0  0  0  0  0  0  0  0  0
   -9.4391  -23.8726   32.7592 H   0  0  0  0  0  0  0  0  0  0  0  0
   -9.8579  -25.4561   33.4454 H   0  0  0  0  0  0  0  0  0  0  0  0
   -7.9885  -25.6053   31.8572 H   0  0  0  0  0  0  0  0  0  0  0  0
   -8.8849  -24.8090   30.6514 H   0  0  0  0  0  0  0  0  0  0  0  0
  -10.2770  -27.1493   31.6286 H   0  0  0  0  0  0  0  0  0  0  0  0
   -8.7261  -27.6097   31.1203 H   0  0  0  0  0  0  0  0  0  0  0  0
  -10.8061  -27.7277   29.4542 H   0  0  0  0  0  0  0  0  0  0  0  0
   -9.2087  -27.7015   28.9817 H   0  0  0  0  0  0  0  0  0  0  0  0
   -8.6109  -26.1242   27.3603 H   0  0  0  0  0  0  0  0  0  0  0  0
   -8.2687  -25.3580   28.8765 H   0  0  0  0  0  0  0  0  0  0  0  0
   -8.1410  -23.7741   27.3918 H   0  0  0  0  0  0  0  0  0  0  0  0
  -11.3473  -25.2803   30.3251 H   0  0  0  0  0  0  0  0  0  0  0  0
  -10.3772  -24.0790   29.6328 H   0  0  0  0  0  0  0  0  0  0  0  0
  -12.9362  -25.0299   28.3987 H   0  0  0  0  0  0  0  0  0  0  0  0
  -12.7956  -23.6727   29.4389 H   0  0  0  0  0  0  0  0  0  0  0  0
  -10.8266  -23.4539   27.2404 H   0  0  0  0  0  0  0  0  0  0  0  0
  -11.6306  -21.4199   27.4577 H   0  0  0  0  0  0  0  0  0  0  0  0
  -11.7789  -20.8070   29.7544 H   0  0  0  0  0  0  0  0  0  0  0  0
  -10.2974  -21.5367   29.2445 H   0  0  0  0  0  0  0  0  0  0  0  0
  -11.4750  -22.4045   30.2768 H   0  0  0  0  0  0  0  0  0  0  0  0
  -12.6162  -22.9550   25.8368 H   0  0  0  0  0  0  0  0  0  0  0  0
  -12.8956  -24.9992   24.9911 H   0  0  0  0  0  0  0  0  0  0  0  0
  -13.4925  -25.6148   26.4694 H   0  0  0  0  0  0  0  0  0  0  0  0
  -10.4912  -25.2419   25.8953 H   0  0  0  0  0  0  0  0  0  0  0  0
  -11.4322  -26.6446   25.4817 H   0  0  0  0  0  0  0  0  0  0  0  0
  -12.0296  -26.8342   27.8699 H   0  0  0  0  0  0  0  0  0  0  0  0
  1  2  1  0
  2  3  1  0
  3  4  1  0
  4  5  1  0
  5  6  1  0
  6  7  1  0
  5  8  1  0
  8  9  1  0
  9 10  1  0
 10 11  1  0
 11 12  1  0
 10 13  1  0
 13 14  1  0
 14 15  1  0
 15 16  1  0
 16  5  1  0
  1 17  1  0
  1 18  1  0
  1 19  1  0
  2 20  1  0
  2 21  1  0
  3 22  1  0
  3 23  1  0
  4 24  1  0
  4 25  1  0
  6 26  1  0
  6 27  1  0
  7 28  1  0
  8 29  1  0
  8 30  1  0
  9 31  1  0
  9 32  1  0
 10 33  1  0
 11 34  1  0
 12 35  1  0
 12 36  1  0
 12 37  1  0
 13 38  1  0
 14 39  1  0
 14 40  1  0
 15 41  1  0
 15 42  1  0
 16 43  1  0
M  END
>  <Energy>  (711) 
72.249458391466518

>  <compound_id>  (711) 
980

>  <target_id>  (711) 
1

>  <reference_id>  (711) 
75

>  <inspiration_ids>  (711) 
[75, 54]

>  <energy_score>  (711) 
-76.65370799886196

>  <distance_score>  (711) 
1.4431963251216138

>  <path>  (711) 
/opt/xchem-fragalysis-2/maxwin/BulkDock/SCRATCH/505733/C980-P75/C980-P75.minimised.mol

>  <scratch_subdir>  (711) 
/opt/xchem-fragalysis-2/maxwin/BulkDock/SCRATCH/505733/C980-P75

>  <fragmenstein_runtime>  (711) 
3.3680996894836426

>  <fragmenstein_outcome>  (711) 
too moved

>  <fragmenstein_mode>  (711) 
expansion

>  <fragmenstein_error>  (711) 


$$$$
C980-P54
     RDKit          3D

 43 43  0  0  0  0  0  0  0  0999 V2000
  -10.1968  -22.6788   32.9540 C   0  0  0  0  0  0  0  0  0  0  0  0
   -9.2746  -23.4839   32.0824 C   0  0  0  0  0  0  0  0  0  0  0  0
   -9.6382  -24.9412   31.8040 C   0  0  0  0  0  0  0  0  0  0  0  0
  -10.6567  -25.5087   30.7593 C   0  0  0  0  0  0  0  0  0  0  0  0
  -10.8037  -24.8496   29.3598 C   0  0  0  0  0  0  0  0  0  0  0  0
   -9.4553  -24.6667   28.5754 C   0  0  0  0  0  0  0  0  0  0  0  0
   -8.3813  -24.1562   29.3296 O   0  0  0  0  0  0  0  0  0  0  0  0
  -11.4224  -23.5422   29.8381 C   0  0  0  0  0  0  0  0  0  0  0  0
  -12.5242  -23.0258   28.9948 C   0  0  0  0  0  0  0  0  0  0  0  0
  -11.9350  -22.6681   27.6565 C   0  0  0  0  0  0  0  0  0  0  0  0
  -11.6922  -21.2584   27.7029 N   0  0  0  0  0  0  0  0  0  0  0  0
  -10.6214  -20.8967   28.6042 C   0  0  0  0  0  0  0  0  0  0  0  0
  -12.7836  -23.0882   26.5728 N   0  0  0  0  0  0  0  0  0  0  0  0
  -13.0338  -24.5406   26.6070 C   0  0  0  0  0  0  0  0  0  0  0  0
  -11.8976  -25.4914   27.1069 C   0  0  0  0  0  0  0  0  0  0  0  0
  -11.7561  -25.7108   28.5695 N   0  0  0  0  0  0  0  0  0  0  0  0
  -11.1809  -22.5431   32.5128 H   0  0  0  0  0  0  0  0  0  0  0  0
   -9.7791  -21.6764   33.1040 H   0  0  0  0  0  0  0  0  0  0  0  0
  -10.2834  -23.1297   33.9421 H   0  0  0  0  0  0  0  0  0  0  0  0
   -8.3180  -23.4987   32.6256 H   0  0  0  0  0  0  0  0  0  0  0  0
   -9.0506  -22.9197   31.1782 H   0  0  0  0  0  0  0  0  0  0  0  0
   -9.8344  -25.4322   32.7641 H   0  0  0  0  0  0  0  0  0  0  0  0
   -8.6616  -25.2778   31.4944 H   0  0  0  0  0  0  0  0  0  0  0  0
  -10.5312  -26.5752   30.5986 H   0  0  0  0  0  0  0  0  0  0  0  0
  -11.6347  -25.5250   31.2625 H   0  0  0  0  0  0  0  0  0  0  0  0
   -9.5219  -23.9965   27.7288 H   0  0  0  0  0  0  0  0  0  0  0  0
   -9.1521  -25.6040   28.1016 H   0  0  0  0  0  0  0  0  0  0  0  0
   -7.5660  -24.5237   28.9448 H   0  0  0  0  0  0  0  0  0  0  0  0
  -11.8664  -23.6143   30.8286 H   0  0  0  0  0  0  0  0  0  0  0  0
  -10.6344  -22.8135   29.9675 H   0  0  0  0  0  0  0  0  0  0  0  0
  -13.3498  -23.7420   28.9635 H   0  0  0  0  0  0  0  0  0  0  0  0
  -12.9564  -22.1590   29.5144 H   0  0  0  0  0  0  0  0  0  0  0  0
  -10.9849  -23.0995   27.4152 H   0  0  0  0  0  0  0  0  0  0  0  0
  -11.5650  -20.8916   26.7639 H   0  0  0  0  0  0  0  0  0  0  0  0
  -10.2813  -19.8917   28.3945 H   0  0  0  0  0  0  0  0  0  0  0  0
   -9.7532  -21.5463   28.4775 H   0  0  0  0  0  0  0  0  0  0  0  0
  -10.9535  -20.8542   29.6452 H   0  0  0  0  0  0  0  0  0  0  0  0
  -12.3819  -22.7865   25.6905 H   0  0  0  0  0  0  0  0  0  0  0  0
  -13.9413  -24.7346   27.1928 H   0  0  0  0  0  0  0  0  0  0  0  0
  -13.3160  -24.8455   25.5933 H   0  0  0  0  0  0  0  0  0  0  0  0
  -10.9516  -25.2678   26.6045 H   0  0  0  0  0  0  0  0  0  0  0  0
  -12.1742  -26.4780   26.7083 H   0  0  0  0  0  0  0  0  0  0  0  0
  -11.4585  -26.6802   28.6967 H   0  0  0  0  0  0  0  0  0  0  0  0
  1  2  1  0
  2  3  1  0
  3  4  1  0
  4  5  1  0
  5  6  1  0
  6  7  1  0
  5  8  1  0
  8  9  1  0
  9 10  1  0
 10 11  1  0
 11 12  1  0
 10 13  1  0
 13 14  1  0
 14 15  1  0
 15 16  1  0
 16  5  1  0
  1 17  1  0
  1 18  1  0
  1 19  1  0
  2 20  1  0
  2 21  1  0
  3 22  1  0
  3 23  1  0
  4 24  1  0
  4 25  1  0
  6 26  1  0
  6 27  1  0
  7 28  1  0
  8 29  1  0
  8 30  1  0
  9 31  1  0
  9 32  1  0
 10 33  1  0
 11 34  1  0
 12 35  1  0
 12 36  1  0
 12 37  1  0
 13 38  1  0
 14 39  1  0
 14 40  1  0
 15 41  1  0
 15 42  1  0
 16 43  1  0
M  END
>  <Energy>  (712) 
65.524975395241114

>  <compound_id>  (712) 
980

>  <target_id>  (712) 
1

>  <reference_id>  (712) 
54

>  <inspiration_ids>  (712) 
[75, 54]

>  <energy_score>  (712) 
-83.3781909950863

>  <distance_score>  (712) 
1.9407377224866542

>  <path>  (712) 
/opt/xchem-fragalysis-2/maxwin/BulkDock/SCRATCH/505733/C980-P54/C980-P54.minimised.mol

>  <scratch_subdir>  (712) 
/opt/xchem-fragalysis-2/maxwin/BulkDock/SCRATCH/505733/C980-P54

>  <fragmenstein_runtime>  (712) 
2.1980175971984863

>  <fragmenstein_outcome>  (712) 
too moved

>  <fragmenstein_mode>  (712) 
expansion

>  <fragmenstein_error>  (712) 


$$$$
C983-P75
     RDKit          3D

 32 32  0  0  0  0  0  0  0  0999 V2000
  -11.6411  -22.9787   28.6227 C   0  0  0  0  0  0  0  0  0  0  0  0
  -11.5353  -24.3434   28.0374 C   0  0  0  0  0  0  0  0  0  0  0  0
  -12.0969  -24.6318   26.7538 C   0  0  0  0  0  0  0  0  0  0  0  0
  -11.9211  -25.9380   26.3805 C   0  0  0  0  0  0  0  0  0  0  0  0
  -11.0199  -26.8096   27.5271 S   0  0  0  0  0  0  0  0  0  0  0  0
  -10.9491  -25.4764   28.6131 C   0  0  0  0  0  0  0  0  0  0  0  0
  -10.2341  -25.6111   29.9611 C   0  0  0  0  0  0  0  0  0  0  0  0
   -9.9975  -26.9430   30.2805 O   0  0  0  0  0  0  0  0  0  0  0  0
   -8.9754  -25.0844   29.7112 O   0  0  0  0  0  0  0  0  0  0  0  0
  -10.9651  -24.9017   30.9715 N   0  0  0  0  0  0  0  0  0  0  0  0
  -10.6994  -24.7744   32.4030 C   0  0  0  0  0  0  0  0  0  0  0  0
   -9.4799  -23.9233   32.4422 C   0  0  0  0  0  0  0  0  0  0  0  0
  -10.4558  -25.9643   33.3031 C   0  0  0  0  0  0  0  0  0  0  0  0
  -11.9338  -24.0331   33.0209 C   0  0  0  0  0  0  0  0  0  0  0  0
  -12.2625  -22.8660   32.2691 O   0  0  0  0  0  0  0  0  0  0  0  0
  -10.9975  -22.8167   29.4786 H   0  0  0  0  0  0  0  0  0  0  0  0
  -12.6665  -22.8076   28.9550 H   0  0  0  0  0  0  0  0  0  0  0  0
  -11.3813  -22.2223   27.8782 H   0  0  0  0  0  0  0  0  0  0  0  0
  -12.6145  -23.9082   26.1345 H   0  0  0  0  0  0  0  0  0  0  0  0
  -12.2650  -26.4214   25.4765 H   0  0  0  0  0  0  0  0  0  0  0  0
   -9.2585  -26.8684   30.9077 H   0  0  0  0  0  0  0  0  0  0  0  0
   -8.7702  -25.3467   28.8005 H   0  0  0  0  0  0  0  0  0  0  0  0
  -11.9486  -25.1207   30.8328 H   0  0  0  0  0  0  0  0  0  0  0  0
   -9.7721  -22.9137   32.1605 H   0  0  0  0  0  0  0  0  0  0  0  0
   -8.9959  -23.8477   33.3938 H   0  0  0  0  0  0  0  0  0  0  0  0
   -8.6817  -24.3564   31.8433 H   0  0  0  0  0  0  0  0  0  0  0  0
  -10.0367  -26.7694   32.7211 H   0  0  0  0  0  0  0  0  0  0  0  0
  -11.3579  -26.3150   33.8123 H   0  0  0  0  0  0  0  0  0  0  0  0
   -9.7618  -25.7287   34.1153 H   0  0  0  0  0  0  0  0  0  0  0  0
  -12.8237  -24.6708   33.0276 H   0  0  0  0  0  0  0  0  0  0  0  0
  -11.7929  -23.7275   34.0538 H   0  0  0  0  0  0  0  0  0  0  0  0
  -12.2323  -23.1928   31.3492 H   0  0  0  0  0  0  0  0  0  0  0  0
  1  2  1  0
  2  3  1  0
  3  4  2  0
  4  5  1  0
  5  6  1  0
  6  7  1  0
  7  8  1  0
  7  9  1  0
  7 10  1  0
 10 11  1  0
 11 12  1  0
 11 13  1  0
 11 14  1  0
 14 15  1  0
  6  2  2  0
  1 16  1  0
  1 17  1  0
  1 18  1  0
  3 19  1  0
  4 20  1  0
  8 21  1  0
  9 22  1  0
 10 23  1  0
 12 24  1  0
 12 25  1  0
 12 26  1  0
 13 27  1  0
 13 28  1  0
 13 29  1  0
 14 30  1  0
 14 31  1  0
 15 32  1  0
M  END
>  <Energy>  (713) 
-68.810390157686342

>  <compound_id>  (713) 
983

>  <target_id>  (713) 
1

>  <reference_id>  (713) 
75

>  <inspiration_ids>  (713) 
[75, 82]

>  <energy_score>  (713) 
-23.25773644826593

>  <distance_score>  (713) 
1.5074156984456097

>  <path>  (713) 
/opt/xchem-fragalysis-2/maxwin/BulkDock/SCRATCH/505733/C983-P75/C983-P75.minimised.mol

>  <scratch_subdir>  (713) 
/opt/xchem-fragalysis-2/maxwin/BulkDock/SCRATCH/505733/C983-P75

>  <fragmenstein_runtime>  (713) 
2.0712342262268066

>  <fragmenstein_outcome>  (713) 
too moved

>  <fragmenstein_mode>  (713) 
expansion

>  <fragmenstein_error>  (713) 


$$$$
C983-P82
     RDKit          3D

 32 32  0  0  0  0  0  0  0  0999 V2000
  -11.6587  -22.7271   28.4811 C   0  0  0  0  0  0  0  0  0  0  0  0
  -11.8229  -24.0828   27.8823 C   0  0  0  0  0  0  0  0  0  0  0  0
  -12.4194  -24.2581   26.5940 C   0  0  0  0  0  0  0  0  0  0  0  0
  -12.5212  -25.5748   26.2328 C   0  0  0  0  0  0  0  0  0  0  0  0
  -11.8530  -26.6045   27.3985 S   0  0  0  0  0  0  0  0  0  0  0  0
  -11.4480  -25.3038   28.4513 C   0  0  0  0  0  0  0  0  0  0  0  0
  -10.7121  -25.5659   29.7634 C   0  0  0  0  0  0  0  0  0  0  0  0
  -10.8516  -26.9026   30.1275 O   0  0  0  0  0  0  0  0  0  0  0  0
   -9.3730  -25.3356   29.4510 O   0  0  0  0  0  0  0  0  0  0  0  0
  -11.2032  -24.6931   30.7697 N   0  0  0  0  0  0  0  0  0  0  0  0
  -10.7853  -24.6302   32.1610 C   0  0  0  0  0  0  0  0  0  0  0  0
   -9.3069  -24.7426   32.4737 C   0  0  0  0  0  0  0  0  0  0  0  0
  -11.3932  -25.6867   33.0112 C   0  0  0  0  0  0  0  0  0  0  0  0
  -11.4065  -23.3132   32.7120 C   0  0  0  0  0  0  0  0  0  0  0  0
  -12.7466  -23.0726   32.2726 O   0  0  0  0  0  0  0  0  0  0  0  0
  -12.1872  -22.6301   29.4317 H   0  0  0  0  0  0  0  0  0  0  0  0
  -12.0527  -21.9626   27.8109 H   0  0  0  0  0  0  0  0  0  0  0  0
  -10.6098  -22.4913   28.6181 H   0  0  0  0  0  0  0  0  0  0  0  0
  -12.7775  -23.4457   25.9709 H   0  0  0  0  0  0  0  0  0  0  0  0
  -12.9581  -25.9800   25.3324 H   0  0  0  0  0  0  0  0  0  0  0  0
  -10.1877  -27.0079   30.8305 H   0  0  0  0  0  0  0  0  0  0  0  0
   -9.2370  -25.8619   28.6469 H   0  0  0  0  0  0  0  0  0  0  0  0
  -12.2242  -24.7031   30.7216 H   0  0  0  0  0  0  0  0  0  0  0  0
   -8.8907  -23.7570   32.6207 H   0  0  0  0  0  0  0  0  0  0  0  0
   -9.1101  -25.2757   33.4105 H   0  0  0  0  0  0  0  0  0  0  0  0
   -8.7545  -25.3131   31.7315 H   0  0  0  0  0  0  0  0  0  0  0  0
  -11.0304  -26.6700   32.7149 H   0  0  0  0  0  0  0  0  0  0  0  0
  -12.4713  -25.5978   32.9575 H   0  0  0  0  0  0  0  0  0  0  0  0
  -11.1334  -25.5598   34.0716 H   0  0  0  0  0  0  0  0  0  0  0  0
  -11.4472  -23.3010   33.8014 H   0  0  0  0  0  0  0  0  0  0  0  0
  -10.8430  -22.4449   32.3730 H   0  0  0  0  0  0  0  0  0  0  0  0
  -13.2907  -23.8624   32.4363 H   0  0  0  0  0  0  0  0  0  0  0  0
  1  2  1  0
  2  3  1  0
  3  4  2  0
  4  5  1  0
  5  6  1  0
  6  7  1  0
  7  8  1  0
  7  9  1  0
  7 10  1  0
 10 11  1  0
 11 12  1  0
 11 13  1  0
 11 14  1  0
 14 15  1  0
  6  2  2  0
  1 16  1  0
  1 17  1  0
  1 18  1  0
  3 19  1  0
  4 20  1  0
  8 21  1  0
  9 22  1  0
 10 23  1  0
 12 24  1  0
 12 25  1  0
 12 26  1  0
 13 27  1  0
 13 28  1  0
 13 29  1  0
 14 30  1  0
 14 31  1  0
 15 32  1  0
M  END
>  <Energy>  (714) 
-71.898840657942941

>  <compound_id>  (714) 
983

>  <target_id>  (714) 
1

>  <reference_id>  (714) 
82

>  <inspiration_ids>  (714) 
[75, 82]

>  <energy_score>  (714) 
-26.346186948520845

>  <distance_score>  (714) 
1.7681445918554841

>  <path>  (714) 
/opt/xchem-fragalysis-2/maxwin/BulkDock/SCRATCH/505733/C983-P82/C983-P82.minimised.mol

>  <scratch_subdir>  (714) 
/opt/xchem-fragalysis-2/maxwin/BulkDock/SCRATCH/505733/C983-P82

>  <fragmenstein_runtime>  (714) 
1.447709560394287

>  <fragmenstein_outcome>  (714) 
too moved

>  <fragmenstein_mode>  (714) 
expansion

>  <fragmenstein_error>  (714) 


$$$$
C986-P75
     RDKit          3D

 44 44  0  0  0  0  0  0  0  0999 V2000
  -11.2924  -23.0922   27.9323 C   0  0  0  0  0  0  0  0  0  0  0  0
  -11.5926  -24.4113   27.3186 C   0  0  0  0  0  0  0  0  0  0  0  0
  -11.3151  -25.6496   27.8803 C   0  0  0  0  0  0  0  0  0  0  0  0
  -10.6294  -25.9559   29.1741 C   0  0  0  0  0  0  0  0  0  0  0  0
  -11.0206  -24.9820   30.1914 N   0  0  0  0  0  0  0  0  0  0  0  0
  -10.3283  -24.8273   31.4551 C   0  0  0  0  0  0  0  0  0  0  0  0
  -10.6918  -23.3686   31.8200 C   0  0  0  0  0  0  0  0  0  0  0  0
  -10.6266  -25.5325   32.7913 C   0  0  0  0  0  0  0  0  0  0  0  0
   -8.9218  -25.2960   31.1431 C   0  0  0  0  0  0  0  0  0  0  0  0
   -8.0022  -24.8470   32.0617 O   0  0  0  0  0  0  0  0  0  0  0  0
  -11.8208  -26.9455   26.8729 S   0  0  0  0  0  0  0  0  0  0  0  0
  -12.6785  -25.8740   25.8736 C   0  0  0  0  0  0  0  0  0  0  0  0
  -13.6433  -26.3001   25.0601 O   0  0  0  0  0  0  0  0  0  0  0  0
  -14.9187  -25.8476   25.5274 C   0  0  0  0  0  0  0  0  0  0  0  0
  -16.0052  -25.9409   24.4682 C   0  0  0  0  0  0  0  0  0  0  0  0
  -15.7219  -26.3012   23.3590 O   0  0  0  0  0  0  0  0  0  0  0  0
  -17.2415  -25.4687   25.0021 N   0  0  0  0  0  0  0  0  0  0  0  0
  -18.0417  -26.6178   25.5529 C   0  0  0  0  0  0  0  0  0  0  0  0
  -18.5396  -25.1681   24.3322 C   0  0  0  0  0  0  0  0  0  0  0  0
  -12.2744  -24.5852   26.0970 C   0  0  0  0  0  0  0  0  0  0  0  0
  -12.6780  -23.5748   25.3183 F   0  0  0  0  0  0  0  0  0  0  0  0
  -10.2725  -23.0723   28.3168 H   0  0  0  0  0  0  0  0  0  0  0  0
  -11.9928  -22.8734   28.7439 H   0  0  0  0  0  0  0  0  0  0  0  0
  -11.3794  -22.2848   27.2091 H   0  0  0  0  0  0  0  0  0  0  0  0
   -9.5736  -25.9203   28.8948 H   0  0  0  0  0  0  0  0  0  0  0  0
  -10.8172  -26.9769   29.5050 H   0  0  0  0  0  0  0  0  0  0  0  0
  -12.0320  -24.9411   30.3290 H   0  0  0  0  0  0  0  0  0  0  0  0
  -10.8257  -22.6938   30.9695 H   0  0  0  0  0  0  0  0  0  0  0  0
  -11.6630  -23.3160   32.3322 H   0  0  0  0  0  0  0  0  0  0  0  0
   -9.9567  -22.9364   32.4868 H   0  0  0  0  0  0  0  0  0  0  0  0
  -10.4654  -26.5982   32.6984 H   0  0  0  0  0  0  0  0  0  0  0  0
   -9.9211  -25.2241   33.5705 H   0  0  0  0  0  0  0  0  0  0  0  0
  -11.6125  -25.3026   33.2080 H   0  0  0  0  0  0  0  0  0  0  0  0
   -8.8702  -26.3907   31.1172 H   0  0  0  0  0  0  0  0  0  0  0  0
   -8.5930  -24.9623   30.1685 H   0  0  0  0  0  0  0  0  0  0  0  0
   -8.2997  -23.9894   32.3877 H   0  0  0  0  0  0  0  0  0  0  0  0
  -15.2053  -26.4504   26.3946 H   0  0  0  0  0  0  0  0  0  0  0  0
  -14.8684  -24.7879   25.7904 H   0  0  0  0  0  0  0  0  0  0  0  0
  -18.8761  -26.3292   26.2099 H   0  0  0  0  0  0  0  0  0  0  0  0
  -18.3013  -27.3863   24.8075 H   0  0  0  0  0  0  0  0  0  0  0  0
  -17.3628  -27.1527   26.2332 H   0  0  0  0  0  0  0  0  0  0  0  0
  -18.8510  -25.8985   23.5700 H   0  0  0  0  0  0  0  0  0  0  0  0
  -18.3096  -24.2768   23.7300 H   0  0  0  0  0  0  0  0  0  0  0  0
  -19.3402  -24.8301   25.0056 H   0  0  0  0  0  0  0  0  0  0  0  0
  1  2  1  0
  2  3  2  0
  3  4  1  0
  4  5  1  0
  5  6  1  0
  6  7  1  0
  6  8  1  0
  6  9  1  0
  9 10  1  0
  3 11  1  0
 11 12  1  0
 12 13  1  0
 13 14  1  0
 14 15  1  0
 15 16  2  0
 15 17  1  0
 17 18  1  0
 17 19  1  0
 12 20  2  0
 20 21  1  0
 20  2  1  0
  1 22  1  0
  1 23  1  0
  1 24  1  0
  4 25  1  0
  4 26  1  0
  5 27  1  0
  7 28  1  0
  7 29  1  0
  7 30  1  0
  8 31  1  0
  8 32  1  0
  8 33  1  0
  9 34  1  0
  9 35  1  0
 10 36  1  0
 14 37  1  0
 14 38  1  0
 18 39  1  0
 18 40  1  0
 18 41  1  0
 19 42  1  0
 19 43  1  0
 19 44  1  0
M  END
>  <Energy>  (715) 
164.32681739187066

>  <compound_id>  (715) 
986

>  <target_id>  (715) 
1

>  <reference_id>  (715) 
75

>  <inspiration_ids>  (715) 
[75, 104]

>  <energy_score>  (715) 
68.69024996616105

>  <distance_score>  (715) 
1.8961937045336223

>  <path>  (715) 
/opt/xchem-fragalysis-2/maxwin/BulkDock/SCRATCH/505733/C986-P75/C986-P75.minimised.mol

>  <scratch_subdir>  (715) 
/opt/xchem-fragalysis-2/maxwin/BulkDock/SCRATCH/505733/C986-P75

>  <fragmenstein_runtime>  (715) 
8.521725177764893

>  <fragmenstein_outcome>  (715) 
too moved

>  <fragmenstein_mode>  (715) 
expansion

>  <fragmenstein_error>  (715) 


$$$$
C986-P104
     RDKit          3D

 44 44  0  0  0  0  0  0  0  0999 V2000
  -11.2033  -22.3820   28.2440 C   0  0  0  0  0  0  0  0  0  0  0  0
  -11.4024  -23.7557   27.7387 C   0  0  0  0  0  0  0  0  0  0  0  0
  -10.8323  -24.9588   28.1524 C   0  0  0  0  0  0  0  0  0  0  0  0
   -9.8471  -25.3199   29.2523 C   0  0  0  0  0  0  0  0  0  0  0  0
  -10.3099  -25.5737   30.6222 N   0  0  0  0  0  0  0  0  0  0  0  0
  -10.2744  -24.7208   31.8372 C   0  0  0  0  0  0  0  0  0  0  0  0
  -10.9982  -23.3660   31.7554 C   0  0  0  0  0  0  0  0  0  0  0  0
  -10.6453  -25.2717   33.2495 C   0  0  0  0  0  0  0  0  0  0  0  0
   -8.8246  -24.5532   31.9691 C   0  0  0  0  0  0  0  0  0  0  0  0
   -8.0227  -25.6607   32.2043 O   0  0  0  0  0  0  0  0  0  0  0  0
  -11.2476  -26.2126   27.0154 S   0  0  0  0  0  0  0  0  0  0  0  0
  -12.4484  -25.2615   26.2728 C   0  0  0  0  0  0  0  0  0  0  0  0
  -13.3220  -25.8190   25.4343 O   0  0  0  0  0  0  0  0  0  0  0  0
  -14.5507  -25.1037   25.3147 C   0  0  0  0  0  0  0  0  0  0  0  0
  -15.5242  -25.9172   24.4758 C   0  0  0  0  0  0  0  0  0  0  0  0
  -15.1110  -26.6306   23.6021 O   0  0  0  0  0  0  0  0  0  0  0  0
  -16.8614  -25.5924   24.8534 N   0  0  0  0  0  0  0  0  0  0  0  0
  -17.3569  -26.5608   25.8961 C   0  0  0  0  0  0  0  0  0  0  0  0
  -18.1671  -25.9445   24.2181 C   0  0  0  0  0  0  0  0  0  0  0  0
  -12.3166  -23.9646   26.6798 C   0  0  0  0  0  0  0  0  0  0  0  0
  -13.0458  -22.9586   26.1684 F   0  0  0  0  0  0  0  0  0  0  0  0
  -10.1482  -22.1562   28.3420 H   0  0  0  0  0  0  0  0  0  0  0  0
  -11.7382  -22.1940   29.1692 H   0  0  0  0  0  0  0  0  0  0  0  0
  -11.6022  -21.6637   27.5224 H   0  0  0  0  0  0  0  0  0  0  0  0
   -8.9965  -24.6664   29.1524 H   0  0  0  0  0  0  0  0  0  0  0  0
   -9.4265  -26.2837   28.9433 H   0  0  0  0  0  0  0  0  0  0  0  0
  -10.2103  -26.5573   30.8525 H   0  0  0  0  0  0  0  0  0  0  0  0
  -12.0491  -23.4280   32.0546 H   0  0  0  0  0  0  0  0  0  0  0  0
  -10.9754  -22.9480   30.7635 H   0  0  0  0  0  0  0  0  0  0  0  0
  -10.5457  -22.6234   32.4144 H   0  0  0  0  0  0  0  0  0  0  0  0
  -10.5224  -26.3352   33.3308 H   0  0  0  0  0  0  0  0  0  0  0  0
   -9.9593  -24.9423   34.0252 H   0  0  0  0  0  0  0  0  0  0  0  0
  -11.6660  -25.0230   33.5591 H   0  0  0  0  0  0  0  0  0  0  0  0
   -8.5207  -24.3566   30.9960 H   0  0  0  0  0  0  0  0  0  0  0  0
   -8.6413  -23.7075   32.6237 H   0  0  0  0  0  0  0  0  0  0  0  0
   -8.5419  -26.4822   32.1416 H   0  0  0  0  0  0  0  0  0  0  0  0
  -14.3956  -24.1629   24.7736 H   0  0  0  0  0  0  0  0  0  0  0  0
  -14.9789  -24.9065   26.3038 H   0  0  0  0  0  0  0  0  0  0  0  0
  -17.3899  -27.6101   25.5626 H   0  0  0  0  0  0  0  0  0  0  0  0
  -16.5822  -26.5745   26.6775 H   0  0  0  0  0  0  0  0  0  0  0  0
  -18.2565  -26.2332   26.4384 H   0  0  0  0  0  0  0  0  0  0  0  0
  -18.2399  -26.9803   23.8534 H   0  0  0  0  0  0  0  0  0  0  0  0
  -18.1600  -25.3614   23.2861 H   0  0  0  0  0  0  0  0  0  0  0  0
  -19.0555  -25.5765   24.7509 H   0  0  0  0  0  0  0  0  0  0  0  0
  1  2  1  0
  2  3  2  0
  3  4  1  0
  4  5  1  0
  5  6  1  0
  6  7  1  0
  6  8  1  0
  6  9  1  0
  9 10  1  0
  3 11  1  0
 11 12  1  0
 12 13  1  0
 13 14  1  0
 14 15  1  0
 15 16  2  0
 15 17  1  0
 17 18  1  0
 17 19  1  0
 12 20  2  0
 20 21  1  0
 20  2  1  0
  1 22  1  0
  1 23  1  0
  1 24  1  0
  4 25  1  0
  4 26  1  0
  5 27  1  0
  7 28  1  0
  7 29  1  0
  7 30  1  0
  8 31  1  0
  8 32  1  0
  8 33  1  0
  9 34  1  0
  9 35  1  0
 10 36  1  0
 14 37  1  0
 14 38  1  0
 18 39  1  0
 18 40  1  0
 18 41  1  0
 19 42  1  0
 19 43  1  0
 19 44  1  0
M  END
>  <Energy>  (716) 
175.92907139778976

>  <compound_id>  (716) 
986

>  <target_id>  (716) 
1

>  <reference_id>  (716) 
104

>  <inspiration_ids>  (716) 
[75, 104]

>  <energy_score>  (716) 
80.29250397208045

>  <distance_score>  (716) 
1.6948621295751736

>  <path>  (716) 
/opt/xchem-fragalysis-2/maxwin/BulkDock/SCRATCH/505733/C986-P104/C986-P104.minimised.mol

>  <scratch_subdir>  (716) 
/opt/xchem-fragalysis-2/maxwin/BulkDock/SCRATCH/505733/C986-P104

>  <fragmenstein_runtime>  (716) 
7.573825120925903

>  <fragmenstein_outcome>  (716) 
too moved

>  <fragmenstein_mode>  (716) 
expansion

>  <fragmenstein_error>  (716) 


$$$$
C989-P75
     RDKit          3D

 40 40  0  0  0  0  0  0  0  0999 V2000
  -11.9646  -28.1823   26.8056 C   0  0  0  0  0  0  0  0  0  0  0  0
  -11.6526  -26.8008   26.2877 C   0  0  0  0  0  0  0  0  0  0  0  0
  -12.6280  -25.5409   27.0716 S   0  0  0  0  0  0  0  0  0  0  0  0
  -11.5935  -25.1134   28.4740 C   0  0  0  0  0  0  0  0  0  0  0  0
  -10.6221  -26.0146   29.1634 C   0  0  0  0  0  0  0  0  0  0  0  0
  -10.5683  -25.5734   30.5298 N   0  0  0  0  0  0  0  0  0  0  0  0
   -9.6779  -26.1870   31.4956 C   0  0  0  0  0  0  0  0  0  0  0  0
   -8.4937  -25.3028   31.3562 C   0  0  0  0  0  0  0  0  0  0  0  0
   -9.2718  -27.6246   31.1419 C   0  0  0  0  0  0  0  0  0  0  0  0
  -10.1869  -25.8727   32.9398 C   0  0  0  0  0  0  0  0  0  0  0  0
  -11.4651  -25.2417   32.9245 O   0  0  0  0  0  0  0  0  0  0  0  0
  -11.5935  -23.6562   28.6538 C   0  0  0  0  0  0  0  0  0  0  0  0
  -11.6872  -23.0326   29.9938 C   0  0  0  0  0  0  0  0  0  0  0  0
  -11.6243  -21.5587   30.0813 C   0  0  0  0  0  0  0  0  0  0  0  0
  -10.4466  -21.0857   29.6682 F   0  0  0  0  0  0  0  0  0  0  0  0
  -11.7231  -21.2424   31.3992 F   0  0  0  0  0  0  0  0  0  0  0  0
  -11.5202  -23.1310   27.4303 C   0  0  0  0  0  0  0  0  0  0  0  0
  -11.7663  -24.1432   26.3925 C   0  0  0  0  0  0  0  0  0  0  0  0
  -11.3752  -24.1863   25.2507 O   0  0  0  0  0  0  0  0  0  0  0  0
  -11.6971  -28.9354   26.0591 H   0  0  0  0  0  0  0  0  0  0  0  0
  -13.0137  -28.2902   27.0690 H   0  0  0  0  0  0  0  0  0  0  0  0
  -11.4028  -28.4123   27.7084 H   0  0  0  0  0  0  0  0  0  0  0  0
  -10.6004  -26.5820   26.4484 H   0  0  0  0  0  0  0  0  0  0  0  0
  -11.8825  -26.7710   25.2214 H   0  0  0  0  0  0  0  0  0  0  0  0
   -9.6589  -25.9323   28.6515 H   0  0  0  0  0  0  0  0  0  0  0  0
  -10.9893  -27.0311   29.0899 H   0  0  0  0  0  0  0  0  0  0  0  0
  -11.5173  -25.6099   30.9061 H   0  0  0  0  0  0  0  0  0  0  0  0
   -8.7415  -24.3032   31.7075 H   0  0  0  0  0  0  0  0  0  0  0  0
   -7.6412  -25.6089   31.9484 H   0  0  0  0  0  0  0  0  0  0  0  0
   -8.2283  -25.2874   30.3035 H   0  0  0  0  0  0  0  0  0  0  0  0
   -9.6899  -28.3787   31.7892 H   0  0  0  0  0  0  0  0  0  0  0  0
   -8.2054  -27.8023   31.2068 H   0  0  0  0  0  0  0  0  0  0  0  0
   -9.4977  -27.9093   30.1170 H   0  0  0  0  0  0  0  0  0  0  0  0
  -10.2942  -26.7398   33.5747 H   0  0  0  0  0  0  0  0  0  0  0  0
   -9.5191  -25.2070   33.4935 H   0  0  0  0  0  0  0  0  0  0  0  0
  -11.3546  -24.4034   32.4429 H   0  0  0  0  0  0  0  0  0  0  0  0
  -10.9259  -23.3857   30.6772 H   0  0  0  0  0  0  0  0  0  0  0  0
  -12.6412  -23.2806   30.4500 H   0  0  0  0  0  0  0  0  0  0  0  0
  -12.4048  -21.0731   29.5061 H   0  0  0  0  0  0  0  0  0  0  0  0
  -11.4056  -22.0925   27.1877 H   0  0  0  0  0  0  0  0  0  0  0  0
  1  2  1  0
  2  3  1  0
  3  4  2  0
  4  5  1  0
  5  6  1  0
  6  7  1  0
  7  8  1  0
  7  9  1  0
  7 10  1  0
 10 11  1  0
  4 12  1  0
 12 13  1  0
 13 14  1  0
 14 15  1  0
 14 16  1  0
 12 17  2  0
 17 18  1  0
 18 19  2  0
 18  3  1  0
  1 20  1  0
  1 21  1  0
  1 22  1  0
  2 23  1  0
  2 24  1  0
  5 25  1  0
  5 26  1  0
  6 27  1  0
  8 28  1  0
  8 29  1  0
  8 30  1  0
  9 31  1  0
  9 32  1  0
  9 33  1  0
 10 34  1  0
 10 35  1  0
 11 36  1  0
 13 37  1  0
 13 38  1  0
 14 39  1  0
 17 40  1  0
M  END
>  <Energy>  (717) 
91.713277097270023

>  <compound_id>  (717) 
989

>  <target_id>  (717) 
1

>  <reference_id>  (717) 
75

>  <inspiration_ids>  (717) 
[75, 115]

>  <energy_score>  (717) 
-62.35889188496432

>  <distance_score>  (717) 
1.4445804242783946

>  <path>  (717) 
/opt/xchem-fragalysis-2/maxwin/BulkDock/SCRATCH/505733/C989-P75/C989-P75.minimised.mol

>  <scratch_subdir>  (717) 
/opt/xchem-fragalysis-2/maxwin/BulkDock/SCRATCH/505733/C989-P75

>  <fragmenstein_runtime>  (717) 
3.161543130874634

>  <fragmenstein_outcome>  (717) 
too moved

>  <fragmenstein_mode>  (717) 
expansion

>  <fragmenstein_error>  (717) 


$$$$
C989-P115
     RDKit          3D

 40 40  0  0  0  0  0  0  0  0999 V2000
  -11.7310  -24.2472   25.3153 C   0  0  0  0  0  0  0  0  0  0  0  0
  -11.1724  -24.3294   26.6811 C   0  0  0  0  0  0  0  0  0  0  0  0
  -10.9395  -26.0395   27.2072 S   0  0  0  0  0  0  0  0  0  0  0  0
  -10.7187  -25.5495   28.9044 C   0  0  0  0  0  0  0  0  0  0  0  0
   -9.6271  -26.0196   29.7586 C   0  0  0  0  0  0  0  0  0  0  0  0
  -10.2297  -26.6563   30.9247 N   0  0  0  0  0  0  0  0  0  0  0  0
   -9.7067  -26.4047   32.2851 C   0  0  0  0  0  0  0  0  0  0  0  0
   -8.4941  -25.5338   32.3848 C   0  0  0  0  0  0  0  0  0  0  0  0
   -9.3028  -27.7854   32.8769 C   0  0  0  0  0  0  0  0  0  0  0  0
  -10.7610  -25.7190   33.2021 C   0  0  0  0  0  0  0  0  0  0  0  0
  -10.7435  -24.2951   33.1799 O   0  0  0  0  0  0  0  0  0  0  0  0
  -11.8849  -24.9392   29.4979 C   0  0  0  0  0  0  0  0  0  0  0  0
  -11.6860  -23.8967   30.5408 C   0  0  0  0  0  0  0  0  0  0  0  0
  -12.1078  -22.4881   30.1875 C   0  0  0  0  0  0  0  0  0  0  0  0
  -11.3312  -21.5956   30.8566 F   0  0  0  0  0  0  0  0  0  0  0  0
  -13.3766  -22.2740   30.6408 F   0  0  0  0  0  0  0  0  0  0  0  0
  -12.8946  -25.6545   28.9894 C   0  0  0  0  0  0  0  0  0  0  0  0
  -12.6228  -26.1987   27.6753 C   0  0  0  0  0  0  0  0  0  0  0  0
  -13.4984  -26.5664   26.9230 O   0  0  0  0  0  0  0  0  0  0  0  0
  -11.9620  -23.2192   25.0285 H   0  0  0  0  0  0  0  0  0  0  0  0
  -12.6569  -24.8232   25.2390 H   0  0  0  0  0  0  0  0  0  0  0  0
  -10.9754  -24.6373   24.6368 H   0  0  0  0  0  0  0  0  0  0  0  0
  -10.1781  -23.8946   26.7340 H   0  0  0  0  0  0  0  0  0  0  0  0
  -11.8007  -23.7312   27.3391 H   0  0  0  0  0  0  0  0  0  0  0  0
   -8.9917  -25.1628   29.9550 H   0  0  0  0  0  0  0  0  0  0  0  0
   -9.1109  -26.7470   29.1395 H   0  0  0  0  0  0  0  0  0  0  0  0
  -10.2545  -27.6585   30.7470 H   0  0  0  0  0  0  0  0  0  0  0  0
   -8.6916  -24.4629   32.3744 H   0  0  0  0  0  0  0  0  0  0  0  0
   -7.9702  -25.8216   33.2923 H   0  0  0  0  0  0  0  0  0  0  0  0
   -7.8304  -25.6970   31.5693 H   0  0  0  0  0  0  0  0  0  0  0  0
   -9.0246  -27.7024   33.9347 H   0  0  0  0  0  0  0  0  0  0  0  0
   -8.4371  -28.1968   32.3458 H   0  0  0  0  0  0  0  0  0  0  0  0
  -10.0905  -28.5376   32.8199 H   0  0  0  0  0  0  0  0  0  0  0  0
  -11.7627  -25.9905   32.8987 H   0  0  0  0  0  0  0  0  0  0  0  0
  -10.6002  -26.0114   34.2445 H   0  0  0  0  0  0  0  0  0  0  0  0
  -11.4732  -24.0085   33.7632 H   0  0  0  0  0  0  0  0  0  0  0  0
  -10.6375  -23.8667   30.8096 H   0  0  0  0  0  0  0  0  0  0  0  0
  -12.1561  -24.1802   31.4653 H   0  0  0  0  0  0  0  0  0  0  0  0
  -12.0486  -22.2471   29.1241 H   0  0  0  0  0  0  0  0  0  0  0  0
  -13.9418  -25.6452   29.2002 H   0  0  0  0  0  0  0  0  0  0  0  0
  1  2  1  0
  2  3  1  0
  3  4  2  0
  4  5  1  0
  5  6  1  0
  6  7  1  0
  7  8  1  0
  7  9  1  0
  7 10  1  0
 10 11  1  0
  4 12  1  0
 12 13  1  0
 13 14  1  0
 14 15  1  0
 14 16  1  0
 12 17  2  0
 17 18  1  0
 18 19  2  0
 18  3  1  0
  1 20  1  0
  1 21  1  0
  1 22  1  0
  2 23  1  0
  2 24  1  0
  5 25  1  0
  5 26  1  0
  6 27  1  0
  8 28  1  0
  8 29  1  0
  8 30  1  0
  9 31  1  0
  9 32  1  0
  9 33  1  0
 10 34  1  0
 10 35  1  0
 11 36  1  0
 13 37  1  0
 13 38  1  0
 14 39  1  0
 17 40  1  0
M  END
>  <Energy>  (718) 
94.732667795402847

>  <compound_id>  (718) 
989

>  <target_id>  (718) 
1

>  <reference_id>  (718) 
115

>  <inspiration_ids>  (718) 
[75, 115]

>  <energy_score>  (718) 
-59.33950118683126

>  <distance_score>  (718) 
1.8176568973382854

>  <path>  (718) 
/opt/xchem-fragalysis-2/maxwin/BulkDock/SCRATCH/505733/C989-P115/C989-P115.minimised.mol

>  <scratch_subdir>  (718) 
/opt/xchem-fragalysis-2/maxwin/BulkDock/SCRATCH/505733/C989-P115

>  <fragmenstein_runtime>  (718) 
3.185189962387085

>  <fragmenstein_outcome>  (718) 
too moved

>  <fragmenstein_mode>  (718) 
expansion

>  <fragmenstein_error>  (718) 


$$$$
C990-P75
     RDKit          3D

 32 32  0  0  0  0  0  0  0  0999 V2000
  -14.4152  -25.2053   25.6306 C   0  0  0  0  0  0  0  0  0  0  0  0
  -13.4358  -24.2259   26.0268 N   0  0  0  0  0  0  0  0  0  0  0  0
  -12.1060  -24.5754   26.4691 C   0  0  0  0  0  0  0  0  0  0  0  0
  -11.6105  -25.5404   25.5065 N   0  0  0  0  0  0  0  0  0  0  0  0
  -11.9194  -26.9329   25.7946 C   0  0  0  0  0  0  0  0  0  0  0  0
  -11.4216  -27.4826   27.1158 C   0  0  0  0  0  0  0  0  0  0  0  0
  -10.2629  -26.8264   27.6908 N   0  0  0  0  0  0  0  0  0  0  0  0
  -10.5199  -25.5233   28.3446 C   0  0  0  0  0  0  0  0  0  0  0  0
   -9.4475  -24.5504   27.8842 C   0  0  0  0  0  0  0  0  0  0  0  0
  -10.2071  -25.7926   29.8446 C   0  0  0  0  0  0  0  0  0  0  0  0
  -10.5916  -24.7604   30.7353 O   0  0  0  0  0  0  0  0  0  0  0  0
  -11.8939  -24.8351   28.0142 C   0  0  0  0  0  0  0  0  0  0  0  0
  -12.0178  -23.6091   28.7687 O   0  0  0  0  0  0  0  0  0  0  0  0
  -14.5870  -25.9521   26.4098 H   0  0  0  0  0  0  0  0  0  0  0  0
  -15.3725  -24.7079   25.4433 H   0  0  0  0  0  0  0  0  0  0  0  0
  -14.1669  -25.7020   24.6904 H   0  0  0  0  0  0  0  0  0  0  0  0
  -13.3636  -23.4582   25.3593 H   0  0  0  0  0  0  0  0  0  0  0  0
  -11.5429  -23.6533   26.2843 H   0  0  0  0  0  0  0  0  0  0  0  0
  -10.6039  -25.4241   25.4778 H   0  0  0  0  0  0  0  0  0  0  0  0
  -11.4615  -27.5468   25.0146 H   0  0  0  0  0  0  0  0  0  0  0  0
  -12.9768  -27.1644   25.6968 H   0  0  0  0  0  0  0  0  0  0  0  0
  -12.2256  -27.5149   27.8346 H   0  0  0  0  0  0  0  0  0  0  0  0
  -11.1977  -28.5341   26.9534 H   0  0  0  0  0  0  0  0  0  0  0  0
   -9.4634  -26.8016   27.0685 H   0  0  0  0  0  0  0  0  0  0  0  0
   -8.4563  -24.9546   28.0862 H   0  0  0  0  0  0  0  0  0  0  0  0
   -9.5436  -23.5773   28.3573 H   0  0  0  0  0  0  0  0  0  0  0  0
   -9.5327  -24.3573   26.8228 H   0  0  0  0  0  0  0  0  0  0  0  0
  -10.6644  -26.7218   30.1646 H   0  0  0  0  0  0  0  0  0  0  0  0
   -9.1360  -25.9317   29.9987 H   0  0  0  0  0  0  0  0  0  0  0  0
  -10.3142  -25.0550   31.6208 H   0  0  0  0  0  0  0  0  0  0  0  0
  -12.7168  -25.4593   28.3103 H   0  0  0  0  0  0  0  0  0  0  0  0
  -11.8702  -23.8767   29.7060 H   0  0  0  0  0  0  0  0  0  0  0  0
  1  2  1  0
  2  3  1  0
  3  4  1  0
  4  5  1  0
  5  6  1  0
  6  7  1  0
  7  8  1  0
  8  9  1  0
  8 10  1  0
 10 11  1  0
  8 12  1  0
 12 13  1  0
 12  3  1  0
  1 14  1  0
  1 15  1  0
  1 16  1  0
  2 17  1  0
  3 18  1  0
  4 19  1  0
  5 20  1  0
  5 21  1  0
  6 22  1  0
  6 23  1  0
  7 24  1  0
  9 25  1  0
  9 26  1  0
  9 27  1  0
 10 28  1  0
 10 29  1  0
 11 30  1  0
 12 31  1  0
 13 32  1  0
M  END
>  <Energy>  (719) 
89.900963103181397

>  <compound_id>  (719) 
990

>  <target_id>  (719) 
1

>  <reference_id>  (719) 
75

>  <inspiration_ids>  (719) 
[75, 119]

>  <energy_score>  (719) 
-21.61994569810281

>  <distance_score>  (719) 
1.7420363527015092

>  <path>  (719) 
/opt/xchem-fragalysis-2/maxwin/BulkDock/SCRATCH/505733/C990-P75/C990-P75.minimised.mol

>  <scratch_subdir>  (719) 
/opt/xchem-fragalysis-2/maxwin/BulkDock/SCRATCH/505733/C990-P75

>  <fragmenstein_runtime>  (719) 
1.2114124298095703

>  <fragmenstein_outcome>  (719) 
too moved

>  <fragmenstein_mode>  (719) 
expansion

>  <fragmenstein_error>  (719) 


$$$$
C990-P119
     RDKit          3D

 32 32  0  0  0  0  0  0  0  0999 V2000
  -14.1473  -24.9468   27.3300 C   0  0  0  0  0  0  0  0  0  0  0  0
  -13.4184  -23.7967   26.8644 N   0  0  0  0  0  0  0  0  0  0  0  0
  -12.0691  -23.5101   27.3554 C   0  0  0  0  0  0  0  0  0  0  0  0
  -11.2345  -24.0507   26.3041 N   0  0  0  0  0  0  0  0  0  0  0  0
  -11.1362  -25.4889   26.2674 C   0  0  0  0  0  0  0  0  0  0  0  0
  -10.3430  -26.2113   27.3324 C   0  0  0  0  0  0  0  0  0  0  0  0
  -10.8978  -26.0065   28.6381 N   0  0  0  0  0  0  0  0  0  0  0  0
  -10.5422  -24.7043   29.2333 C   0  0  0  0  0  0  0  0  0  0  0  0
   -9.2144  -24.0465   28.8523 C   0  0  0  0  0  0  0  0  0  0  0  0
  -10.2993  -24.9955   30.7367 C   0  0  0  0  0  0  0  0  0  0  0  0
  -10.3714  -23.8535   31.5616 O   0  0  0  0  0  0  0  0  0  0  0  0
  -11.6871  -23.7157   28.8816 C   0  0  0  0  0  0  0  0  0  0  0  0
  -11.4260  -22.4442   29.4965 O   0  0  0  0  0  0  0  0  0  0  0  0
  -14.8539  -25.2647   26.5556 H   0  0  0  0  0  0  0  0  0  0  0  0
  -14.7537  -24.6902   28.1991 H   0  0  0  0  0  0  0  0  0  0  0  0
  -13.5335  -25.8118   27.5811 H   0  0  0  0  0  0  0  0  0  0  0  0
  -13.3570  -23.7556   25.8503 H   0  0  0  0  0  0  0  0  0  0  0  0
  -11.9856  -22.4254   27.2126 H   0  0  0  0  0  0  0  0  0  0  0  0
  -10.3322  -23.5897   26.3257 H   0  0  0  0  0  0  0  0  0  0  0  0
  -10.6169  -25.7131   25.3608 H   0  0  0  0  0  0  0  0  0  0  0  0
  -12.1130  -25.9515   26.1216 H   0  0  0  0  0  0  0  0  0  0  0  0
  -10.3402  -27.2825   27.1499 H   0  0  0  0  0  0  0  0  0  0  0  0
   -9.2832  -25.9679   27.2818 H   0  0  0  0  0  0  0  0  0  0  0  0
  -10.6828  -26.7738   29.2647 H   0  0  0  0  0  0  0  0  0  0  0  0
   -8.3932  -24.7670   28.8981 H   0  0  0  0  0  0  0  0  0  0  0  0
   -8.9458  -23.2310   29.5343 H   0  0  0  0  0  0  0  0  0  0  0  0
   -9.2591  -23.5959   27.8692 H   0  0  0  0  0  0  0  0  0  0  0  0
  -10.9940  -25.7356   31.1014 H   0  0  0  0  0  0  0  0  0  0  0  0
   -9.3056  -25.4217   30.8932 H   0  0  0  0  0  0  0  0  0  0  0  0
  -10.0024  -24.1053   32.4289 H   0  0  0  0  0  0  0  0  0  0  0  0
  -12.5854  -24.0888   29.3271 H   0  0  0  0  0  0  0  0  0  0  0  0
  -11.3461  -22.6360   30.4574 H   0  0  0  0  0  0  0  0  0  0  0  0
  1  2  1  0
  2  3  1  0
  3  4  1  0
  4  5  1  0
  5  6  1  0
  6  7  1  0
  7  8  1  0
  8  9  1  0
  8 10  1  0
 10 11  1  0
  8 12  1  0
 12 13  1  0
 12  3  1  0
  1 14  1  0
  1 15  1  0
  1 16  1  0
  2 17  1  0
  3 18  1  0
  4 19  1  0
  5 20  1  0
  5 21  1  0
  6 22  1  0
  6 23  1  0
  7 24  1  0
  9 25  1  0
  9 26  1  0
  9 27  1  0
 10 28  1  0
 10 29  1  0
 11 30  1  0
 12 31  1  0
 13 32  1  0
M  END
>  <Energy>  (720) 
97.67165769815557

>  <compound_id>  (720) 
990

>  <target_id>  (720) 
1

>  <reference_id>  (720) 
119

>  <inspiration_ids>  (720) 
[75, 119]

>  <energy_score>  (720) 
-13.849251103129177

>  <distance_score>  (720) 
1.6146788744258915

>  <path>  (720) 
/opt/xchem-fragalysis-2/maxwin/BulkDock/SCRATCH/505733/C990-P119/C990-P119.minimised.mol

>  <scratch_subdir>  (720) 
/opt/xchem-fragalysis-2/maxwin/BulkDock/SCRATCH/505733/C990-P119

>  <fragmenstein_runtime>  (720) 
1.3101401329040527

>  <fragmenstein_outcome>  (720) 
too moved

>  <fragmenstein_mode>  (720) 
expansion

>  <fragmenstein_error>  (720) 


$$$$
C993-P76
     RDKit          3D

 48 48  0  0  0  0  0  0  0  0999 V2000
   11.6630   -2.0501   14.2185 C   0  0  0  0  0  0  0  0  0  0  0  0
   12.7630   -2.3391   15.1711 C   0  0  0  0  0  0  0  0  0  0  0  0
   12.6885   -3.3885   16.1410 C   0  0  0  0  0  0  0  0  0  0  0  0
   13.8388   -3.4992   16.8792 C   0  0  0  0  0  0  0  0  0  0  0  0
   15.0169   -2.3660   16.3951 S   0  0  0  0  0  0  0  0  0  0  0  0
   13.9607   -1.6372   15.2473 C   0  0  0  0  0  0  0  0  0  0  0  0
   14.3112   -0.3491   14.5010 C   0  0  0  0  0  0  0  0  0  0  0  0
   15.3003    0.4492   15.2311 N   0  0  0  0  0  0  0  0  0  0  0  0
   15.3852    1.9040   15.0302 C   0  0  0  0  0  0  0  0  0  0  0  0
   16.2319    2.3807   16.2303 C   0  0  0  0  0  0  0  0  0  0  0  0
   14.0381    2.6438   15.0923 C   0  0  0  0  0  0  0  0  0  0  0  0
   16.1349    2.2919   13.7321 C   0  0  0  0  0  0  0  0  0  0  0  0
   15.3040    2.1515   12.5901 O   0  0  0  0  0  0  0  0  0  0  0  0
   14.6495   -0.6720   13.0041 C   0  0  0  0  0  0  0  0  0  0  0  0
   13.8132   -0.5870   12.1899 O   0  0  0  0  0  0  0  0  0  0  0  0
   16.1540   -1.0354   12.8669 N   0  0  0  0  0  0  0  0  0  0  0  0
   16.9743   -1.2802   11.6661 C   0  0  0  0  0  0  0  0  0  0  0  0
   18.3111   -0.5429   11.8296 C   0  0  0  0  0  0  0  0  0  0  0  0
   16.2614   -0.7865   10.3767 C   0  0  0  0  0  0  0  0  0  0  0  0
   15.8460    0.5744   10.4707 O   0  0  0  0  0  0  0  0  0  0  0  0
   17.2121   -2.7907   11.4738 C   0  0  0  0  0  0  0  0  0  0  0  0
   18.0010   -3.0601   10.3152 O   0  0  0  0  0  0  0  0  0  0  0  0
   11.6617   -1.0175   13.8655 H   0  0  0  0  0  0  0  0  0  0  0  0
   11.7491   -2.7173   13.3570 H   0  0  0  0  0  0  0  0  0  0  0  0
   10.7015   -2.2358   14.7090 H   0  0  0  0  0  0  0  0  0  0  0  0
   11.8371   -4.0456   16.2775 H   0  0  0  0  0  0  0  0  0  0  0  0
   14.0518   -4.2006   17.6724 H   0  0  0  0  0  0  0  0  0  0  0  0
   13.3849    0.2297   14.4706 H   0  0  0  0  0  0  0  0  0  0  0  0
   16.2096    0.0086   15.2633 H   0  0  0  0  0  0  0  0  0  0  0  0
   17.2323    1.9306   16.2243 H   0  0  0  0  0  0  0  0  0  0  0  0
   15.7555    2.1278   17.1857 H   0  0  0  0  0  0  0  0  0  0  0  0
   16.3661    3.4688   16.2114 H   0  0  0  0  0  0  0  0  0  0  0  0
   14.1901    3.7282   15.0288 H   0  0  0  0  0  0  0  0  0  0  0  0
   13.3675    2.3710   14.2719 H   0  0  0  0  0  0  0  0  0  0  0  0
   13.5230    2.4522   16.0356 H   0  0  0  0  0  0  0  0  0  0  0  0
   17.0326    1.6782   13.6066 H   0  0  0  0  0  0  0  0  0  0  0  0
   16.4584    3.3383   13.7700 H   0  0  0  0  0  0  0  0  0  0  0  0
   15.8907    2.0734   11.8100 H   0  0  0  0  0  0  0  0  0  0  0  0
   16.5714   -1.0968   13.7848 H   0  0  0  0  0  0  0  0  0  0  0  0
   18.1609    0.5358   11.9396 H   0  0  0  0  0  0  0  0  0  0  0  0
   18.8437   -0.8905   12.7224 H   0  0  0  0  0  0  0  0  0  0  0  0
   18.9678   -0.6956   10.9664 H   0  0  0  0  0  0  0  0  0  0  0  0
   16.9262   -0.8577    9.5091 H   0  0  0  0  0  0  0  0  0  0  0  0
   15.3727   -1.3887   10.1568 H   0  0  0  0  0  0  0  0  0  0  0  0
   14.9710    0.5388   10.9189 H   0  0  0  0  0  0  0  0  0  0  0  0
   17.7189   -3.2212   12.3434 H   0  0  0  0  0  0  0  0  0  0  0  0
   16.2443   -3.2828   11.3431 H   0  0  0  0  0  0  0  0  0  0  0  0
   17.8106   -3.9773   10.0296 H   0  0  0  0  0  0  0  0  0  0  0  0
  1  2  1  0
  2  3  1  0
  3  4  2  0
  4  5  1  0
  5  6  1  0
  6  7  1  0
  7  8  1  0
  8  9  1  0
  9 10  1  0
  9 11  1  0
  9 12  1  0
 12 13  1  0
  7 14  1  0
 14 15  2  0
 14 16  1  0
 16 17  1  0
 17 18  1  0
 17 19  1  0
 19 20  1  0
 17 21  1  0
 21 22  1  0
  6  2  2  0
  1 23  1  0
  1 24  1  0
  1 25  1  0
  3 26  1  0
  4 27  1  0
  7 28  1  0
  8 29  1  0
 10 30  1  0
 10 31  1  0
 10 32  1  0
 11 33  1  0
 11 34  1  0
 11 35  1  0
 12 36  1  0
 12 37  1  0
 13 38  1  0
 16 39  1  0
 18 40  1  0
 18 41  1  0
 18 42  1  0
 19 43  1  0
 19 44  1  0
 20 45  1  0
 21 46  1  0
 21 47  1  0
 22 48  1  0
M  END
>  <Energy>  (721) 
140.2078711403305

>  <compound_id>  (721) 
993

>  <target_id>  (721) 
1

>  <reference_id>  (721) 
76

>  <inspiration_ids>  (721) 
[76, 4]

>  <energy_score>  (721) 
-48.79467171303787

>  <distance_score>  (721) 
1.0241431095757279

>  <path>  (721) 
/opt/xchem-fragalysis-2/maxwin/BulkDock/SCRATCH/505733/C993-P76/C993-P76.minimised.mol

>  <scratch_subdir>  (721) 
/opt/xchem-fragalysis-2/maxwin/BulkDock/SCRATCH/505733/C993-P76

>  <fragmenstein_runtime>  (721) 
3.0917205810546875

>  <fragmenstein_outcome>  (721) 
too moved

>  <fragmenstein_mode>  (721) 
expansion

>  <fragmenstein_error>  (721) 


$$$$
C993-P4
     RDKit          3D

 48 48  0  0  0  0  0  0  0  0999 V2000
   11.6741   -2.0872   14.2756 C   0  0  0  0  0  0  0  0  0  0  0  0
   12.7509   -2.3210   15.2667 C   0  0  0  0  0  0  0  0  0  0  0  0
   12.6441   -3.3132   16.2875 C   0  0  0  0  0  0  0  0  0  0  0  0
   13.7392   -3.3321   17.1107 C   0  0  0  0  0  0  0  0  0  0  0  0
   14.9444   -2.2475   16.5952 S   0  0  0  0  0  0  0  0  0  0  0  0
   13.9634   -1.6439   15.3155 C   0  0  0  0  0  0  0  0  0  0  0  0
   14.4169   -0.4984   14.4031 C   0  0  0  0  0  0  0  0  0  0  0  0
   15.5220    0.2870   15.0101 N   0  0  0  0  0  0  0  0  0  0  0  0
   15.4802    1.7642   14.8642 C   0  0  0  0  0  0  0  0  0  0  0  0
   16.5669    2.2683   15.8394 C   0  0  0  0  0  0  0  0  0  0  0  0
   14.1588    2.4256   15.2877 C   0  0  0  0  0  0  0  0  0  0  0  0
   15.8596    2.2262   13.4366 C   0  0  0  0  0  0  0  0  0  0  0  0
   14.8274    1.9352   12.5028 O   0  0  0  0  0  0  0  0  0  0  0  0
   14.7783   -1.1267   13.0093 C   0  0  0  0  0  0  0  0  0  0  0  0
   13.9520   -1.5562   12.3057 O   0  0  0  0  0  0  0  0  0  0  0  0
   16.3068   -1.0208   12.8100 N   0  0  0  0  0  0  0  0  0  0  0  0
   17.1388   -1.3392   11.6473 C   0  0  0  0  0  0  0  0  0  0  0  0
   18.5368   -0.7381   11.8473 C   0  0  0  0  0  0  0  0  0  0  0  0
   16.4725   -0.7587   10.3705 C   0  0  0  0  0  0  0  0  0  0  0  0
   16.2482    0.6512   10.4845 O   0  0  0  0  0  0  0  0  0  0  0  0
   17.2321   -2.8667   11.4467 C   0  0  0  0  0  0  0  0  0  0  0  0
   18.0199   -3.1908   10.3003 O   0  0  0  0  0  0  0  0  0  0  0  0
   11.7271   -1.0963   13.8200 H   0  0  0  0  0  0  0  0  0  0  0  0
   11.7243   -2.8504   13.4952 H   0  0  0  0  0  0  0  0  0  0  0  0
   10.7035   -2.1688   14.7770 H   0  0  0  0  0  0  0  0  0  0  0  0
   11.7975   -3.9764   16.4181 H   0  0  0  0  0  0  0  0  0  0  0  0
   13.8953   -3.9430   17.9862 H   0  0  0  0  0  0  0  0  0  0  0  0
   13.5494    0.1437   14.2331 H   0  0  0  0  0  0  0  0  0  0  0  0
   15.4957    0.0721   16.0091 H   0  0  0  0  0  0  0  0  0  0  0  0
   17.5506    1.8502   15.5928 H   0  0  0  0  0  0  0  0  0  0  0  0
   16.3389    1.9994   16.8781 H   0  0  0  0  0  0  0  0  0  0  0  0
   16.6595    3.3601   15.7982 H   0  0  0  0  0  0  0  0  0  0  0  0
   14.2576    3.5178   15.3025 H   0  0  0  0  0  0  0  0  0  0  0  0
   13.3336    2.1974   14.6095 H   0  0  0  0  0  0  0  0  0  0  0  0
   13.8819    2.1167   16.2964 H   0  0  0  0  0  0  0  0  0  0  0  0
   16.7964    1.7660   13.1050 H   0  0  0  0  0  0  0  0  0  0  0  0
   16.0150    3.3109   13.4138 H   0  0  0  0  0  0  0  0  0  0  0  0
   15.2404    1.4445   11.7555 H   0  0  0  0  0  0  0  0  0  0  0  0
   16.7179   -0.5148   13.5940 H   0  0  0  0  0  0  0  0  0  0  0  0
   18.4880    0.3416   12.0256 H   0  0  0  0  0  0  0  0  0  0  0  0
   19.0320   -1.1844   12.7175 H   0  0  0  0  0  0  0  0  0  0  0  0
   19.1770   -0.9020   10.9740 H   0  0  0  0  0  0  0  0  0  0  0  0
   17.0835   -0.9295    9.4767 H   0  0  0  0  0  0  0  0  0  0  0  0
   15.4969   -1.2214   10.1879 H   0  0  0  0  0  0  0  0  0  0  0  0
   17.0892    1.0801   10.2432 H   0  0  0  0  0  0  0  0  0  0  0  0
   17.6922   -3.3421   12.3187 H   0  0  0  0  0  0  0  0  0  0  0  0
   16.2308   -3.2892   11.3083 H   0  0  0  0  0  0  0  0  0  0  0  0
   17.6078   -3.9690    9.8647 H   0  0  0  0  0  0  0  0  0  0  0  0
  1  2  1  0
  2  3  1  0
  3  4  2  0
  4  5  1  0
  5  6  1  0
  6  7  1  0
  7  8  1  0
  8  9  1  0
  9 10  1  0
  9 11  1  0
  9 12  1  0
 12 13  1  0
  7 14  1  0
 14 15  2  0
 14 16  1  0
 16 17  1  0
 17 18  1  0
 17 19  1  0
 19 20  1  0
 17 21  1  0
 21 22  1  0
  6  2  2  0
  1 23  1  0
  1 24  1  0
  1 25  1  0
  3 26  1  0
  4 27  1  0
  7 28  1  0
  8 29  1  0
 10 30  1  0
 10 31  1  0
 10 32  1  0
 11 33  1  0
 11 34  1  0
 11 35  1  0
 12 36  1  0
 12 37  1  0
 13 38  1  0
 16 39  1  0
 18 40  1  0
 18 41  1  0
 18 42  1  0
 19 43  1  0
 19 44  1  0
 20 45  1  0
 21 46  1  0
 21 47  1  0
 22 48  1  0
M  END
>  <Energy>  (722) 
131.42065703548494

>  <compound_id>  (722) 
993

>  <target_id>  (722) 
1

>  <reference_id>  (722) 
4

>  <inspiration_ids>  (722) 
[76, 4]

>  <energy_score>  (722) 
-57.5818858178844

>  <distance_score>  (722) 
1.1135725593262384

>  <path>  (722) 
/opt/xchem-fragalysis-2/maxwin/BulkDock/SCRATCH/505733/C993-P4/C993-P4.minimised.mol

>  <scratch_subdir>  (722) 
/opt/xchem-fragalysis-2/maxwin/BulkDock/SCRATCH/505733/C993-P4

>  <fragmenstein_runtime>  (722) 
3.364103317260742

>  <fragmenstein_outcome>  (722) 
too moved

>  <fragmenstein_mode>  (722) 
expansion

>  <fragmenstein_error>  (722) 


$$$$
C994-P76
     RDKit          3D

 36 36  0  0  0  0  0  0  0  0999 V2000
   11.9901   -2.2469   14.0453 C   0  0  0  0  0  0  0  0  0  0  0  0
   12.8762   -2.4523   15.2207 C   0  0  0  0  0  0  0  0  0  0  0  0
   12.5650   -3.3958   16.2504 C   0  0  0  0  0  0  0  0  0  0  0  0
   13.5509   -3.4866   17.1992 C   0  0  0  0  0  0  0  0  0  0  0  0
   14.8534   -2.4404   16.8651 S   0  0  0  0  0  0  0  0  0  0  0  0
   14.1001   -1.8285   15.4434 C   0  0  0  0  0  0  0  0  0  0  0  0
   14.8420   -0.8327   14.5691 C   0  0  0  0  0  0  0  0  0  0  0  0
   14.2791    0.5269   14.6215 N   0  0  0  0  0  0  0  0  0  0  0  0
   13.3854    0.8547   13.4782 C   0  0  0  0  0  0  0  0  0  0  0  0
   13.9667    0.9319   12.0751 C   0  0  0  0  0  0  0  0  0  0  0  0
   13.4518    1.5410   11.1438 O   0  0  0  0  0  0  0  0  0  0  0  0
   15.0704    0.1991   11.8296 O   0  0  0  0  0  0  0  0  0  0  0  0
   15.1545    1.6365   15.0947 C   0  0  0  0  0  0  0  0  0  0  0  0
   15.8123    1.2579   16.4464 C   0  0  0  0  0  0  0  0  0  0  0  0
   14.3142    2.9099   15.3923 C   0  0  0  0  0  0  0  0  0  0  0  0
   16.2939    2.0149   14.1039 C   0  0  0  0  0  0  0  0  0  0  0  0
   15.8135    2.7559   12.9847 O   0  0  0  0  0  0  0  0  0  0  0  0
   11.3130   -1.4123   14.2363 H   0  0  0  0  0  0  0  0  0  0  0  0
   11.3836   -3.1400   13.8645 H   0  0  0  0  0  0  0  0  0  0  0  0
   12.5694   -2.0664   13.1376 H   0  0  0  0  0  0  0  0  0  0  0  0
   11.6721   -4.0087   16.2730 H   0  0  0  0  0  0  0  0  0  0  0  0
   13.5666   -4.1186   18.0756 H   0  0  0  0  0  0  0  0  0  0  0  0
   14.8107   -1.2529   13.5590 H   0  0  0  0  0  0  0  0  0  0  0  0
   15.9094   -0.8426   14.8139 H   0  0  0  0  0  0  0  0  0  0  0  0
   12.5852    0.1211   13.4213 H   0  0  0  0  0  0  0  0  0  0  0  0
   12.8675    1.8008   13.6533 H   0  0  0  0  0  0  0  0  0  0  0  0
   15.2492    0.3924   10.8871 H   0  0  0  0  0  0  0  0  0  0  0  0
   16.3309    2.1177   16.8883 H   0  0  0  0  0  0  0  0  0  0  0  0
   16.5631    0.4686   16.3428 H   0  0  0  0  0  0  0  0  0  0  0  0
   15.0644    0.9263   17.1749 H   0  0  0  0  0  0  0  0  0  0  0  0
   14.9296    3.6749   15.8820 H   0  0  0  0  0  0  0  0  0  0  0  0
   13.9067    3.3814   14.4930 H   0  0  0  0  0  0  0  0  0  0  0  0
   13.4797    2.6912   16.0648 H   0  0  0  0  0  0  0  0  0  0  0  0
   16.8199    1.1259   13.7401 H   0  0  0  0  0  0  0  0  0  0  0  0
   17.0342    2.6475   14.6080 H   0  0  0  0  0  0  0  0  0  0  0  0
   16.5872    2.9791   12.4400 H   0  0  0  0  0  0  0  0  0  0  0  0
  1  2  1  0
  2  3  1  0
  3  4  2  0
  4  5  1  0
  5  6  1  0
  6  7  1  0
  7  8  1  0
  8  9  1  0
  9 10  1  0
 10 11  2  0
 10 12  1  0
  8 13  1  0
 13 14  1  0
 13 15  1  0
 13 16  1  0
 16 17  1  0
  6  2  2  0
  1 18  1  0
  1 19  1  0
  1 20  1  0
  3 21  1  0
  4 22  1  0
  7 23  1  0
  7 24  1  0
  9 25  1  0
  9 26  1  0
 12 27  1  0
 14 28  1  0
 14 29  1  0
 14 30  1  0
 15 31  1  0
 15 32  1  0
 15 33  1  0
 16 34  1  0
 16 35  1  0
 17 36  1  0
M  END
>  <Energy>  (723) 
72.837834493228002

>  <compound_id>  (723) 
994

>  <target_id>  (723) 
1

>  <reference_id>  (723) 
76

>  <inspiration_ids>  (723) 
[76, 5]

>  <energy_score>  (723) 
-50.037996763983244

>  <distance_score>  (723) 
2.349357610830373

>  <path>  (723) 
/opt/xchem-fragalysis-2/maxwin/BulkDock/SCRATCH/505733/C994-P76/C994-P76.minimised.mol

>  <scratch_subdir>  (723) 
/opt/xchem-fragalysis-2/maxwin/BulkDock/SCRATCH/505733/C994-P76

>  <fragmenstein_runtime>  (723) 
1.9058606624603271

>  <fragmenstein_outcome>  (723) 
too moved

>  <fragmenstein_mode>  (723) 
expansion

>  <fragmenstein_error>  (723) 


$$$$
C994-P5
     RDKit          3D

 36 36  0  0  0  0  0  0  0  0999 V2000
   12.0532   -1.4249   13.9510 C   0  0  0  0  0  0  0  0  0  0  0  0
   12.7361   -2.1091   15.0801 C   0  0  0  0  0  0  0  0  0  0  0  0
   12.1222   -3.1833   15.7999 C   0  0  0  0  0  0  0  0  0  0  0  0
   12.9327   -3.6934   16.7819 C   0  0  0  0  0  0  0  0  0  0  0  0
   14.4478   -2.9242   16.8155 S   0  0  0  0  0  0  0  0  0  0  0  0
   14.0121   -1.8378   15.5541 C   0  0  0  0  0  0  0  0  0  0  0  0
   14.9916   -0.7976   15.0566 C   0  0  0  0  0  0  0  0  0  0  0  0
   15.0910    0.3450   15.9675 N   0  0  0  0  0  0  0  0  0  0  0  0
   16.1170    0.1013   17.0092 C   0  0  0  0  0  0  0  0  0  0  0  0
   15.5412    0.2942   18.4098 C   0  0  0  0  0  0  0  0  0  0  0  0
   14.3717    0.3632   18.7511 O   0  0  0  0  0  0  0  0  0  0  0  0
   16.5148    0.3596   19.3463 O   0  0  0  0  0  0  0  0  0  0  0  0
   15.0569    1.7172   15.3829 C   0  0  0  0  0  0  0  0  0  0  0  0
   15.4108    2.7918   16.4448 C   0  0  0  0  0  0  0  0  0  0  0  0
   13.5974    2.0248   14.9750 C   0  0  0  0  0  0  0  0  0  0  0  0
   16.0354    1.9270   14.1755 C   0  0  0  0  0  0  0  0  0  0  0  0
   15.4034    1.9087   12.8981 O   0  0  0  0  0  0  0  0  0  0  0  0
   11.2801   -0.7474   14.3255 H   0  0  0  0  0  0  0  0  0  0  0  0
   11.5900   -2.1853   13.3220 H   0  0  0  0  0  0  0  0  0  0  0  0
   12.7343   -0.8568   13.3157 H   0  0  0  0  0  0  0  0  0  0  0  0
   11.1350   -3.5735   15.5853 H   0  0  0  0  0  0  0  0  0  0  0  0
   12.7108   -4.4945   17.4699 H   0  0  0  0  0  0  0  0  0  0  0  0
   14.6575   -0.4757   14.0693 H   0  0  0  0  0  0  0  0  0  0  0  0
   15.9726   -1.2541   14.8663 H   0  0  0  0  0  0  0  0  0  0  0  0
   16.4988   -0.9255   16.9875 H   0  0  0  0  0  0  0  0  0  0  0  0
   16.9979    0.7345   16.8661 H   0  0  0  0  0  0  0  0  0  0  0  0
   16.0090    0.4507   20.1822 H   0  0  0  0  0  0  0  0  0  0  0  0
   16.4593    2.7592   16.7566 H   0  0  0  0  0  0  0  0  0  0  0  0
   14.7768    2.7107   17.3345 H   0  0  0  0  0  0  0  0  0  0  0  0
   15.2457    3.7995   16.0415 H   0  0  0  0  0  0  0  0  0  0  0  0
   13.5014    3.0449   14.5845 H   0  0  0  0  0  0  0  0  0  0  0  0
   13.2281    1.3466   14.2005 H   0  0  0  0  0  0  0  0  0  0  0  0
   12.9200    1.9372   15.8335 H   0  0  0  0  0  0  0  0  0  0  0  0
   16.8401    1.1828   14.1768 H   0  0  0  0  0  0  0  0  0  0  0  0
   16.5316    2.9013   14.2491 H   0  0  0  0  0  0  0  0  0  0  0  0
   15.0806    1.0084   12.7340 H   0  0  0  0  0  0  0  0  0  0  0  0
  1  2  1  0
  2  3  1  0
  3  4  2  0
  4  5  1  0
  5  6  1  0
  6  7  1  0
  7  8  1  0
  8  9  1  0
  9 10  1  0
 10 11  2  0
 10 12  1  0
  8 13  1  0
 13 14  1  0
 13 15  1  0
 13 16  1  0
 16 17  1  0
  6  2  2  0
  1 18  1  0
  1 19  1  0
  1 20  1  0
  3 21  1  0
  4 22  1  0
  7 23  1  0
  7 24  1  0
  9 25  1  0
  9 26  1  0
 12 27  1  0
 14 28  1  0
 14 29  1  0
 14 30  1  0
 15 31  1  0
 15 32  1  0
 15 33  1  0
 16 34  1  0
 16 35  1  0
 17 36  1  0
M  END
>  <Energy>  (724) 
75.60277356860253

>  <compound_id>  (724) 
994

>  <target_id>  (724) 
1

>  <reference_id>  (724) 
5

>  <inspiration_ids>  (724) 
[76, 5]

>  <energy_score>  (724) 
-47.27305768860859

>  <distance_score>  (724) 
2.431303414257001

>  <path>  (724) 
/opt/xchem-fragalysis-2/maxwin/BulkDock/SCRATCH/505733/C994-P5/C994-P5.minimised.mol

>  <scratch_subdir>  (724) 
/opt/xchem-fragalysis-2/maxwin/BulkDock/SCRATCH/505733/C994-P5

>  <fragmenstein_runtime>  (724) 
1.9304404258728027

>  <fragmenstein_outcome>  (724) 
too moved

>  <fragmenstein_mode>  (724) 
expansion

>  <fragmenstein_error>  (724) 


$$$$
C999-P76
     RDKit          3D

 36 36  0  0  0  0  0  0  0  0999 V2000
   14.4971    2.3364   14.9772 C   0  0  0  0  0  0  0  0  0  0  0  0
   15.3491    1.7964   16.1169 C   0  0  0  0  0  0  0  0  0  0  0  0
   15.9823    0.3796   15.9977 C   0  0  0  0  0  0  0  0  0  0  0  0
   16.8674    0.2626   14.7373 C   0  0  0  0  0  0  0  0  0  0  0  0
   16.9042    0.2994   17.0981 O   0  0  0  0  0  0  0  0  0  0  0  0
   14.9706   -0.7719   16.0737 C   0  0  0  0  0  0  0  0  0  0  0  0
   14.1330   -0.9073   14.9699 C   0  0  0  0  0  0  0  0  0  0  0  0
   13.2361   -1.9616   14.8560 C   0  0  0  0  0  0  0  0  0  0  0  0
   12.7248   -2.3033   13.5375 C   0  0  0  0  0  0  0  0  0  0  0  0
   11.7523   -2.9900   13.3165 O   0  0  0  0  0  0  0  0  0  0  0  0
   13.5651   -1.8094   12.6058 O   0  0  0  0  0  0  0  0  0  0  0  0
   13.0464   -2.8748   15.8798 C   0  0  0  0  0  0  0  0  0  0  0  0
   13.8902   -2.8209   16.9803 C   0  0  0  0  0  0  0  0  0  0  0  0
   13.6819   -3.8663   17.8335 O   0  0  0  0  0  0  0  0  0  0  0  0
   14.5921   -4.1077   18.8956 C   0  0  0  0  0  0  0  0  0  0  0  0
   14.8290   -1.7621   17.0889 C   0  0  0  0  0  0  0  0  0  0  0  0
   15.6471   -1.7623   18.1826 O   0  0  0  0  0  0  0  0  0  0  0  0
   15.2648   -0.7804   19.1499 C   0  0  0  0  0  0  0  0  0  0  0  0
   14.2284    3.3787   15.1807 H   0  0  0  0  0  0  0  0  0  0  0  0
   15.0361    2.3166   14.0262 H   0  0  0  0  0  0  0  0  0  0  0  0
   13.5644    1.7842   14.8663 H   0  0  0  0  0  0  0  0  0  0  0  0
   14.7641    1.8486   17.0429 H   0  0  0  0  0  0  0  0  0  0  0  0
   16.1641    2.5182   16.2724 H   0  0  0  0  0  0  0  0  0  0  0  0
   17.6412    1.0398   14.7300 H   0  0  0  0  0  0  0  0  0  0  0  0
   16.3103    0.3467   13.8003 H   0  0  0  0  0  0  0  0  0  0  0  0
   17.3963   -0.6985   14.7274 H   0  0  0  0  0  0  0  0  0  0  0  0
   17.6485    0.8978   16.9231 H   0  0  0  0  0  0  0  0  0  0  0  0
   14.2272   -0.2266   14.1271 H   0  0  0  0  0  0  0  0  0  0  0  0
   13.4539   -2.3450   11.8041 H   0  0  0  0  0  0  0  0  0  0  0  0
   12.3461   -3.6994   15.7739 H   0  0  0  0  0  0  0  0  0  0  0  0
   14.4904   -3.3606   19.6839 H   0  0  0  0  0  0  0  0  0  0  0  0
   14.3228   -5.0619   19.3571 H   0  0  0  0  0  0  0  0  0  0  0  0
   15.6211   -4.2012   18.5353 H   0  0  0  0  0  0  0  0  0  0  0  0
   14.9078    0.1547   18.7095 H   0  0  0  0  0  0  0  0  0  0  0  0
   14.4874   -1.1785   19.8066 H   0  0  0  0  0  0  0  0  0  0  0  0
   16.1412   -0.5572   19.7654 H   0  0  0  0  0  0  0  0  0  0  0  0
  1  2  1  0
  2  3  1  0
  3  4  1  0
  3  5  1  0
  3  6  1  0
  6  7  2  0
  7  8  1  0
  8  9  1  0
  9 10  2  0
  9 11  1  0
  8 12  2  0
 12 13  1  0
 13 14  1  0
 14 15  1  0
 13 16  2  0
 16 17  1  0
 17 18  1  0
 16  6  1  0
  1 19  1  0
  1 20  1  0
  1 21  1  0
  2 22  1  0
  2 23  1  0
  4 24  1  0
  4 25  1  0
  4 26  1  0
  5 27  1  0
  7 28  1  0
 11 29  1  0
 12 30  1  0
 15 31  1  0
 15 32  1  0
 15 33  1  0
 18 34  1  0
 18 35  1  0
 18 36  1  0
M  END
>  <Energy>  (725) 
62.802542371310309

>  <compound_id>  (725) 
999

>  <target_id>  (725) 
1

>  <reference_id>  (725) 
76

>  <inspiration_ids>  (725) 
[76, 20]

>  <energy_score>  (725) 
-20.130271849168253

>  <distance_score>  (725) 
1.6314421968757582

>  <path>  (725) 
/opt/xchem-fragalysis-2/maxwin/BulkDock/SCRATCH/505733/C999-P76/C999-P76.minimised.mol

>  <scratch_subdir>  (725) 
/opt/xchem-fragalysis-2/maxwin/BulkDock/SCRATCH/505733/C999-P76

>  <fragmenstein_runtime>  (725) 
1.9213252067565918

>  <fragmenstein_outcome>  (725) 
too moved

>  <fragmenstein_mode>  (725) 
expansion

>  <fragmenstein_error>  (725) 


$$$$
C999-P20
     RDKit          3D

 36 36  0  0  0  0  0  0  0  0999 V2000
   13.8015    2.7524   15.5602 C   0  0  0  0  0  0  0  0  0  0  0  0
   15.2093    2.2804   15.9213 C   0  0  0  0  0  0  0  0  0  0  0  0
   15.2788    0.8615   16.5479 C   0  0  0  0  0  0  0  0  0  0  0  0
   16.7358    0.5528   16.9268 C   0  0  0  0  0  0  0  0  0  0  0  0
   14.5380    0.9523   17.7725 O   0  0  0  0  0  0  0  0  0  0  0  0
   14.7480   -0.2568   15.6656 C   0  0  0  0  0  0  0  0  0  0  0  0
   14.8646   -0.1362   14.2722 C   0  0  0  0  0  0  0  0  0  0  0  0
   14.2833   -1.0502   13.4027 C   0  0  0  0  0  0  0  0  0  0  0  0
   14.5610   -0.9484   11.9540 C   0  0  0  0  0  0  0  0  0  0  0  0
   14.7415   -1.8669   11.1787 O   0  0  0  0  0  0  0  0  0  0  0  0
   14.6132    0.3360   11.5552 O   0  0  0  0  0  0  0  0  0  0  0  0
   13.5133   -2.0801   13.9240 C   0  0  0  0  0  0  0  0  0  0  0  0
   13.4803   -2.2816   15.3091 C   0  0  0  0  0  0  0  0  0  0  0  0
   12.8337   -3.3450   15.8625 O   0  0  0  0  0  0  0  0  0  0  0  0
   11.4626   -3.3333   15.4948 C   0  0  0  0  0  0  0  0  0  0  0  0
   14.1683   -1.4303   16.1715 C   0  0  0  0  0  0  0  0  0  0  0  0
   14.2399   -1.6668   17.5226 O   0  0  0  0  0  0  0  0  0  0  0  0
   14.7992   -2.9415   17.8503 C   0  0  0  0  0  0  0  0  0  0  0  0
   13.8396    3.7827   15.1914 H   0  0  0  0  0  0  0  0  0  0  0  0
   13.3480    2.1395   14.7770 H   0  0  0  0  0  0  0  0  0  0  0  0
   13.1413    2.7367   16.4331 H   0  0  0  0  0  0  0  0  0  0  0  0
   15.5989    3.0005   16.6547 H   0  0  0  0  0  0  0  0  0  0  0  0
   15.8602    2.3699   15.0444 H   0  0  0  0  0  0  0  0  0  0  0  0
   17.1323    1.3150   17.6077 H   0  0  0  0  0  0  0  0  0  0  0  0
   17.3844    0.5053   16.0452 H   0  0  0  0  0  0  0  0  0  0  0  0
   16.8162   -0.4026   17.4587 H   0  0  0  0  0  0  0  0  0  0  0  0
   14.4104    0.0410   18.0969 H   0  0  0  0  0  0  0  0  0  0  0  0
   15.4337    0.6840   13.8401 H   0  0  0  0  0  0  0  0  0  0  0  0
   14.8284    0.2920   10.5999 H   0  0  0  0  0  0  0  0  0  0  0  0
   13.0184   -2.7623   13.2439 H   0  0  0  0  0  0  0  0  0  0  0  0
   10.9953   -2.3626   15.6948 H   0  0  0  0  0  0  0  0  0  0  0  0
   11.3098   -3.6200   14.4510 H   0  0  0  0  0  0  0  0  0  0  0  0
   10.9917   -4.0796   16.1228 H   0  0  0  0  0  0  0  0  0  0  0  0
   15.3724   -2.8217   18.7748 H   0  0  0  0  0  0  0  0  0  0  0  0
   14.0002   -3.6622   18.0476 H   0  0  0  0  0  0  0  0  0  0  0  0
   15.4815   -3.3192   17.0800 H   0  0  0  0  0  0  0  0  0  0  0  0
  1  2  1  0
  2  3  1  0
  3  4  1  0
  3  5  1  0
  3  6  1  0
  6  7  2  0
  7  8  1  0
  8  9  1  0
  9 10  2  0
  9 11  1  0
  8 12  2  0
 12 13  1  0
 13 14  1  0
 14 15  1  0
 13 16  2  0
 16 17  1  0
 17 18  1  0
 16  6  1  0
  1 19  1  0
  1 20  1  0
  1 21  1  0
  2 22  1  0
  2 23  1  0
  4 24  1  0
  4 25  1  0
  4 26  1  0
  5 27  1  0
  7 28  1  0
 11 29  1  0
 12 30  1  0
 15 31  1  0
 15 32  1  0
 15 33  1  0
 18 34  1  0
 18 35  1  0
 18 36  1  0
M  END
>  <Energy>  (726) 
47.354549057128573

>  <compound_id>  (726) 
999

>  <target_id>  (726) 
1

>  <reference_id>  (726) 
20

>  <inspiration_ids>  (726) 
[76, 20]

>  <energy_score>  (726) 
-35.5782651633497

>  <distance_score>  (726) 
2.3906726508017933

>  <path>  (726) 
/opt/xchem-fragalysis-2/maxwin/BulkDock/SCRATCH/505733/C999-P20/C999-P20.minimised.mol

>  <scratch_subdir>  (726) 
/opt/xchem-fragalysis-2/maxwin/BulkDock/SCRATCH/505733/C999-P20

>  <fragmenstein_runtime>  (726) 
2.23565411567688

>  <fragmenstein_outcome>  (726) 
too moved

>  <fragmenstein_mode>  (726) 
expansion

>  <fragmenstein_error>  (726) 


$$$$
C1001-P76
     RDKit          3D

 61 63  0  0  0  0  0  0  0  0999 V2000
   19.1822   -4.7413   17.9760 C   0  0  0  0  0  0  0  0  0  0  0  0
   18.0021   -5.4604   17.6556 O   0  0  0  0  0  0  0  0  0  0  0  0
   16.7558   -4.8048   17.9233 C   0  0  0  0  0  0  0  0  0  0  0  0
   16.4496   -3.7151   16.8863 C   0  0  0  0  0  0  0  0  0  0  0  0
   15.0825   -2.9978   17.0923 C   0  0  0  0  0  0  0  0  0  0  0  0
   13.8807   -3.8720   16.6401 C   0  0  0  0  0  0  0  0  0  0  0  0
   12.9476   -2.9594   15.8632 C   0  0  0  0  0  0  0  0  0  0  0  0
   13.8738   -1.9833   15.1670 C   0  0  0  0  0  0  0  0  0  0  0  0
   15.0157   -1.7363   16.1581 C   0  0  0  0  0  0  0  0  0  0  0  0
   14.6752   -0.5710   16.8982 O   0  0  0  0  0  0  0  0  0  0  0  0
   15.6382    0.4802   16.8650 C   0  0  0  0  0  0  0  0  0  0  0  0
   15.7288    1.1314   15.5586 N   0  0  0  0  0  0  0  0  0  0  0  0
   16.7519    2.1920   15.5854 C   0  0  0  0  0  0  0  0  0  0  0  0
   16.3892    3.4566   16.4132 C   0  0  0  0  0  0  0  0  0  0  0  0
   14.9484    3.6187   16.6849 N   0  0  0  0  0  0  0  0  0  0  0  0
   14.6298    4.9857   17.0783 C   0  0  0  0  0  0  0  0  0  0  0  0
   14.1519    3.1809   15.5295 C   0  0  0  0  0  0  0  0  0  0  0  0
   14.4521    1.7176   15.1101 C   0  0  0  0  0  0  0  0  0  0  0  0
   14.9153   -2.6760   18.5927 C   0  0  0  0  0  0  0  0  0  0  0  0
   15.0820   -3.9026   19.4957 C   0  0  0  0  0  0  0  0  0  0  0  0
   14.6664   -3.5619   20.8160 O   0  0  0  0  0  0  0  0  0  0  0  0
   14.3488   -4.6826   21.6265 C   0  0  0  0  0  0  0  0  0  0  0  0
   16.5544   -4.3164   19.3780 C   0  0  0  0  0  0  0  0  0  0  0  0
   17.4072   -3.1749   19.5935 O   0  0  0  0  0  0  0  0  0  0  0  0
   17.5580   -2.8151   20.9612 C   0  0  0  0  0  0  0  0  0  0  0  0
   20.0303   -5.2849   17.5493 H   0  0  0  0  0  0  0  0  0  0  0  0
   19.1808   -3.7352   17.5511 H   0  0  0  0  0  0  0  0  0  0  0  0
   19.3284   -4.7069   19.0586 H   0  0  0  0  0  0  0  0  0  0  0  0
   16.0302   -5.6003   17.7668 H   0  0  0  0  0  0  0  0  0  0  0  0
   16.5122   -4.1420   15.8767 H   0  0  0  0  0  0  0  0  0  0  0  0
   17.2441   -2.9593   16.9220 H   0  0  0  0  0  0  0  0  0  0  0  0
   13.3195   -4.3299   17.4586 H   0  0  0  0  0  0  0  0  0  0  0  0
   14.2416   -4.6923   16.0247 H   0  0  0  0  0  0  0  0  0  0  0  0
   12.2831   -2.4422   16.5560 H   0  0  0  0  0  0  0  0  0  0  0  0
   12.3030   -3.4941   15.1630 H   0  0  0  0  0  0  0  0  0  0  0  0
   14.2858   -2.4078   14.2492 H   0  0  0  0  0  0  0  0  0  0  0  0
   13.3338   -1.0762   14.8845 H   0  0  0  0  0  0  0  0  0  0  0  0
   15.9497   -1.5876   15.6026 H   0  0  0  0  0  0  0  0  0  0  0  0
   15.3506    1.1809   17.6552 H   0  0  0  0  0  0  0  0  0  0  0  0
   16.6095    0.0605   17.1562 H   0  0  0  0  0  0  0  0  0  0  0  0
   16.9237    2.5042   14.5461 H   0  0  0  0  0  0  0  0  0  0  0  0
   17.7140    1.7896   15.9268 H   0  0  0  0  0  0  0  0  0  0  0  0
   16.9064    3.4013   17.3788 H   0  0  0  0  0  0  0  0  0  0  0  0
   16.7885    4.3294   15.8802 H   0  0  0  0  0  0  0  0  0  0  0  0
   13.5718    5.0702   17.3499 H   0  0  0  0  0  0  0  0  0  0  0  0
   14.8379    5.7065   16.2795 H   0  0  0  0  0  0  0  0  0  0  0  0
   15.2069    5.2752   17.9635 H   0  0  0  0  0  0  0  0  0  0  0  0
   14.3502    3.8398   14.6733 H   0  0  0  0  0  0  0  0  0  0  0  0
   13.0832    3.2638   15.7599 H   0  0  0  0  0  0  0  0  0  0  0  0
   13.6228    1.0800   15.4098 H   0  0  0  0  0  0  0  0  0  0  0  0
   14.4466    1.6843   14.0127 H   0  0  0  0  0  0  0  0  0  0  0  0
   15.5999   -1.8733   18.8939 H   0  0  0  0  0  0  0  0  0  0  0  0
   13.9451   -2.2440   18.7549 H   0  0  0  0  0  0  0  0  0  0  0  0
   14.4363   -4.7195   19.1614 H   0  0  0  0  0  0  0  0  0  0  0  0
   14.0539   -4.3186   22.6144 H   0  0  0  0  0  0  0  0  0  0  0  0
   15.2146   -5.3398   21.7429 H   0  0  0  0  0  0  0  0  0  0  0  0
   13.5086   -5.2380   21.1985 H   0  0  0  0  0  0  0  0  0  0  0  0
   16.8319   -5.1107   20.0794 H   0  0  0  0  0  0  0  0  0  0  0  0
   17.7559   -3.6917   21.5849 H   0  0  0  0  0  0  0  0  0  0  0  0
   16.6799   -2.2753   21.3213 H   0  0  0  0  0  0  0  0  0  0  0  0
   18.4144   -2.1391   21.0368 H   0  0  0  0  0  0  0  0  0  0  0  0
  1  2  1  0
  2  3  1  0
  3  4  1  0
  4  5  1  0
  5  6  1  0
  6  7  1  0
  7  8  1  0
  8  9  1  0
  9 10  1  0
 10 11  1  0
 11 12  1  0
 12 13  1  0
 13 14  1  0
 14 15  1  0
 15 16  1  0
 15 17  1  0
 17 18  1  0
  5 19  1  0
 19 20  1  0
 20 21  1  0
 21 22  1  0
 20 23  1  0
 23 24  1  0
 24 25  1  0
 23  3  1  0
  9  5  1  0
 18 12  1  0
  1 26  1  0
  1 27  1  0
  1 28  1  0
  3 29  1  0
  4 30  1  0
  4 31  1  0
  6 32  1  0
  6 33  1  0
  7 34  1  0
  7 35  1  0
  8 36  1  0
  8 37  1  0
  9 38  1  0
 11 39  1  0
 11 40  1  0
 13 41  1  0
 13 42  1  0
 14 43  1  0
 14 44  1  0
 16 45  1  0
 16 46  1  0
 16 47  1  0
 17 48  1  0
 17 49  1  0
 18 50  1  0
 18 51  1  0
 19 52  1  0
 19 53  1  0
 20 54  1  0
 22 55  1  0
 22 56  1  0
 22 57  1  0
 23 58  1  0
 25 59  1  0
 25 60  1  0
 25 61  1  0
M  END
>  <Energy>  (727) 
152.17791026894187

>  <compound_id>  (727) 
1001

>  <target_id>  (727) 
1

>  <reference_id>  (727) 
76

>  <inspiration_ids>  (727) 
[76, 27]

>  <energy_score>  (727) 
-76.56669979451686

>  <distance_score>  (727) 
2.7634894111384742

>  <path>  (727) 
/opt/xchem-fragalysis-2/maxwin/BulkDock/SCRATCH/505733/C1001-P76/C1001-P76.minimised.mol

>  <scratch_subdir>  (727) 
/opt/xchem-fragalysis-2/maxwin/BulkDock/SCRATCH/505733/C1001-P76

>  <fragmenstein_runtime>  (727) 
10.909691333770752

>  <fragmenstein_outcome>  (727) 
too moved

>  <fragmenstein_mode>  (727) 
expansion

>  <fragmenstein_error>  (727) 


$$$$
C1001-P27
     RDKit          3D

 61 63  0  0  0  0  0  0  0  0999 V2000
   18.3515   -2.8596   16.0459 C   0  0  0  0  0  0  0  0  0  0  0  0
   17.4045   -2.5193   17.0488 O   0  0  0  0  0  0  0  0  0  0  0  0
   16.7453   -3.6503   17.6246 C   0  0  0  0  0  0  0  0  0  0  0  0
   15.4953   -3.9938   16.8035 C   0  0  0  0  0  0  0  0  0  0  0  0
   14.2278   -3.1168   17.0980 C   0  0  0  0  0  0  0  0  0  0  0  0
   12.9674   -3.8813   16.6152 C   0  0  0  0  0  0  0  0  0  0  0  0
   12.1129   -2.8907   15.8526 C   0  0  0  0  0  0  0  0  0  0  0  0
   13.1072   -1.9866   15.1667 C   0  0  0  0  0  0  0  0  0  0  0  0
   14.2609   -1.8433   16.1709 C   0  0  0  0  0  0  0  0  0  0  0  0
   14.1177   -0.6051   16.8699 O   0  0  0  0  0  0  0  0  0  0  0  0
   14.6608    0.4797   16.0924 C   0  0  0  0  0  0  0  0  0  0  0  0
   14.6222    1.7609   16.7981 N   0  0  0  0  0  0  0  0  0  0  0  0
   13.2855    2.0615   17.3188 C   0  0  0  0  0  0  0  0  0  0  0  0
   12.1827    2.2590   16.2461 C   0  0  0  0  0  0  0  0  0  0  0  0
   12.6808    2.7280   14.9345 N   0  0  0  0  0  0  0  0  0  0  0  0
   11.6374    3.4242   14.1923 C   0  0  0  0  0  0  0  0  0  0  0  0
   13.8691    3.5727   15.1211 C   0  0  0  0  0  0  0  0  0  0  0  0
   15.0237    2.8548   15.8833 C   0  0  0  0  0  0  0  0  0  0  0  0
   14.0514   -2.9003   18.6263 C   0  0  0  0  0  0  0  0  0  0  0  0
   14.9507   -3.8098   19.4472 C   0  0  0  0  0  0  0  0  0  0  0  0
   14.5557   -3.9424   20.8118 O   0  0  0  0  0  0  0  0  0  0  0  0
   14.6841   -2.7946   21.6324 C   0  0  0  0  0  0  0  0  0  0  0  0
   16.4248   -3.4811   19.1452 C   0  0  0  0  0  0  0  0  0  0  0  0
   16.9482   -2.2943   19.7419 O   0  0  0  0  0  0  0  0  0  0  0  0
   16.5224   -1.0148   19.3136 C   0  0  0  0  0  0  0  0  0  0  0  0
   17.8793   -3.4085   15.2266 H   0  0  0  0  0  0  0  0  0  0  0  0
   18.7725   -1.9335   15.6454 H   0  0  0  0  0  0  0  0  0  0  0  0
   19.1649   -3.4515   16.4764 H   0  0  0  0  0  0  0  0  0  0  0  0
   17.4250   -4.5114   17.5511 H   0  0  0  0  0  0  0  0  0  0  0  0
   15.7222   -3.9668   15.7316 H   0  0  0  0  0  0  0  0  0  0  0  0
   15.2586   -5.0331   17.0169 H   0  0  0  0  0  0  0  0  0  0  0  0
   13.2622   -4.7096   15.9849 H   0  0  0  0  0  0  0  0  0  0  0  0
   12.3929   -4.3442   17.4201 H   0  0  0  0  0  0  0  0  0  0  0  0
   11.5126   -2.2944   16.5417 H   0  0  0  0  0  0  0  0  0  0  0  0
   11.4331   -3.3775   15.1477 H   0  0  0  0  0  0  0  0  0  0  0  0
   13.4674   -2.4410   14.2410 H   0  0  0  0  0  0  0  0  0  0  0  0
   12.6306   -1.0392   14.8981 H   0  0  0  0  0  0  0  0  0  0  0  0
   15.2054   -1.8197   15.6140 H   0  0  0  0  0  0  0  0  0  0  0  0
   15.7152    0.2505   15.8912 H   0  0  0  0  0  0  0  0  0  0  0  0
   14.1441    0.5275   15.1283 H   0  0  0  0  0  0  0  0  0  0  0  0
   12.9947    1.2888   18.0302 H   0  0  0  0  0  0  0  0  0  0  0  0
   13.3572    2.9824   17.9139 H   0  0  0  0  0  0  0  0  0  0  0  0
   11.4404    2.9544   16.6581 H   0  0  0  0  0  0  0  0  0  0  0  0
   11.6729    1.3027   16.0786 H   0  0  0  0  0  0  0  0  0  0  0  0
   11.2975    4.3323   14.7030 H   0  0  0  0  0  0  0  0  0  0  0  0
   10.7721    2.7690   14.0411 H   0  0  0  0  0  0  0  0  0  0  0  0
   11.9969    3.7051   13.1962 H   0  0  0  0  0  0  0  0  0  0  0  0
   13.5952    4.4805   15.6762 H   0  0  0  0  0  0  0  0  0  0  0  0
   14.2556    3.8967   14.1471 H   0  0  0  0  0  0  0  0  0  0  0  0
   15.7673    2.4930   15.1608 H   0  0  0  0  0  0  0  0  0  0  0  0
   15.5468    3.6119   16.4815 H   0  0  0  0  0  0  0  0  0  0  0  0
   13.0246   -3.1038   18.9363 H   0  0  0  0  0  0  0  0  0  0  0  0
   14.1991   -1.8567   18.8957 H   0  0  0  0  0  0  0  0  0  0  0  0
   14.7773   -4.8318   19.0880 H   0  0  0  0  0  0  0  0  0  0  0  0
   14.2191   -1.9177   21.1797 H   0  0  0  0  0  0  0  0  0  0  0  0
   15.7332   -2.6028   21.8669 H   0  0  0  0  0  0  0  0  0  0  0  0
   14.1706   -2.9991   22.5764 H   0  0  0  0  0  0  0  0  0  0  0  0
   16.9892   -4.2717   19.6587 H   0  0  0  0  0  0  0  0  0  0  0  0
   15.6923   -0.6683   19.9325 H   0  0  0  0  0  0  0  0  0  0  0  0
   16.2448   -0.9681   18.2641 H   0  0  0  0  0  0  0  0  0  0  0  0
   17.3497   -0.3171   19.4746 H   0  0  0  0  0  0  0  0  0  0  0  0
  1  2  1  0
  2  3  1  0
  3  4  1  0
  4  5  1  0
  5  6  1  0
  6  7  1  0
  7  8  1  0
  8  9  1  0
  9 10  1  0
 10 11  1  0
 11 12  1  0
 12 13  1  0
 13 14  1  0
 14 15  1  0
 15 16  1  0
 15 17  1  0
 17 18  1  0
  5 19  1  0
 19 20  1  0
 20 21  1  0
 21 22  1  0
 20 23  1  0
 23 24  1  0
 24 25  1  0
 23  3  1  0
  9  5  1  0
 18 12  1  0
  1 26  1  0
  1 27  1  0
  1 28  1  0
  3 29  1  0
  4 30  1  0
  4 31  1  0
  6 32  1  0
  6 33  1  0
  7 34  1  0
  7 35  1  0
  8 36  1  0
  8 37  1  0
  9 38  1  0
 11 39  1  0
 11 40  1  0
 13 41  1  0
 13 42  1  0
 14 43  1  0
 14 44  1  0
 16 45  1  0
 16 46  1  0
 16 47  1  0
 17 48  1  0
 17 49  1  0
 18 50  1  0
 18 51  1  0
 19 52  1  0
 19 53  1  0
 20 54  1  0
 22 55  1  0
 22 56  1  0
 22 57  1  0
 23 58  1  0
 25 59  1  0
 25 60  1  0
 25 61  1  0
M  END
>  <Energy>  (728) 
172.79537475106724

>  <compound_id>  (728) 
1001

>  <target_id>  (728) 
1

>  <reference_id>  (728) 
27

>  <inspiration_ids>  (728) 
[76, 27]

>  <energy_score>  (728) 
-55.949235312397576

>  <distance_score>  (728) 
1.9596965234911363

>  <path>  (728) 
/opt/xchem-fragalysis-2/maxwin/BulkDock/SCRATCH/505733/C1001-P27/C1001-P27.minimised.mol

>  <scratch_subdir>  (728) 
/opt/xchem-fragalysis-2/maxwin/BulkDock/SCRATCH/505733/C1001-P27

>  <fragmenstein_runtime>  (728) 
8.77356481552124

>  <fragmenstein_outcome>  (728) 
too moved

>  <fragmenstein_mode>  (728) 
expansion

>  <fragmenstein_error>  (728) 


$$$$
C1003-P76
     RDKit          3D

 46 47  0  0  0  0  0  0  0  0999 V2000
   12.5408    2.4180   11.3229 C   0  0  0  0  0  0  0  0  0  0  0  0
   13.0959    2.5718   12.6177 O   0  0  0  0  0  0  0  0  0  0  0  0
   13.7786    1.3083   12.9061 O   0  0  0  0  0  0  0  0  0  0  0  0
   15.1107    1.5769   13.0074 C   0  0  0  0  0  0  0  0  0  0  0  0
   15.6210    2.6786   12.8067 O   0  0  0  0  0  0  0  0  0  0  0  0
   15.9653    0.3482   13.3489 C   0  0  0  0  0  0  0  0  0  0  0  0
   16.9280    0.6665   14.5139 C   0  0  0  0  0  0  0  0  0  0  0  0
   16.4504    0.2266   15.9016 C   0  0  0  0  0  0  0  0  0  0  0  0
   17.1062   -0.9654   16.3405 O   0  0  0  0  0  0  0  0  0  0  0  0
   18.4004   -0.7429   16.8851 C   0  0  0  0  0  0  0  0  0  0  0  0
   14.9354    0.0154   15.9237 C   0  0  0  0  0  0  0  0  0  0  0  0
   14.2251    1.2044   15.5460 O   0  0  0  0  0  0  0  0  0  0  0  0
   14.5326    2.4145   16.2156 C   0  0  0  0  0  0  0  0  0  0  0  0
   14.4856   -1.1186   14.9397 C   0  0  0  0  0  0  0  0  0  0  0  0
   14.6080   -2.4345   15.5094 O   0  0  0  0  0  0  0  0  0  0  0  0
   13.6252   -2.8046   16.4550 C   0  0  0  0  0  0  0  0  0  0  0  0
   15.3008   -1.0472   13.5799 C   0  0  0  0  0  0  0  0  0  0  0  0
   14.4756   -1.5030   12.3617 C   0  0  0  0  0  0  0  0  0  0  0  0
   15.4849   -2.0254   11.3485 C   0  0  0  0  0  0  0  0  0  0  0  0
   16.7429   -2.2196   12.0616 N   0  0  0  0  0  0  0  0  0  0  0  0
   16.4011   -2.1308   13.4887 C   0  0  0  0  0  0  0  0  0  0  0  0
   12.0990    3.3696   11.0171 H   0  0  0  0  0  0  0  0  0  0  0  0
   13.3143    2.1387   10.6014 H   0  0  0  0  0  0  0  0  0  0  0  0
   11.7554    1.6586   11.3505 H   0  0  0  0  0  0  0  0  0  0  0  0
   16.5902    0.2932   12.4467 H   0  0  0  0  0  0  0  0  0  0  0  0
   17.1231    1.7455   14.5456 H   0  0  0  0  0  0  0  0  0  0  0  0
   17.9020    0.2159   14.2892 H   0  0  0  0  0  0  0  0  0  0  0  0
   16.7043    1.0208   16.6150 H   0  0  0  0  0  0  0  0  0  0  0  0
   19.0631   -0.2696   16.1560 H   0  0  0  0  0  0  0  0  0  0  0  0
   18.8252   -1.7115   17.1619 H   0  0  0  0  0  0  0  0  0  0  0  0
   18.3318   -0.1254   17.7858 H   0  0  0  0  0  0  0  0  0  0  0  0
   14.6529   -0.2527   16.9450 H   0  0  0  0  0  0  0  0  0  0  0  0
   15.4507    2.8542   15.8188 H   0  0  0  0  0  0  0  0  0  0  0  0
   14.6346    2.2565   17.2930 H   0  0  0  0  0  0  0  0  0  0  0  0
   13.7181    3.1218   16.0371 H   0  0  0  0  0  0  0  0  0  0  0  0
   13.4279   -0.9539   14.6917 H   0  0  0  0  0  0  0  0  0  0  0  0
   13.8318   -2.3298   17.4153 H   0  0  0  0  0  0  0  0  0  0  0  0
   12.6187   -2.5656   16.1003 H   0  0  0  0  0  0  0  0  0  0  0  0
   13.6861   -3.8864   16.6052 H   0  0  0  0  0  0  0  0  0  0  0  0
   13.8044   -2.3200   12.6540 H   0  0  0  0  0  0  0  0  0  0  0  0
   13.8515   -0.7320   11.9140 H   0  0  0  0  0  0  0  0  0  0  0  0
   15.6215   -1.3171   10.5246 H   0  0  0  0  0  0  0  0  0  0  0  0
   15.1365   -2.9704   10.9304 H   0  0  0  0  0  0  0  0  0  0  0  0
   17.4142   -1.4984   11.8126 H   0  0  0  0  0  0  0  0  0  0  0  0
   16.0489   -3.1117   13.8133 H   0  0  0  0  0  0  0  0  0  0  0  0
   17.3032   -1.9241   14.0659 H   0  0  0  0  0  0  0  0  0  0  0  0
  1  2  1  0
  2  3  1  0
  3  4  1  0
  4  5  2  0
  4  6  1  0
  6  7  1  0
  7  8  1  0
  8  9  1  0
  9 10  1  0
  8 11  1  0
 11 12  1  0
 12 13  1  0
 11 14  1  0
 14 15  1  0
 15 16  1  0
 14 17  1  0
 17 18  1  0
 18 19  1  0
 19 20  1  0
 20 21  1  0
 17  6  1  0
 21 17  1  0
  1 22  1  0
  1 23  1  0
  1 24  1  0
  6 25  1  0
  7 26  1  0
  7 27  1  0
  8 28  1  0
 10 29  1  0
 10 30  1  0
 10 31  1  0
 11 32  1  0
 13 33  1  0
 13 34  1  0
 13 35  1  0
 14 36  1  0
 16 37  1  0
 16 38  1  0
 16 39  1  0
 18 40  1  0
 18 41  1  0
 19 42  1  0
 19 43  1  0
 20 44  1  0
 21 45  1  0
 21 46  1  0
M  END
>  <Energy>  (729) 
111.02901887479406

>  <compound_id>  (729) 
1003

>  <target_id>  (729) 
1

>  <reference_id>  (729) 
76

>  <inspiration_ids>  (729) 
[76, 31]

>  <energy_score>  (729) 
-51.37714910928105

>  <distance_score>  (729) 
3.0383345993066855

>  <path>  (729) 
/opt/xchem-fragalysis-2/maxwin/BulkDock/SCRATCH/505733/C1003-P76/C1003-P76.minimised.mol

>  <scratch_subdir>  (729) 
/opt/xchem-fragalysis-2/maxwin/BulkDock/SCRATCH/505733/C1003-P76

>  <fragmenstein_runtime>  (729) 
5.950479984283447

>  <fragmenstein_outcome>  (729) 
too moved

>  <fragmenstein_mode>  (729) 
expansion

>  <fragmenstein_error>  (729) 


$$$$
C1003-P31
     RDKit          3D

 46 47  0  0  0  0  0  0  0  0999 V2000
   14.7892    4.3889   11.2750 C   0  0  0  0  0  0  0  0  0  0  0  0
   15.2612    3.3012   10.4934 O   0  0  0  0  0  0  0  0  0  0  0  0
   16.0207    2.4494   11.4094 O   0  0  0  0  0  0  0  0  0  0  0  0
   15.2483    1.3440   11.6934 C   0  0  0  0  0  0  0  0  0  0  0  0
   14.0991    1.1734   11.3094 O   0  0  0  0  0  0  0  0  0  0  0  0
   16.0901    0.3487   12.5046 C   0  0  0  0  0  0  0  0  0  0  0  0
   16.6380    0.9559   13.8162 C   0  0  0  0  0  0  0  0  0  0  0  0
   15.8725    0.5556   15.0806 C   0  0  0  0  0  0  0  0  0  0  0  0
   16.4412   -0.6111   15.6738 O   0  0  0  0  0  0  0  0  0  0  0  0
   17.5476   -0.3518   16.5246 C   0  0  0  0  0  0  0  0  0  0  0  0
   14.3896    0.3584   14.7161 C   0  0  0  0  0  0  0  0  0  0  0  0
   13.9061    1.5650   14.0950 O   0  0  0  0  0  0  0  0  0  0  0  0
   13.5836    2.6114   14.9955 C   0  0  0  0  0  0  0  0  0  0  0  0
   14.2077   -0.8699   13.7885 C   0  0  0  0  0  0  0  0  0  0  0  0
   13.9760   -2.0429   14.5992 O   0  0  0  0  0  0  0  0  0  0  0  0
   12.5834   -2.2814   14.8018 C   0  0  0  0  0  0  0  0  0  0  0  0
   15.4018   -1.0268   12.7828 C   0  0  0  0  0  0  0  0  0  0  0  0
   16.5026   -2.0433   13.1359 C   0  0  0  0  0  0  0  0  0  0  0  0
   17.1335   -2.4041   11.7954 C   0  0  0  0  0  0  0  0  0  0  0  0
   16.1325   -2.0862   10.7812 N   0  0  0  0  0  0  0  0  0  0  0  0
   14.9168   -1.7260   11.5158 C   0  0  0  0  0  0  0  0  0  0  0  0
   14.2695    5.0896   10.6166 H   0  0  0  0  0  0  0  0  0  0  0  0
   14.0884    4.0338   12.0351 H   0  0  0  0  0  0  0  0  0  0  0  0
   15.6290    4.9050   11.7493 H   0  0  0  0  0  0  0  0  0  0  0  0
   16.9633    0.1990   11.8547 H   0  0  0  0  0  0  0  0  0  0  0  0
   16.6340    2.0508   13.7480 H   0  0  0  0  0  0  0  0  0  0  0  0
   17.6926    0.6712   13.9095 H   0  0  0  0  0  0  0  0  0  0  0  0
   15.9750    1.3885   15.7856 H   0  0  0  0  0  0  0  0  0  0  0  0
   18.3693    0.1125   15.9731 H   0  0  0  0  0  0  0  0  0  0  0  0
   17.8990   -1.3057   16.9272 H   0  0  0  0  0  0  0  0  0  0  0  0
   17.2535    0.2883   17.3614 H   0  0  0  0  0  0  0  0  0  0  0  0
   13.7438    0.1593   15.5589 H   0  0  0  0  0  0  0  0  0  0  0  0
   12.7246    2.3290   15.6058 H   0  0  0  0  0  0  0  0  0  0  0  0
   13.3016    3.4892   14.4077 H   0  0  0  0  0  0  0  0  0  0  0  0
   14.4306    2.8854   15.6277 H   0  0  0  0  0  0  0  0  0  0  0  0
   13.3088   -0.6833   13.1830 H   0  0  0  0  0  0  0  0  0  0  0  0
   12.1240   -2.6151   13.8663 H   0  0  0  0  0  0  0  0  0  0  0  0
   12.4730   -3.0713   15.5496 H   0  0  0  0  0  0  0  0  0  0  0  0
   12.0711   -1.3862   15.1634 H   0  0  0  0  0  0  0  0  0  0  0  0
   17.2843   -1.6752   13.8008 H   0  0  0  0  0  0  0  0  0  0  0  0
   16.0760   -2.9330   13.6063 H   0  0  0  0  0  0  0  0  0  0  0  0
   17.4428   -3.4488   11.7444 H   0  0  0  0  0  0  0  0  0  0  0  0
   18.0360   -1.8066   11.6207 H   0  0  0  0  0  0  0  0  0  0  0  0
   16.4406   -1.2949   10.2216 H   0  0  0  0  0  0  0  0  0  0  0  0
   14.3667   -2.6435   11.7582 H   0  0  0  0  0  0  0  0  0  0  0  0
   14.2685   -1.1203   10.8914 H   0  0  0  0  0  0  0  0  0  0  0  0
  1  2  1  0
  2  3  1  0
  3  4  1  0
  4  5  2  0
  4  6  1  0
  6  7  1  0
  7  8  1  0
  8  9  1  0
  9 10  1  0
  8 11  1  0
 11 12  1  0
 12 13  1  0
 11 14  1  0
 14 15  1  0
 15 16  1  0
 14 17  1  0
 17 18  1  0
 18 19  1  0
 19 20  1  0
 20 21  1  0
 17  6  1  0
 21 17  1  0
  1 22  1  0
  1 23  1  0
  1 24  1  0
  6 25  1  0
  7 26  1  0
  7 27  1  0
  8 28  1  0
 10 29  1  0
 10 30  1  0
 10 31  1  0
 11 32  1  0
 13 33  1  0
 13 34  1  0
 13 35  1  0
 14 36  1  0
 16 37  1  0
 16 38  1  0
 16 39  1  0
 18 40  1  0
 18 41  1  0
 19 42  1  0
 19 43  1  0
 20 44  1  0
 21 45  1  0
 21 46  1  0
M  END
>  <Energy>  (730) 
108.28034095369304

>  <compound_id>  (730) 
1003

>  <target_id>  (730) 
1

>  <reference_id>  (730) 
31

>  <inspiration_ids>  (730) 
[76, 31]

>  <energy_score>  (730) 
-54.12582703038447

>  <distance_score>  (730) 
3.194710752689173

>  <path>  (730) 
/opt/xchem-fragalysis-2/maxwin/BulkDock/SCRATCH/505733/C1003-P31/C1003-P31.minimised.mol

>  <scratch_subdir>  (730) 
/opt/xchem-fragalysis-2/maxwin/BulkDock/SCRATCH/505733/C1003-P31

>  <fragmenstein_runtime>  (730) 
5.714761257171631

>  <fragmenstein_outcome>  (730) 
too moved

>  <fragmenstein_mode>  (730) 
expansion

>  <fragmenstein_error>  (730) 


$$$$
C1004-P76
     RDKit          3D

 44 45  0  0  0  0  0  0  0  0999 V2000
   18.7393    0.6178   13.2755 C   0  0  0  0  0  0  0  0  0  0  0  0
   18.6861    0.3800   14.6758 O   0  0  0  0  0  0  0  0  0  0  0  0
   17.4786   -0.2321   15.1747 C   0  0  0  0  0  0  0  0  0  0  0  0
   17.3145   -1.6953   14.6845 C   0  0  0  0  0  0  0  0  0  0  0  0
   15.9290   -2.1219   14.1714 C   0  0  0  0  0  0  0  0  0  0  0  0
   15.9540   -1.8975   12.6394 C   0  0  0  0  0  0  0  0  0  0  0  0
   16.4094   -0.8993   12.0961 O   0  0  0  0  0  0  0  0  0  0  0  0
   15.4538   -2.8862   11.8844 O   0  0  0  0  0  0  0  0  0  0  0  0
   14.7932   -1.3624   14.9601 C   0  0  0  0  0  0  0  0  0  0  0  0
   13.3636   -1.8722   14.6201 C   0  0  0  0  0  0  0  0  0  0  0  0
   12.7847   -2.8712   15.6300 C   0  0  0  0  0  0  0  0  0  0  0  0
   13.7952   -3.7071   16.1711 O   0  0  0  0  0  0  0  0  0  0  0  0
   14.6933   -2.9909   16.9990 C   0  0  0  0  0  0  0  0  0  0  0  0
   14.9969   -1.5817   16.4962 C   0  0  0  0  0  0  0  0  0  0  0  0
   15.0058    0.1420   14.5190 C   0  0  0  0  0  0  0  0  0  0  0  0
   13.8999    1.0077   14.7572 O   0  0  0  0  0  0  0  0  0  0  0  0
   13.9019    2.1663   13.9159 C   0  0  0  0  0  0  0  0  0  0  0  0
   16.2699    0.7447   15.1362 C   0  0  0  0  0  0  0  0  0  0  0  0
   15.8973    1.1680   16.4780 O   0  0  0  0  0  0  0  0  0  0  0  0
   16.7495    2.1896   16.9835 C   0  0  0  0  0  0  0  0  0  0  0  0
   17.8599    1.1574   12.9176 H   0  0  0  0  0  0  0  0  0  0  0  0
   18.8675   -0.3176   12.7268 H   0  0  0  0  0  0  0  0  0  0  0  0
   19.6185    1.2374   13.0765 H   0  0  0  0  0  0  0  0  0  0  0  0
   17.7388   -0.3407   16.2356 H   0  0  0  0  0  0  0  0  0  0  0  0
   18.0906   -1.9518   13.9536 H   0  0  0  0  0  0  0  0  0  0  0  0
   17.5574   -2.3456   15.5383 H   0  0  0  0  0  0  0  0  0  0  0  0
   15.8535   -3.1983   14.3468 H   0  0  0  0  0  0  0  0  0  0  0  0
   15.4048   -3.7491   12.3481 H   0  0  0  0  0  0  0  0  0  0  0  0
   12.6494   -1.0464   14.5439 H   0  0  0  0  0  0  0  0  0  0  0  0
   13.3643   -2.3202   13.6207 H   0  0  0  0  0  0  0  0  0  0  0  0
   12.2538   -2.3744   16.4428 H   0  0  0  0  0  0  0  0  0  0  0  0
   12.0367   -3.4957   15.1327 H   0  0  0  0  0  0  0  0  0  0  0  0
   14.2888   -2.9533   18.0166 H   0  0  0  0  0  0  0  0  0  0  0  0
   15.6170   -3.5776   17.0474 H   0  0  0  0  0  0  0  0  0  0  0  0
   15.9950   -1.3455   16.8634 H   0  0  0  0  0  0  0  0  0  0  0  0
   14.3765   -0.8723   17.0361 H   0  0  0  0  0  0  0  0  0  0  0  0
   15.1045    0.1612   13.4386 H   0  0  0  0  0  0  0  0  0  0  0  0
   13.8900    1.8802   12.8598 H   0  0  0  0  0  0  0  0  0  0  0  0
   14.7557    2.8129   14.1308 H   0  0  0  0  0  0  0  0  0  0  0  0
   12.9911    2.7339   14.1254 H   0  0  0  0  0  0  0  0  0  0  0  0
   16.5346    1.6537   14.5864 H   0  0  0  0  0  0  0  0  0  0  0  0
   16.6762    3.0880   16.3632 H   0  0  0  0  0  0  0  0  0  0  0  0
   16.4167    2.4402   17.9943 H   0  0  0  0  0  0  0  0  0  0  0  0
   17.7876    1.8509   17.0351 H   0  0  0  0  0  0  0  0  0  0  0  0
  1  2  1  0
  2  3  1  0
  3  4  1  0
  4  5  1  0
  5  6  1  0
  6  7  2  0
  6  8  1  0
  5  9  1  0
  9 10  1  0
 10 11  1  0
 11 12  1  0
 12 13  1  0
 13 14  1  0
  9 15  1  0
 15 16  1  0
 16 17  1  0
 15 18  1  0
 18 19  1  0
 19 20  1  0
 18  3  1  0
 14  9  1  0
  1 21  1  0
  1 22  1  0
  1 23  1  0
  3 24  1  0
  4 25  1  0
  4 26  1  0
  5 27  1  0
  8 28  1  0
 10 29  1  0
 10 30  1  0
 11 31  1  0
 11 32  1  0
 13 33  1  0
 13 34  1  0
 14 35  1  0
 14 36  1  0
 15 37  1  0
 17 38  1  0
 17 39  1  0
 17 40  1  0
 18 41  1  0
 20 42  1  0
 20 43  1  0
 20 44  1  0
M  END
>  <Energy>  (731) 
93.120848608314759

>  <compound_id>  (731) 
1004

>  <target_id>  (731) 
1

>  <reference_id>  (731) 
76

>  <inspiration_ids>  (731) 
[76, 36]

>  <energy_score>  (731) 
-48.154495607569345

>  <distance_score>  (731) 
3.384673498036144

>  <path>  (731) 
/opt/xchem-fragalysis-2/maxwin/BulkDock/SCRATCH/505733/C1004-P76/C1004-P76.minimised.mol

>  <scratch_subdir>  (731) 
/opt/xchem-fragalysis-2/maxwin/BulkDock/SCRATCH/505733/C1004-P76

>  <fragmenstein_runtime>  (731) 
2.7582192420959473

>  <fragmenstein_outcome>  (731) 
too moved

>  <fragmenstein_mode>  (731) 
expansion

>  <fragmenstein_error>  (731) 


$$$$
C1004-P36
     RDKit          3D

 44 45  0  0  0  0  0  0  0  0999 V2000
   18.9022   -0.3818   14.7156 C   0  0  0  0  0  0  0  0  0  0  0  0
   17.5293   -0.0332   14.5822 O   0  0  0  0  0  0  0  0  0  0  0  0
   16.7562   -0.2763   15.7706 C   0  0  0  0  0  0  0  0  0  0  0  0
   16.3238   -1.7577   15.8324 C   0  0  0  0  0  0  0  0  0  0  0  0
   15.1720   -2.1376   14.8661 C   0  0  0  0  0  0  0  0  0  0  0  0
   15.7514   -2.2707   13.4554 C   0  0  0  0  0  0  0  0  0  0  0  0
   16.9153   -2.4972   13.1633 O   0  0  0  0  0  0  0  0  0  0  0  0
   14.8368   -2.2164   12.4753 O   0  0  0  0  0  0  0  0  0  0  0  0
   13.9480   -1.1656   15.0935 C   0  0  0  0  0  0  0  0  0  0  0  0
   13.4753   -1.3528   16.5762 C   0  0  0  0  0  0  0  0  0  0  0  0
   12.9056   -2.7465   16.8052 C   0  0  0  0  0  0  0  0  0  0  0  0
   11.6900   -2.8508   16.0971 O   0  0  0  0  0  0  0  0  0  0  0  0
   11.8264   -2.6351   14.6977 C   0  0  0  0  0  0  0  0  0  0  0  0
   12.6405   -1.4059   14.2903 C   0  0  0  0  0  0  0  0  0  0  0  0
   14.5530    0.2519   14.7027 C   0  0  0  0  0  0  0  0  0  0  0  0
   13.5981    1.2814   14.4269 O   0  0  0  0  0  0  0  0  0  0  0  0
   14.0639    2.2238   13.4541 C   0  0  0  0  0  0  0  0  0  0  0  0
   15.5887    0.7348   15.7320 C   0  0  0  0  0  0  0  0  0  0  0  0
   15.0471    0.9079   17.0480 O   0  0  0  0  0  0  0  0  0  0  0  0
   14.2339    2.0636   17.2064 C   0  0  0  0  0  0  0  0  0  0  0  0
   19.3710    0.2162   15.5029 H   0  0  0  0  0  0  0  0  0  0  0  0
   19.4026   -0.1592   13.7692 H   0  0  0  0  0  0  0  0  0  0  0  0
   19.0269   -1.4462   14.9283 H   0  0  0  0  0  0  0  0  0  0  0  0
   17.3749   -0.0563   16.6508 H   0  0  0  0  0  0  0  0  0  0  0  0
   17.1865   -2.4036   15.6314 H   0  0  0  0  0  0  0  0  0  0  0  0
   16.0449   -2.0023   16.8623 H   0  0  0  0  0  0  0  0  0  0  0  0
   14.8944   -3.1606   15.1192 H   0  0  0  0  0  0  0  0  0  0  0  0
   15.3541   -2.5132   11.6973 H   0  0  0  0  0  0  0  0  0  0  0  0
   14.2613   -1.2066   17.3149 H   0  0  0  0  0  0  0  0  0  0  0  0
   12.7032   -0.6037   16.7938 H   0  0  0  0  0  0  0  0  0  0  0  0
   12.6955   -2.8987   17.8641 H   0  0  0  0  0  0  0  0  0  0  0  0
   13.5699   -3.5672   16.5277 H   0  0  0  0  0  0  0  0  0  0  0  0
   12.2422   -3.5232   14.2514 H   0  0  0  0  0  0  0  0  0  0  0  0
   10.8139   -2.5517   14.3045 H   0  0  0  0  0  0  0  0  0  0  0  0
   11.9771   -0.5483   14.4721 H   0  0  0  0  0  0  0  0  0  0  0  0
   12.8063   -1.4094   13.2124 H   0  0  0  0  0  0  0  0  0  0  0  0
   15.0770    0.1075   13.7501 H   0  0  0  0  0  0  0  0  0  0  0  0
   14.2274    1.7282   12.4923 H   0  0  0  0  0  0  0  0  0  0  0  0
   14.9764    2.7239   13.7869 H   0  0  0  0  0  0  0  0  0  0  0  0
   13.2850    2.9799   13.3226 H   0  0  0  0  0  0  0  0  0  0  0  0
   16.0024    1.7019   15.4217 H   0  0  0  0  0  0  0  0  0  0  0  0
   13.2492    1.9108   16.7599 H   0  0  0  0  0  0  0  0  0  0  0  0
   14.0872    2.2258   18.2782 H   0  0  0  0  0  0  0  0  0  0  0  0
   14.7158    2.9514   16.7867 H   0  0  0  0  0  0  0  0  0  0  0  0
  1  2  1  0
  2  3  1  0
  3  4  1  0
  4  5  1  0
  5  6  1  0
  6  7  2  0
  6  8  1  0
  5  9  1  0
  9 10  1  0
 10 11  1  0
 11 12  1  0
 12 13  1  0
 13 14  1  0
  9 15  1  0
 15 16  1  0
 16 17  1  0
 15 18  1  0
 18 19  1  0
 19 20  1  0
 18  3  1  0
 14  9  1  0
  1 21  1  0
  1 22  1  0
  1 23  1  0
  3 24  1  0
  4 25  1  0
  4 26  1  0
  5 27  1  0
  8 28  1  0
 10 29  1  0
 10 30  1  0
 11 31  1  0
 11 32  1  0
 13 33  1  0
 13 34  1  0
 14 35  1  0
 14 36  1  0
 15 37  1  0
 17 38  1  0
 17 39  1  0
 17 40  1  0
 18 41  1  0
 20 42  1  0
 20 43  1  0
 20 44  1  0
M  END
>  <Energy>  (732) 
76.016212532307748

>  <compound_id>  (732) 
1004

>  <target_id>  (732) 
1

>  <reference_id>  (732) 
36

>  <inspiration_ids>  (732) 
[76, 36]

>  <energy_score>  (732) 
-65.2591316835767

>  <distance_score>  (732) 
2.6770274527290985

>  <path>  (732) 
/opt/xchem-fragalysis-2/maxwin/BulkDock/SCRATCH/505733/C1004-P36/C1004-P36.minimised.mol

>  <scratch_subdir>  (732) 
/opt/xchem-fragalysis-2/maxwin/BulkDock/SCRATCH/505733/C1004-P36

>  <fragmenstein_runtime>  (732) 
2.7526533603668213

>  <fragmenstein_outcome>  (732) 
too moved

>  <fragmenstein_mode>  (732) 
expansion

>  <fragmenstein_error>  (732) 


$$$$
C1005-P76
     RDKit          3D

 57 60  0  0  0  0  0  0  0  0999 V2000
   15.9004    2.4758   11.8677 C   0  0  0  0  0  0  0  0  0  0  0  0
   16.7964    1.9911   12.9907 C   0  0  0  0  0  0  0  0  0  0  0  0
   15.9097    1.1585   14.2668 S   0  0  0  0  0  0  0  0  0  0  0  0
   16.8217    0.7640   15.3139 O   0  0  0  0  0  0  0  0  0  0  0  0
   14.6132    1.8959   14.4989 N   0  0  0  0  0  0  0  0  0  0  0  0
   13.9726    1.4972   15.7064 C   0  0  0  0  0  0  0  0  0  0  0  0
   13.2236    2.6480   16.1456 N   0  0  0  0  0  0  0  0  0  0  0  0
   14.1073    3.6137   16.6785 C   0  0  0  0  0  0  0  0  0  0  0  0
   14.6055    4.6178   15.8410 C   0  0  0  0  0  0  0  0  0  0  0  0
   13.6188    5.2167   14.3241 Br  0  0  0  0  0  0  0  0  0  0  0  0
   15.8622    5.1557   16.0902 C   0  0  0  0  0  0  0  0  0  0  0  0
   16.4374    6.0866   15.2684 O   0  0  0  0  0  0  0  0  0  0  0  0
   16.6069    4.7402   17.1844 C   0  0  0  0  0  0  0  0  0  0  0  0
   16.0419    3.8740   18.1086 C   0  0  0  0  0  0  0  0  0  0  0  0
   14.7718    3.3688   17.8860 C   0  0  0  0  0  0  0  0  0  0  0  0
   14.1339    2.6746   19.0004 C   0  0  0  0  0  0  0  0  0  0  0  0
   12.9519    2.7674   19.2845 O   0  0  0  0  0  0  0  0  0  0  0  0
   15.0268    1.9787   19.7291 O   0  0  0  0  0  0  0  0  0  0  0  0
   16.1447    2.7566   20.1780 C   0  0  0  0  0  0  0  0  0  0  0  0
   15.7203    3.6339   21.3612 C   0  0  0  0  0  0  0  0  0  0  0  0
   17.1963    1.7490   20.6467 C   0  0  0  0  0  0  0  0  0  0  0  0
   16.7887    3.5857   19.2049 O   0  0  0  0  0  0  0  0  0  0  0  0
   15.2723   -0.2492   13.6444 N   0  0  0  0  0  0  0  0  0  0  0  0
   15.5739   -1.5604   14.1480 C   0  0  0  0  0  0  0  0  0  0  0  0
   14.7732   -2.0314   15.3378 C   0  0  0  0  0  0  0  0  0  0  0  0
   13.4096   -2.3914   15.2105 C   0  0  0  0  0  0  0  0  0  0  0  0
   12.7882   -3.1663   16.1980 C   0  0  0  0  0  0  0  0  0  0  0  0
   13.5301   -3.4949   17.3150 C   0  0  0  0  0  0  0  0  0  0  0  0
   14.8106   -3.0349   17.4992 C   0  0  0  0  0  0  0  0  0  0  0  0
   15.4565   -2.3075   16.5322 C   0  0  0  0  0  0  0  0  0  0  0  0
   15.3513   -3.4264   18.6831 O   0  0  0  0  0  0  0  0  0  0  0  0
   14.2316   -4.1108   19.2725 C   0  0  0  0  0  0  0  0  0  0  0  0
   13.1382   -4.2859   18.3483 O   0  0  0  0  0  0  0  0  0  0  0  0
   15.3299    1.6527   11.4261 H   0  0  0  0  0  0  0  0  0  0  0  0
   16.5061    2.9283   11.0761 H   0  0  0  0  0  0  0  0  0  0  0  0
   15.1912    3.2335   12.2118 H   0  0  0  0  0  0  0  0  0  0  0  0
   17.5519    1.2959   12.6115 H   0  0  0  0  0  0  0  0  0  0  0  0
   17.3157    2.8358   13.4547 H   0  0  0  0  0  0  0  0  0  0  0  0
   13.3396    0.6476   15.4612 H   0  0  0  0  0  0  0  0  0  0  0  0
   14.6492    1.1397   16.4933 H   0  0  0  0  0  0  0  0  0  0  0  0
   12.7397    2.9973   15.3197 H   0  0  0  0  0  0  0  0  0  0  0  0
   15.8031    6.2686   14.5499 H   0  0  0  0  0  0  0  0  0  0  0  0
   17.6009    5.1472   17.3500 H   0  0  0  0  0  0  0  0  0  0  0  0
   15.2440    3.0387   22.1474 H   0  0  0  0  0  0  0  0  0  0  0  0
   16.5756    4.1726   21.7831 H   0  0  0  0  0  0  0  0  0  0  0  0
   14.9948    4.3919   21.0447 H   0  0  0  0  0  0  0  0  0  0  0  0
   16.7982    1.0848   21.4215 H   0  0  0  0  0  0  0  0  0  0  0  0
   17.5126    1.1149   19.8098 H   0  0  0  0  0  0  0  0  0  0  0  0
   18.0924    2.2506   21.0276 H   0  0  0  0  0  0  0  0  0  0  0  0
   14.2815   -0.1087   13.4942 H   0  0  0  0  0  0  0  0  0  0  0  0
   15.3931   -2.2784   13.3375 H   0  0  0  0  0  0  0  0  0  0  0  0
   16.6494   -1.6528   14.3454 H   0  0  0  0  0  0  0  0  0  0  0  0
   12.8677   -2.1779   14.2895 H   0  0  0  0  0  0  0  0  0  0  0  0
   11.7777   -3.5374   16.0689 H   0  0  0  0  0  0  0  0  0  0  0  0
   16.4965   -2.0237   16.6687 H   0  0  0  0  0  0  0  0  0  0  0  0
   14.5643   -5.0964   19.6151 H   0  0  0  0  0  0  0  0  0  0  0  0
   13.8792   -3.5418   20.1411 H   0  0  0  0  0  0  0  0  0  0  0  0
  1  2  1  0
  2  3  1  0
  3  4  2  0
  3  5  2  0
  5  6  1  0
  6  7  1  0
  7  8  1  0
  8  9  2  0
  9 10  1  0
  9 11  1  0
 11 12  1  0
 11 13  2  0
 13 14  1  0
 14 15  2  0
 15 16  1  0
 16 17  2  0
 16 18  1  0
 18 19  1  0
 19 20  1  0
 19 21  1  0
 19 22  1  0
  3 23  1  0
 23 24  1  0
 24 25  1  0
 25 26  2  0
 26 27  1  0
 27 28  2  0
 28 29  1  0
 29 30  2  0
 29 31  1  0
 31 32  1  0
 32 33  1  0
 15  8  1  0
 30 25  1  0
 22 14  1  0
 33 28  1  0
  1 34  1  0
  1 35  1  0
  1 36  1  0
  2 37  1  0
  2 38  1  0
  6 39  1  0
  6 40  1  0
  7 41  1  0
 12 42  1  0
 13 43  1  0
 20 44  1  0
 20 45  1  0
 20 46  1  0
 21 47  1  0
 21 48  1  0
 21 49  1  0
 23 50  1  0
 24 51  1  0
 24 52  1  0
 26 53  1  0
 27 54  1  0
 30 55  1  0
 32 56  1  0
 32 57  1  0
M  END
>  <Energy>  (733) 
-86.859572505445058

>  <compound_id>  (733) 
1005

>  <target_id>  (733) 
1

>  <reference_id>  (733) 
76

>  <inspiration_ids>  (733) 
[76, 55]

>  <energy_score>  (733) 
-71.36754673650793

>  <distance_score>  (733) 
2.3974194820170585

>  <path>  (733) 
/opt/xchem-fragalysis-2/maxwin/BulkDock/SCRATCH/505733/C1005-P76/C1005-P76.minimised.mol

>  <scratch_subdir>  (733) 
/opt/xchem-fragalysis-2/maxwin/BulkDock/SCRATCH/505733/C1005-P76

>  <fragmenstein_runtime>  (733) 
2.7898027896881104

>  <fragmenstein_outcome>  (733) 
too moved

>  <fragmenstein_mode>  (733) 
expansion

>  <fragmenstein_error>  (733) 


$$$$
C1005-P55
     RDKit          3D

 57 60  0  0  0  0  0  0  0  0999 V2000
   16.5692    2.1256   12.8107 C   0  0  0  0  0  0  0  0  0  0  0  0
   16.5647    1.4837   14.1890 C   0  0  0  0  0  0  0  0  0  0  0  0
   14.9290    1.0646   14.6993 S   0  0  0  0  0  0  0  0  0  0  0  0
   14.0906    2.1635   14.2984 O   0  0  0  0  0  0  0  0  0  0  0  0
   14.9194    0.4379   16.0850 N   0  0  0  0  0  0  0  0  0  0  0  0
   13.5927    0.0812   16.5801 C   0  0  0  0  0  0  0  0  0  0  0  0
   13.2542    0.8434   17.7441 N   0  0  0  0  0  0  0  0  0  0  0  0
   13.6310    2.2005   17.6534 C   0  0  0  0  0  0  0  0  0  0  0  0
   12.9524    3.1245   16.8388 C   0  0  0  0  0  0  0  0  0  0  0  0
   11.2541    2.7359   16.0520 Br  0  0  0  0  0  0  0  0  0  0  0  0
   13.5570    4.3486   16.5372 C   0  0  0  0  0  0  0  0  0  0  0  0
   12.9765    5.2677   15.7039 O   0  0  0  0  0  0  0  0  0  0  0  0
   14.8025    4.6783   17.0528 C   0  0  0  0  0  0  0  0  0  0  0  0
   15.4356    3.8062   17.9263 C   0  0  0  0  0  0  0  0  0  0  0  0
   14.8604    2.5798   18.2253 C   0  0  0  0  0  0  0  0  0  0  0  0
   15.5977    1.6494   19.1107 C   0  0  0  0  0  0  0  0  0  0  0  0
   15.1916    0.5365   19.4233 O   0  0  0  0  0  0  0  0  0  0  0  0
   16.7624    2.1262   19.6056 O   0  0  0  0  0  0  0  0  0  0  0  0
   16.9662    3.5423   19.6456 C   0  0  0  0  0  0  0  0  0  0  0  0
   18.4738    3.7419   19.8222 C   0  0  0  0  0  0  0  0  0  0  0  0
   16.2408    4.1495   20.8538 C   0  0  0  0  0  0  0  0  0  0  0  0
   16.6184    4.2296   18.4471 O   0  0  0  0  0  0  0  0  0  0  0  0
   14.3594   -0.1923   13.7388 N   0  0  0  0  0  0  0  0  0  0  0  0
   14.9246   -1.5275   13.8009 C   0  0  0  0  0  0  0  0  0  0  0  0
   14.3974   -2.3455   14.9555 C   0  0  0  0  0  0  0  0  0  0  0  0
   13.0116   -2.6528   15.0571 C   0  0  0  0  0  0  0  0  0  0  0  0
   12.5281   -3.4018   16.1357 C   0  0  0  0  0  0  0  0  0  0  0  0
   13.4315   -3.7767   17.1107 C   0  0  0  0  0  0  0  0  0  0  0  0
   14.7712   -3.4782   17.0228 C   0  0  0  0  0  0  0  0  0  0  0  0
   15.2876   -2.7942   15.9500 C   0  0  0  0  0  0  0  0  0  0  0  0
   15.4740   -3.8914   18.1121 O   0  0  0  0  0  0  0  0  0  0  0  0
   14.3918   -4.2701   18.9815 C   0  0  0  0  0  0  0  0  0  0  0  0
   13.1510   -4.4341   18.2672 O   0  0  0  0  0  0  0  0  0  0  0  0
   17.5963    2.3561   12.5106 H   0  0  0  0  0  0  0  0  0  0  0  0
   16.0025    3.0620   12.8000 H   0  0  0  0  0  0  0  0  0  0  0  0
   16.1397    1.4596   12.0562 H   0  0  0  0  0  0  0  0  0  0  0  0
   17.1790    0.5797   14.2081 H   0  0  0  0  0  0  0  0  0  0  0  0
   16.9622    2.1880   14.9269 H   0  0  0  0  0  0  0  0  0  0  0  0
   12.7898    0.1442   15.8392 H   0  0  0  0  0  0  0  0  0  0  0  0
   13.6101   -0.9381   16.9462 H   0  0  0  0  0  0  0  0  0  0  0  0
   13.7763    0.4045   18.5139 H   0  0  0  0  0  0  0  0  0  0  0  0
   12.2087    4.8225   15.2988 H   0  0  0  0  0  0  0  0  0  0  0  0
   15.2561    5.6328   16.8013 H   0  0  0  0  0  0  0  0  0  0  0  0
   18.8421    3.2420   20.7246 H   0  0  0  0  0  0  0  0  0  0  0  0
   19.0165    3.3124   18.9716 H   0  0  0  0  0  0  0  0  0  0  0  0
   18.7350    4.8047   19.8675 H   0  0  0  0  0  0  0  0  0  0  0  0
   16.4229    5.2272   20.9235 H   0  0  0  0  0  0  0  0  0  0  0  0
   15.1563    4.0135   20.7803 H   0  0  0  0  0  0  0  0  0  0  0  0
   16.5559    3.6686   21.7860 H   0  0  0  0  0  0  0  0  0  0  0  0
   14.3517    0.1454   12.7849 H   0  0  0  0  0  0  0  0  0  0  0  0
   16.0199   -1.4891   13.8053 H   0  0  0  0  0  0  0  0  0  0  0  0
   14.6547   -2.0631   12.8817 H   0  0  0  0  0  0  0  0  0  0  0  0
   12.3214   -2.3231   14.2808 H   0  0  0  0  0  0  0  0  0  0  0  0
   11.4829   -3.6733   16.2059 H   0  0  0  0  0  0  0  0  0  0  0  0
   16.3453   -2.5546   15.9161 H   0  0  0  0  0  0  0  0  0  0  0  0
   14.6464   -5.2181   19.4667 H   0  0  0  0  0  0  0  0  0  0  0  0
   14.2631   -3.5040   19.7570 H   0  0  0  0  0  0  0  0  0  0  0  0
  1  2  1  0
  2  3  1  0
  3  4  2  0
  3  5  2  0
  5  6  1  0
  6  7  1  0
  7  8  1  0
  8  9  2  0
  9 10  1  0
  9 11  1  0
 11 12  1  0
 11 13  2  0
 13 14  1  0
 14 15  2  0
 15 16  1  0
 16 17  2  0
 16 18  1  0
 18 19  1  0
 19 20  1  0
 19 21  1  0
 19 22  1  0
  3 23  1  0
 23 24  1  0
 24 25  1  0
 25 26  2  0
 26 27  1  0
 27 28  2  0
 28 29  1  0
 29 30  2  0
 29 31  1  0
 31 32  1  0
 32 33  1  0
 15  8  1  0
 30 25  1  0
 22 14  1  0
 33 28  1  0
  1 34  1  0
  1 35  1  0
  1 36  1  0
  2 37  1  0
  2 38  1  0
  6 39  1  0
  6 40  1  0
  7 41  1  0
 12 42  1  0
 13 43  1  0
 20 44  1  0
 20 45  1  0
 20 46  1  0
 21 47  1  0
 21 48  1  0
 21 49  1  0
 23 50  1  0
 24 51  1  0
 24 52  1  0
 26 53  1  0
 27 54  1  0
 30 55  1  0
 32 56  1  0
 32 57  1  0
M  END
>  <Energy>  (734) 
-87.960577806732047

>  <compound_id>  (734) 
1005

>  <target_id>  (734) 
1

>  <reference_id>  (734) 
55

>  <inspiration_ids>  (734) 
[76, 55]

>  <energy_score>  (734) 
-72.46855203779695

>  <distance_score>  (734) 
2.077016166652601

>  <path>  (734) 
/opt/xchem-fragalysis-2/maxwin/BulkDock/SCRATCH/505733/C1005-P55/C1005-P55.minimised.mol

>  <scratch_subdir>  (734) 
/opt/xchem-fragalysis-2/maxwin/BulkDock/SCRATCH/505733/C1005-P55

>  <fragmenstein_runtime>  (734) 
2.3785152435302734

>  <fragmenstein_outcome>  (734) 
too moved

>  <fragmenstein_mode>  (734) 
expansion

>  <fragmenstein_error>  (734) 


$$$$
C1006-P76
     RDKit          3D

 43 46  0  0  0  0  0  0  0  0999 V2000
   14.3129    4.3104   10.9785 C   0  0  0  0  0  0  0  0  0  0  0  0
   13.5448    3.2857   10.1366 C   0  0  0  0  0  0  0  0  0  0  0  0
   13.4000    3.8106    8.7067 C   0  0  0  0  0  0  0  0  0  0  0  0
   12.2059    3.1603   10.6433 O   0  0  0  0  0  0  0  0  0  0  0  0
   11.9148    2.2502   11.5961 C   0  0  0  0  0  0  0  0  0  0  0  0
   10.7987    2.1834   12.0988 O   0  0  0  0  0  0  0  0  0  0  0  0
   13.0079    1.3237   11.9343 C   0  0  0  0  0  0  0  0  0  0  0  0
   12.9043    0.4749   13.0431 C   0  0  0  0  0  0  0  0  0  0  0  0
   13.9190   -0.4359   13.3659 C   0  0  0  0  0  0  0  0  0  0  0  0
   13.9920   -1.0647   14.6979 C   0  0  0  0  0  0  0  0  0  0  0  0
   14.8960   -0.6206   15.6887 C   0  0  0  0  0  0  0  0  0  0  0  0
   15.6421    0.6704   15.5274 C   0  0  0  0  0  0  0  0  0  0  0  0
   16.9289    0.4753   14.9065 N   0  0  0  0  0  0  0  0  0  0  0  0
   15.0834   -1.3321   16.8801 C   0  0  0  0  0  0  0  0  0  0  0  0
   14.3271   -2.4514   17.1856 C   0  0  0  0  0  0  0  0  0  0  0  0
   13.3088   -2.7602   16.2941 C   0  0  0  0  0  0  0  0  0  0  0  0
   12.3036   -3.6824   16.4161 N   0  0  0  0  0  0  0  0  0  0  0  0
   11.4434   -3.5173   15.3797 C   0  0  0  0  0  0  0  0  0  0  0  0
   11.9695   -2.6346   14.4870 C   0  0  0  0  0  0  0  0  0  0  0  0
   13.1187   -2.0920   15.0783 C   0  0  0  0  0  0  0  0  0  0  0  0
   14.9674   -0.5683   12.4370 C   0  0  0  0  0  0  0  0  0  0  0  0
   15.9816   -1.4739   12.6087 O   0  0  0  0  0  0  0  0  0  0  0  0
   15.0781    0.2699   11.3278 C   0  0  0  0  0  0  0  0  0  0  0  0
   14.1156    1.2489   11.1077 C   0  0  0  0  0  0  0  0  0  0  0  0
   14.2890    2.0687   10.0364 O   0  0  0  0  0  0  0  0  0  0  0  0
   15.3279    4.4580   10.5946 H   0  0  0  0  0  0  0  0  0  0  0  0
   13.7916    5.2734   11.0022 H   0  0  0  0  0  0  0  0  0  0  0  0
   14.4077    3.9774   12.0179 H   0  0  0  0  0  0  0  0  0  0  0  0
   14.3763    3.9561    8.2320 H   0  0  0  0  0  0  0  0  0  0  0  0
   12.8417    4.7526    8.6790 H   0  0  0  0  0  0  0  0  0  0  0  0
   12.8462    3.0900    8.0926 H   0  0  0  0  0  0  0  0  0  0  0  0
   12.0219    0.5407   13.6615 H   0  0  0  0  0  0  0  0  0  0  0  0
   15.7877    1.1374   16.5096 H   0  0  0  0  0  0  0  0  0  0  0  0
   15.0570    1.4031   14.9611 H   0  0  0  0  0  0  0  0  0  0  0  0
   16.8069    0.0582   13.9813 H   0  0  0  0  0  0  0  0  0  0  0  0
   17.4630   -0.2117   15.4353 H   0  0  0  0  0  0  0  0  0  0  0  0
   15.8242   -0.9928   17.6037 H   0  0  0  0  0  0  0  0  0  0  0  0
   14.4607   -2.9866   18.1199 H   0  0  0  0  0  0  0  0  0  0  0  0
   12.1697   -4.3067   17.2030 H   0  0  0  0  0  0  0  0  0  0  0  0
   10.5442   -4.0868   15.2918 H   0  0  0  0  0  0  0  0  0  0  0  0
   11.5349   -2.3581   13.5386 H   0  0  0  0  0  0  0  0  0  0  0  0
   15.6591   -2.1924   13.1865 H   0  0  0  0  0  0  0  0  0  0  0  0
   15.9261    0.1716   10.6562 H   0  0  0  0  0  0  0  0  0  0  0  0
  1  2  1  0
  2  3  1  0
  2  4  1  0
  4  5  1  0
  5  6  2  0
  5  7  1  0
  7  8  2  0
  8  9  1  0
  9 10  1  0
 10 11  2  0
 11 12  1  0
 12 13  1  0
 11 14  1  0
 14 15  2  0
 15 16  1  0
 16 17  1  0
 17 18  1  0
 18 19  2  0
 19 20  1  0
  9 21  2  0
 21 22  1  0
 21 23  1  0
 23 24  2  0
 24 25  1  0
 25  2  1  0
 24  7  1  0
 20 10  1  0
 20 16  2  0
  1 26  1  0
  1 27  1  0
  1 28  1  0
  3 29  1  0
  3 30  1  0
  3 31  1  0
  8 32  1  0
 12 33  1  0
 12 34  1  0
 13 35  1  0
 13 36  1  0
 14 37  1  0
 15 38  1  0
 17 39  1  0
 18 40  1  0
 19 41  1  0
 22 42  1  0
 23 43  1  0
M  END
>  <Energy>  (735) 
44.331489053271

>  <compound_id>  (735) 
1006

>  <target_id>  (735) 
1

>  <reference_id>  (735) 
76

>  <inspiration_ids>  (735) 
[76, 63]

>  <energy_score>  (735) 
-34.198725805975386

>  <distance_score>  (735) 
2.9516202831428546

>  <path>  (735) 
/opt/xchem-fragalysis-2/maxwin/BulkDock/SCRATCH/505733/C1006-P76/C1006-P76.minimised.mol

>  <scratch_subdir>  (735) 
/opt/xchem-fragalysis-2/maxwin/BulkDock/SCRATCH/505733/C1006-P76

>  <fragmenstein_runtime>  (735) 
2.5097014904022217

>  <fragmenstein_outcome>  (735) 
too moved

>  <fragmenstein_mode>  (735) 
expansion

>  <fragmenstein_error>  (735) 


$$$$
C1006-P63
     RDKit          3D

 43 46  0  0  0  0  0  0  0  0999 V2000
   14.2724    3.9066   11.3763 C   0  0  0  0  0  0  0  0  0  0  0  0
   13.3135    3.0314   10.5613 C   0  0  0  0  0  0  0  0  0  0  0  0
   13.1412    3.6352    9.1658 C   0  0  0  0  0  0  0  0  0  0  0  0
   12.0097    3.0570   11.1667 O   0  0  0  0  0  0  0  0  0  0  0  0
   11.6662    2.1299   12.0826 C   0  0  0  0  0  0  0  0  0  0  0  0
   10.5651    2.1321   12.6205 O   0  0  0  0  0  0  0  0  0  0  0  0
   12.6713    1.0960   12.3538 C   0  0  0  0  0  0  0  0  0  0  0  0
   12.5905    0.2927   13.4993 C   0  0  0  0  0  0  0  0  0  0  0  0
   13.5811   -0.6750   13.7497 C   0  0  0  0  0  0  0  0  0  0  0  0
   13.8339   -1.0892   15.1382 C   0  0  0  0  0  0  0  0  0  0  0  0
   14.7956   -0.3955   15.9203 C   0  0  0  0  0  0  0  0  0  0  0  0
   15.6009    0.7478   15.3663 C   0  0  0  0  0  0  0  0  0  0  0  0
   14.8512    1.9918   15.4546 N   0  0  0  0  0  0  0  0  0  0  0  0
   14.9959   -0.7042   17.2660 C   0  0  0  0  0  0  0  0  0  0  0  0
   14.3574   -1.7714   17.8613 C   0  0  0  0  0  0  0  0  0  0  0  0
   13.4791   -2.4945   17.0689 C   0  0  0  0  0  0  0  0  0  0  0  0
   12.7857   -3.6249   17.3948 N   0  0  0  0  0  0  0  0  0  0  0  0
   12.0184   -3.9878   16.3383 C   0  0  0  0  0  0  0  0  0  0  0  0
   12.1511   -3.0626   15.3381 C   0  0  0  0  0  0  0  0  0  0  0  0
   13.1545   -2.1583   15.7492 C   0  0  0  0  0  0  0  0  0  0  0  0
   14.5238   -0.9319   12.7338 C   0  0  0  0  0  0  0  0  0  0  0  0
   15.5143   -1.8662   12.8632 O   0  0  0  0  0  0  0  0  0  0  0  0
   14.5867   -0.1422   11.5887 C   0  0  0  0  0  0  0  0  0  0  0  0
   13.6983    0.9152   11.4391 C   0  0  0  0  0  0  0  0  0  0  0  0
   13.8677    1.7281   10.3608 O   0  0  0  0  0  0  0  0  0  0  0  0
   15.2695    3.9294   10.9240 H   0  0  0  0  0  0  0  0  0  0  0  0
   13.8929    4.9301   11.4668 H   0  0  0  0  0  0  0  0  0  0  0  0
   14.3905    3.5241   12.3961 H   0  0  0  0  0  0  0  0  0  0  0  0
   12.7060    4.6392    9.2133 H   0  0  0  0  0  0  0  0  0  0  0  0
   14.0946    3.6804    8.6286 H   0  0  0  0  0  0  0  0  0  0  0  0
   12.4627    3.0175    8.5653 H   0  0  0  0  0  0  0  0  0  0  0  0
   11.8243    0.4933   14.2464 H   0  0  0  0  0  0  0  0  0  0  0  0
   15.9265    0.5737   14.3390 H   0  0  0  0  0  0  0  0  0  0  0  0
   16.5353    0.8610   15.9304 H   0  0  0  0  0  0  0  0  0  0  0  0
   14.6535    2.1876   16.4357 H   0  0  0  0  0  0  0  0  0  0  0  0
   13.9449    1.8746   15.0132 H   0  0  0  0  0  0  0  0  0  0  0  0
   15.7069   -0.1300   17.8596 H   0  0  0  0  0  0  0  0  0  0  0  0
   14.5630   -2.0441   18.8919 H   0  0  0  0  0  0  0  0  0  0  0  0
   12.7956   -4.0833   18.2984 H   0  0  0  0  0  0  0  0  0  0  0  0
   11.4315   -4.8828   16.3910 H   0  0  0  0  0  0  0  0  0  0  0  0
   11.6458   -3.0884   14.3792 H   0  0  0  0  0  0  0  0  0  0  0  0
   15.2790   -2.4875   13.5754 H   0  0  0  0  0  0  0  0  0  0  0  0
   15.3639   -0.3186   10.8505 H   0  0  0  0  0  0  0  0  0  0  0  0
  1  2  1  0
  2  3  1  0
  2  4  1  0
  4  5  1  0
  5  6  2  0
  5  7  1  0
  7  8  2  0
  8  9  1  0
  9 10  1  0
 10 11  2  0
 11 12  1  0
 12 13  1  0
 11 14  1  0
 14 15  2  0
 15 16  1  0
 16 17  1  0
 17 18  1  0
 18 19  2  0
 19 20  1  0
  9 21  2  0
 21 22  1  0
 21 23  1  0
 23 24  2  0
 24 25  1  0
 25  2  1  0
 24  7  1  0
 20 10  1  0
 20 16  2  0
  1 26  1  0
  1 27  1  0
  1 28  1  0
  3 29  1  0
  3 30  1  0
  3 31  1  0
  8 32  1  0
 12 33  1  0
 12 34  1  0
 13 35  1  0
 13 36  1  0
 14 37  1  0
 15 38  1  0
 17 39  1  0
 18 40  1  0
 19 41  1  0
 22 42  1  0
 23 43  1  0
M  END
>  <Energy>  (736) 
46.99303104525319

>  <compound_id>  (736) 
1006

>  <target_id>  (736) 
1

>  <reference_id>  (736) 
63

>  <inspiration_ids>  (736) 
[76, 63]

>  <energy_score>  (736) 
-31.53718381399394

>  <distance_score>  (736) 
2.5500208393954718

>  <path>  (736) 
/opt/xchem-fragalysis-2/maxwin/BulkDock/SCRATCH/505733/C1006-P63/C1006-P63.minimised.mol

>  <scratch_subdir>  (736) 
/opt/xchem-fragalysis-2/maxwin/BulkDock/SCRATCH/505733/C1006-P63

>  <fragmenstein_runtime>  (736) 
2.1448605060577393

>  <fragmenstein_outcome>  (736) 
too moved

>  <fragmenstein_mode>  (736) 
expansion

>  <fragmenstein_error>  (736) 


$$$$
C1007-P76
     RDKit          3D

 35 37  0  0  0  0  0  0  0  0999 V2000
   16.1749    2.3874   15.6920 C   0  0  0  0  0  0  0  0  0  0  0  0
   15.3364    1.1831   15.2375 C   0  0  0  0  0  0  0  0  0  0  0  0
   16.1667    0.1550   14.5223 C   0  0  0  0  0  0  0  0  0  0  0  0
   15.8313   -1.1532   14.6088 C   0  0  0  0  0  0  0  0  0  0  0  0
   16.7991   -2.0161   15.1427 N   0  0  0  0  0  0  0  0  0  0  0  0
   16.8898   -2.0291   16.6223 C   0  0  0  0  0  0  0  0  0  0  0  0
   16.9568   -0.6303   17.2585 C   0  0  0  0  0  0  0  0  0  0  0  0
   15.6183    0.1214   17.4701 C   0  0  0  0  0  0  0  0  0  0  0  0
   14.7755    0.5592   16.3997 O   0  0  0  0  0  0  0  0  0  0  0  0
   14.4224   -1.7272   14.4527 C   0  0  0  0  0  0  0  0  0  0  0  0
   14.0431   -2.6496   15.5101 O   0  0  0  0  0  0  0  0  0  0  0  0
   12.5997   -2.7370   15.4825 C   0  0  0  0  0  0  0  0  0  0  0  0
   12.1159   -1.8244   14.3699 C   0  0  0  0  0  0  0  0  0  0  0  0
   13.2306   -0.8028   14.3476 C   0  0  0  0  0  0  0  0  0  0  0  0
   13.2416    0.0335   13.1627 N   0  0  0  0  0  0  0  0  0  0  0  0
   13.7283    1.2138   13.3164 C   0  0  0  0  0  0  0  0  0  0  0  0
   14.3292    1.7957   14.3806 O   0  0  0  0  0  0  0  0  0  0  0  0
   15.5603    3.0721   16.2893 H   0  0  0  0  0  0  0  0  0  0  0  0
   17.0370    2.1138   16.3064 H   0  0  0  0  0  0  0  0  0  0  0  0
   16.5429    2.9575   14.8305 H   0  0  0  0  0  0  0  0  0  0  0  0
   17.2308    0.3854   14.5271 H   0  0  0  0  0  0  0  0  0  0  0  0
   16.5473   -2.9721   14.8618 H   0  0  0  0  0  0  0  0  0  0  0  0
   17.8094   -2.5698   16.8740 H   0  0  0  0  0  0  0  0  0  0  0  0
   16.0620   -2.6029   17.0535 H   0  0  0  0  0  0  0  0  0  0  0  0
   17.6809   -0.0077   16.7248 H   0  0  0  0  0  0  0  0  0  0  0  0
   17.3814   -0.7676   18.2627 H   0  0  0  0  0  0  0  0  0  0  0  0
   14.9840   -0.5118   18.1019 H   0  0  0  0  0  0  0  0  0  0  0  0
   15.8300    1.0076   18.0813 H   0  0  0  0  0  0  0  0  0  0  0  0
   14.4818   -2.3144   13.5246 H   0  0  0  0  0  0  0  0  0  0  0  0
   12.2316   -2.4231   16.4593 H   0  0  0  0  0  0  0  0  0  0  0  0
   12.2824   -3.7683   15.3472 H   0  0  0  0  0  0  0  0  0  0  0  0
   12.0647   -2.3719   13.4218 H   0  0  0  0  0  0  0  0  0  0  0  0
   11.1266   -1.4103   14.5687 H   0  0  0  0  0  0  0  0  0  0  0  0
   13.1038   -0.2148   15.2448 H   0  0  0  0  0  0  0  0  0  0  0  0
   13.6561    1.9516   12.5022 H   0  0  0  0  0  0  0  0  0  0  0  0
  1  2  1  0
  2  3  1  0
  3  4  2  3
  4  5  1  0
  5  6  1  0
  6  7  1  0
  7  8  1  0
  8  9  1  0
  4 10  1  0
 10 11  1  0
 11 12  1  0
 12 13  1  0
 13 14  1  0
 14 15  1  0
 15 16  2  3
 16 17  1  0
  9  2  1  0
 14 10  1  0
 17  2  1  0
  1 18  1  0
  1 19  1  0
  1 20  1  0
  3 21  1  0
  5 22  1  0
  6 23  1  0
  6 24  1  0
  7 25  1  0
  7 26  1  0
  8 27  1  0
  8 28  1  0
 10 29  1  0
 12 30  1  0
 12 31  1  0
 13 32  1  0
 13 33  1  0
 14 34  1  0
 16 35  1  0
M  END
>  <Energy>  (737) 
92.823959063431801

>  <compound_id>  (737) 
1007

>  <target_id>  (737) 
1

>  <reference_id>  (737) 
76

>  <inspiration_ids>  (737) 
[76, 66]

>  <energy_score>  (737) 
-129.58719124006296

>  <distance_score>  (737) 
1.7250652679777803

>  <path>  (737) 
/opt/xchem-fragalysis-2/maxwin/BulkDock/SCRATCH/505733/C1007-P76/C1007-P76.minimised.mol

>  <scratch_subdir>  (737) 
/opt/xchem-fragalysis-2/maxwin/BulkDock/SCRATCH/505733/C1007-P76

>  <fragmenstein_runtime>  (737) 
2.0286450386047363

>  <fragmenstein_outcome>  (737) 
too moved

>  <fragmenstein_mode>  (737) 
expansion

>  <fragmenstein_error>  (737) 


$$$$
C1007-P66
     RDKit          3D

 35 37  0  0  0  0  0  0  0  0999 V2000
   15.9837    2.4375   15.8975 C   0  0  0  0  0  0  0  0  0  0  0  0
   15.1013    1.2975   15.3666 C   0  0  0  0  0  0  0  0  0  0  0  0
   15.8804    0.3296   14.5254 C   0  0  0  0  0  0  0  0  0  0  0  0
   15.5249   -0.9744   14.5113 C   0  0  0  0  0  0  0  0  0  0  0  0
   16.5095   -1.8917   14.9040 N   0  0  0  0  0  0  0  0  0  0  0  0
   16.6825   -2.0464   16.3687 C   0  0  0  0  0  0  0  0  0  0  0  0
   16.7582   -0.7147   17.1374 C   0  0  0  0  0  0  0  0  0  0  0  0
   15.4219    0.0009   17.4670 C   0  0  0  0  0  0  0  0  0  0  0  0
   14.5569    0.5859   16.4849 O   0  0  0  0  0  0  0  0  0  0  0  0
   14.0980   -1.5104   14.4110 C   0  0  0  0  0  0  0  0  0  0  0  0
   13.7932   -2.5282   15.3997 O   0  0  0  0  0  0  0  0  0  0  0  0
   12.3556   -2.6419   15.4347 C   0  0  0  0  0  0  0  0  0  0  0  0
   11.8062   -1.6187   14.4577 C   0  0  0  0  0  0  0  0  0  0  0  0
   12.9006   -0.5764   14.4764 C   0  0  0  0  0  0  0  0  0  0  0  0
   12.8282    0.3631   13.3726 N   0  0  0  0  0  0  0  0  0  0  0  0
   13.3783    1.5096   13.5536 C   0  0  0  0  0  0  0  0  0  0  0  0
   14.0838    2.0031   14.5962 O   0  0  0  0  0  0  0  0  0  0  0  0
   15.4012    3.0853   16.5642 H   0  0  0  0  0  0  0  0  0  0  0  0
   16.8499    2.0923   16.4680 H   0  0  0  0  0  0  0  0  0  0  0  0
   16.3476    3.0683   15.0778 H   0  0  0  0  0  0  0  0  0  0  0  0
   16.9466    0.5472   14.4876 H   0  0  0  0  0  0  0  0  0  0  0  0
   16.2336   -2.8170   14.5502 H   0  0  0  0  0  0  0  0  0  0  0  0
   17.6244   -2.5872   16.5169 H   0  0  0  0  0  0  0  0  0  0  0  0
   15.8912   -2.6794   16.7851 H   0  0  0  0  0  0  0  0  0  0  0  0
   17.4624   -0.0374   16.6458 H   0  0  0  0  0  0  0  0  0  0  0  0
   17.2152   -0.9488   18.1090 H   0  0  0  0  0  0  0  0  0  0  0  0
   14.7965   -0.7103   18.0191 H   0  0  0  0  0  0  0  0  0  0  0  0
   15.6484    0.7996   18.1843 H   0  0  0  0  0  0  0  0  0  0  0  0
   14.0821   -2.0190   13.4339 H   0  0  0  0  0  0  0  0  0  0  0  0
   12.0401   -2.4552   16.4606 H   0  0  0  0  0  0  0  0  0  0  0  0
   12.0455   -3.6537   15.1826 H   0  0  0  0  0  0  0  0  0  0  0  0
   11.7246   -2.0699   13.4630 H   0  0  0  0  0  0  0  0  0  0  0  0
   10.8230   -1.2441   14.7409 H   0  0  0  0  0  0  0  0  0  0  0  0
   12.7859   -0.0590   15.4222 H   0  0  0  0  0  0  0  0  0  0  0  0
   13.2649    2.3011   12.7963 H   0  0  0  0  0  0  0  0  0  0  0  0
  1  2  1  0
  2  3  1  0
  3  4  2  3
  4  5  1  0
  5  6  1  0
  6  7  1  0
  7  8  1  0
  8  9  1  0
  4 10  1  0
 10 11  1  0
 11 12  1  0
 12 13  1  0
 13 14  1  0
 14 15  1  0
 15 16  2  3
 16 17  1  0
  9  2  1  0
 14 10  1  0
 17  2  1  0
  1 18  1  0
  1 19  1  0
  1 20  1  0
  3 21  1  0
  5 22  1  0
  6 23  1  0
  6 24  1  0
  7 25  1  0
  7 26  1  0
  8 27  1  0
  8 28  1  0
 10 29  1  0
 12 30  1  0
 12 31  1  0
 13 32  1  0
 13 33  1  0
 14 34  1  0
 16 35  1  0
M  END
>  <Energy>  (738) 
92.71690936261075

>  <compound_id>  (738) 
1007

>  <target_id>  (738) 
1

>  <reference_id>  (738) 
66

>  <inspiration_ids>  (738) 
[76, 66]

>  <energy_score>  (738) 
-129.69424094088708

>  <distance_score>  (738) 
1.646906352816499

>  <path>  (738) 
/opt/xchem-fragalysis-2/maxwin/BulkDock/SCRATCH/505733/C1007-P66/C1007-P66.minimised.mol

>  <scratch_subdir>  (738) 
/opt/xchem-fragalysis-2/maxwin/BulkDock/SCRATCH/505733/C1007-P66

>  <fragmenstein_runtime>  (738) 
2.078479528427124

>  <fragmenstein_outcome>  (738) 
too moved

>  <fragmenstein_mode>  (738) 
expansion

>  <fragmenstein_error>  (738) 


$$$$
C1009-P76
     RDKit          3D

 41 43  0  0  0  0  0  0  0  0999 V2000
   15.4903    1.7205   17.6756 C   0  0  0  0  0  0  0  0  0  0  0  0
   15.6544    0.6811   16.5908 C   0  0  0  0  0  0  0  0  0  0  0  0
   16.7346    1.1676   15.6112 C   0  0  0  0  0  0  0  0  0  0  0  0
   16.0483   -0.5354   17.2407 O   0  0  0  0  0  0  0  0  0  0  0  0
   15.9660   -1.6801   16.5357 C   0  0  0  0  0  0  0  0  0  0  0  0
   16.5455   -2.7088   16.8407 O   0  0  0  0  0  0  0  0  0  0  0  0
   15.0976   -1.5696   15.3712 C   0  0  0  0  0  0  0  0  0  0  0  0
   15.2578   -2.3819   14.2798 C   0  0  0  0  0  0  0  0  0  0  0  0
   14.3576   -2.2445   13.2352 C   0  0  0  0  0  0  0  0  0  0  0  0
   14.5770   -2.7856   12.0021 O   0  0  0  0  0  0  0  0  0  0  0  0
   15.8425   -2.3763   11.4525 C   0  0  0  0  0  0  0  0  0  0  0  0
   15.6784   -1.1103   10.6108 C   0  0  0  0  0  0  0  0  0  0  0  0
   17.0064   -0.5004   10.1588 C   0  0  0  0  0  0  0  0  0  0  0  0
   17.9137   -1.4328    9.4250 C   0  0  0  0  0  0  0  0  0  0  0  0
   17.6329   -1.7951    8.1156 N   0  0  0  0  0  0  0  0  0  0  0  0
   18.6285   -2.5748    7.7459 C   0  0  0  0  0  0  0  0  0  0  0  0
   19.5078   -2.7821    8.7671 N   0  0  0  0  0  0  0  0  0  0  0  0
   19.0768   -2.0504    9.8356 C   0  0  0  0  0  0  0  0  0  0  0  0
   20.0433   -1.9608   11.6566 I   0  0  0  0  0  0  0  0  0  0  0  0
   13.1696   -1.6032   13.4902 C   0  0  0  0  0  0  0  0  0  0  0  0
   12.0130   -2.0423   12.9713 O   0  0  0  0  0  0  0  0  0  0  0  0
   13.2031   -0.5502   14.3433 C   0  0  0  0  0  0  0  0  0  0  0  0
   14.2270   -0.5053   15.2565 C   0  0  0  0  0  0  0  0  0  0  0  0
   14.3711    0.6252   15.9808 O   0  0  0  0  0  0  0  0  0  0  0  0
   14.7839    1.3800   18.4413 H   0  0  0  0  0  0  0  0  0  0  0  0
   16.4363    1.9076   18.1966 H   0  0  0  0  0  0  0  0  0  0  0  0
   15.1114    2.6703   17.2821 H   0  0  0  0  0  0  0  0  0  0  0  0
   16.8948    0.4598   14.7913 H   0  0  0  0  0  0  0  0  0  0  0  0
   17.6995    1.2831   16.1168 H   0  0  0  0  0  0  0  0  0  0  0  0
   16.4504    2.1212   15.1529 H   0  0  0  0  0  0  0  0  0  0  0  0
   16.0835   -3.0866   14.2254 H   0  0  0  0  0  0  0  0  0  0  0  0
   16.1977   -3.2011   10.8327 H   0  0  0  0  0  0  0  0  0  0  0  0
   16.6129   -2.2257   12.2161 H   0  0  0  0  0  0  0  0  0  0  0  0
   15.0405   -1.3251    9.7476 H   0  0  0  0  0  0  0  0  0  0  0  0
   15.1286   -0.3546   11.1859 H   0  0  0  0  0  0  0  0  0  0  0  0
   16.7912    0.3545    9.5053 H   0  0  0  0  0  0  0  0  0  0  0  0
   17.5203   -0.0826   11.0320 H   0  0  0  0  0  0  0  0  0  0  0  0
   18.7495   -3.0379    6.7747 H   0  0  0  0  0  0  0  0  0  0  0  0
   20.3272   -3.3721    8.7400 H   0  0  0  0  0  0  0  0  0  0  0  0
   11.2342   -1.5602   13.3149 H   0  0  0  0  0  0  0  0  0  0  0  0
   12.4795    0.2319   14.2252 H   0  0  0  0  0  0  0  0  0  0  0  0
  1  2  1  0
  2  3  1  0
  2  4  1  0
  4  5  1  0
  5  6  2  0
  5  7  1  0
  7  8  2  0
  8  9  1  0
  9 10  1  0
 10 11  1  0
 11 12  1  0
 12 13  1  0
 13 14  1  0
 14 15  1  0
 15 16  2  0
 16 17  1  0
 17 18  1  0
 18 19  1  0
  9 20  2  0
 20 21  1  0
 20 22  1  0
 22 23  2  0
 23 24  1  0
 24  2  1  0
 23  7  1  0
 18 14  2  0
  1 25  1  0
  1 26  1  0
  1 27  1  0
  3 28  1  0
  3 29  1  0
  3 30  1  0
  8 31  1  0
 11 32  1  0
 11 33  1  0
 12 34  1  0
 12 35  1  0
 13 36  1  0
 13 37  1  0
 16 38  1  0
 17 39  1  0
 21 40  1  0
 22 41  1  0
M  END
>  <Energy>  (739) 
52.970437480331945

>  <compound_id>  (739) 
1009

>  <target_id>  (739) 
1

>  <reference_id>  (739) 
76

>  <inspiration_ids>  (739) 
[76, 80]

>  <energy_score>  (739) 
0.5483046914999363

>  <distance_score>  (739) 
2.6470583145936835

>  <path>  (739) 
/opt/xchem-fragalysis-2/maxwin/BulkDock/SCRATCH/505733/C1009-P76/C1009-P76.minimised.mol

>  <scratch_subdir>  (739) 
/opt/xchem-fragalysis-2/maxwin/BulkDock/SCRATCH/505733/C1009-P76

>  <fragmenstein_runtime>  (739) 
5.747812271118164

>  <fragmenstein_outcome>  (739) 
too moved

>  <fragmenstein_mode>  (739) 
expansion

>  <fragmenstein_error>  (739) 


$$$$
C1009-P80
     RDKit          3D

 41 43  0  0  0  0  0  0  0  0999 V2000
   15.6444    0.0884   16.2935 C   0  0  0  0  0  0  0  0  0  0  0  0
   14.8787   -0.2656   17.5823 C   0  0  0  0  0  0  0  0  0  0  0  0
   15.5143    0.4670   18.7653 C   0  0  0  0  0  0  0  0  0  0  0  0
   14.9894   -1.6727   17.8770 O   0  0  0  0  0  0  0  0  0  0  0  0
   14.0671   -2.5402   17.4087 C   0  0  0  0  0  0  0  0  0  0  0  0
   14.0949   -3.7415   17.6270 O   0  0  0  0  0  0  0  0  0  0  0  0
   13.0841   -1.9190   16.5183 C   0  0  0  0  0  0  0  0  0  0  0  0
   12.6390   -2.6191   15.4236 C   0  0  0  0  0  0  0  0  0  0  0  0
   12.1969   -1.8573   14.3556 C   0  0  0  0  0  0  0  0  0  0  0  0
   12.6670   -2.2368   13.1119 O   0  0  0  0  0  0  0  0  0  0  0  0
   13.7874   -1.3769   12.7560 C   0  0  0  0  0  0  0  0  0  0  0  0
   14.8792   -2.1460   12.0221 C   0  0  0  0  0  0  0  0  0  0  0  0
   15.9192   -1.1899   11.4327 C   0  0  0  0  0  0  0  0  0  0  0  0
   17.1299   -1.8814   10.9008 C   0  0  0  0  0  0  0  0  0  0  0  0
   17.3133   -2.0189    9.5346 N   0  0  0  0  0  0  0  0  0  0  0  0
   18.4529   -2.6599    9.3969 C   0  0  0  0  0  0  0  0  0  0  0  0
   19.0266   -2.9298   10.6047 N   0  0  0  0  0  0  0  0  0  0  0  0
   18.2092   -2.4191   11.5705 C   0  0  0  0  0  0  0  0  0  0  0  0
   18.5962   -2.4778   13.5970 I   0  0  0  0  0  0  0  0  0  0  0  0
   11.7059   -0.5625   14.5444 C   0  0  0  0  0  0  0  0  0  0  0  0
   11.0455    0.1057   13.5588 O   0  0  0  0  0  0  0  0  0  0  0  0
   12.0315    0.1114   15.6983 C   0  0  0  0  0  0  0  0  0  0  0  0
   12.8462   -0.5512   16.6055 C   0  0  0  0  0  0  0  0  0  0  0  0
   13.5225    0.2054   17.5158 O   0  0  0  0  0  0  0  0  0  0  0  0
   15.3568   -0.5542   15.4594 H   0  0  0  0  0  0  0  0  0  0  0  0
   15.4702    1.1280   15.9977 H   0  0  0  0  0  0  0  0  0  0  0  0
   16.7203   -0.0694   16.4291 H   0  0  0  0  0  0  0  0  0  0  0  0
   16.5547    0.1595   18.9157 H   0  0  0  0  0  0  0  0  0  0  0  0
   14.9727    0.2370   19.6906 H   0  0  0  0  0  0  0  0  0  0  0  0
   15.4755    1.5533   18.6301 H   0  0  0  0  0  0  0  0  0  0  0  0
   12.8955   -3.6599   15.3329 H   0  0  0  0  0  0  0  0  0  0  0  0
   14.2512   -0.9260   13.6404 H   0  0  0  0  0  0  0  0  0  0  0  0
   13.4264   -0.5474   12.1411 H   0  0  0  0  0  0  0  0  0  0  0  0
   15.3497   -2.8177   12.7440 H   0  0  0  0  0  0  0  0  0  0  0  0
   14.4610   -2.7861   11.2411 H   0  0  0  0  0  0  0  0  0  0  0  0
   15.4548   -0.6087   10.6260 H   0  0  0  0  0  0  0  0  0  0  0  0
   16.2325   -0.4618   12.1913 H   0  0  0  0  0  0  0  0  0  0  0  0
   18.9071   -2.9621    8.4625 H   0  0  0  0  0  0  0  0  0  0  0  0
   19.9004   -3.4123   10.7569 H   0  0  0  0  0  0  0  0  0  0  0  0
   10.5052   -0.5862   13.0997 H   0  0  0  0  0  0  0  0  0  0  0  0
   11.8028    1.1660   15.8076 H   0  0  0  0  0  0  0  0  0  0  0  0
  1  2  1  0
  2  3  1  0
  2  4  1  0
  4  5  1  0
  5  6  2  0
  5  7  1  0
  7  8  2  0
  8  9  1  0
  9 10  1  0
 10 11  1  0
 11 12  1  0
 12 13  1  0
 13 14  1  0
 14 15  1  0
 15 16  2  0
 16 17  1  0
 17 18  1  0
 18 19  1  0
  9 20  2  0
 20 21  1  0
 20 22  1  0
 22 23  2  0
 23 24  1  0
 24  2  1  0
 23  7  1  0
 18 14  2  0
  1 25  1  0
  1 26  1  0
  1 27  1  0
  3 28  1  0
  3 29  1  0
  3 30  1  0
  8 31  1  0
 11 32  1  0
 11 33  1  0
 12 34  1  0
 12 35  1  0
 13 36  1  0
 13 37  1  0
 16 38  1  0
 17 39  1  0
 21 40  1  0
 22 41  1  0
M  END
>  <Energy>  (740) 
46.970919636637696

>  <compound_id>  (740) 
1009

>  <target_id>  (740) 
1

>  <reference_id>  (740) 
80

>  <inspiration_ids>  (740) 
[76, 80]

>  <energy_score>  (740) 
-5.451213152193503

>  <distance_score>  (740) 
1.5938503159519386

>  <path>  (740) 
/opt/xchem-fragalysis-2/maxwin/BulkDock/SCRATCH/505733/C1009-P80/C1009-P80.minimised.mol

>  <scratch_subdir>  (740) 
/opt/xchem-fragalysis-2/maxwin/BulkDock/SCRATCH/505733/C1009-P80

>  <fragmenstein_runtime>  (740) 
5.435893297195435

>  <fragmenstein_outcome>  (740) 
too moved

>  <fragmenstein_mode>  (740) 
expansion

>  <fragmenstein_error>  (740) 


$$$$
C1011-P76
     RDKit          3D

 47 49  0  0  0  0  0  0  0  0999 V2000
   13.4759    0.3277   13.4701 C   0  0  0  0  0  0  0  0  0  0  0  0
   14.9015    0.2795   13.9418 N   0  0  0  0  0  0  0  0  0  0  0  0
   14.6099   -1.2057   13.8509 C   0  0  0  0  0  0  0  0  0  0  0  0
   14.0185   -1.9504   15.0464 C   0  0  0  0  0  0  0  0  0  0  0  0
   12.7158   -2.4725   14.9716 C   0  0  0  0  0  0  0  0  0  0  0  0
   12.2425   -3.3223   15.9665 C   0  0  0  0  0  0  0  0  0  0  0  0
   13.0555   -3.6528   17.0489 C   0  0  0  0  0  0  0  0  0  0  0  0
   14.3294   -3.1043   17.1658 C   0  0  0  0  0  0  0  0  0  0  0  0
   14.8054   -2.2542   16.1690 C   0  0  0  0  0  0  0  0  0  0  0  0
   15.1113    1.1748   15.1524 C   0  0  0  0  0  0  0  0  0  0  0  0
   15.0163    0.9361   16.3036 O   0  0  0  0  0  0  0  0  0  0  0  0
   15.6174    2.5562   14.6909 C   0  0  0  0  0  0  0  0  0  0  0  0
   15.4216    2.9492   13.2315 C   0  0  0  0  0  0  0  0  0  0  0  0
   14.3774    3.8279   12.8518 C   0  0  0  0  0  0  0  0  0  0  0  0
   13.1793    4.6179   14.1150 Br  0  0  0  0  0  0  0  0  0  0  0  0
   14.1563    4.1308   11.5008 C   0  0  0  0  0  0  0  0  0  0  0  0
   13.1589    4.9746   11.0916 O   0  0  0  0  0  0  0  0  0  0  0  0
   14.9356    3.5625   10.5078 C   0  0  0  0  0  0  0  0  0  0  0  0
   15.9566    2.6857   10.8591 C   0  0  0  0  0  0  0  0  0  0  0  0
   16.2371    2.4016   12.1984 C   0  0  0  0  0  0  0  0  0  0  0  0
   17.4241    1.5445   12.4612 C   0  0  0  0  0  0  0  0  0  0  0  0
   17.9616    1.4704   13.5556 O   0  0  0  0  0  0  0  0  0  0  0  0
   17.9246    0.8691   11.4052 O   0  0  0  0  0  0  0  0  0  0  0  0
   17.2418    0.8829   10.1511 C   0  0  0  0  0  0  0  0  0  0  0  0
   16.2085   -0.2498   10.1042 C   0  0  0  0  0  0  0  0  0  0  0  0
   18.3083    0.6264    9.0841 C   0  0  0  0  0  0  0  0  0  0  0  0
   16.6393    2.1324    9.8167 O   0  0  0  0  0  0  0  0  0  0  0  0
   13.3502    0.0373   12.4172 H   0  0  0  0  0  0  0  0  0  0  0  0
   12.7197   -0.0651   14.1508 H   0  0  0  0  0  0  0  0  0  0  0  0
   13.2061    1.3901   13.4551 H   0  0  0  0  0  0  0  0  0  0  0  0
   14.2618   -1.6015   12.8780 H   0  0  0  0  0  0  0  0  0  0  0  0
   15.6438   -1.5919   13.8219 H   0  0  0  0  0  0  0  0  0  0  0  0
   12.0850   -2.2857   14.1039 H   0  0  0  0  0  0  0  0  0  0  0  0
   11.2591   -3.7711   15.8690 H   0  0  0  0  0  0  0  0  0  0  0  0
   12.6921   -4.3346   17.8116 H   0  0  0  0  0  0  0  0  0  0  0  0
   14.9567   -3.3461   18.0192 H   0  0  0  0  0  0  0  0  0  0  0  0
   15.8133   -1.8495   16.2515 H   0  0  0  0  0  0  0  0  0  0  0  0
   15.1388    3.2847   15.3523 H   0  0  0  0  0  0  0  0  0  0  0  0
   16.6725    2.6440   14.9659 H   0  0  0  0  0  0  0  0  0  0  0  0
   12.7831    5.3866   11.8917 H   0  0  0  0  0  0  0  0  0  0  0  0
   14.7420    3.7906    9.4631 H   0  0  0  0  0  0  0  0  0  0  0  0
   15.7015   -0.2827    9.1340 H   0  0  0  0  0  0  0  0  0  0  0  0
   15.4323   -0.1145   10.8639 H   0  0  0  0  0  0  0  0  0  0  0  0
   16.6759   -1.2206   10.3013 H   0  0  0  0  0  0  0  0  0  0  0  0
   17.8748    0.6170    8.0781 H   0  0  0  0  0  0  0  0  0  0  0  0
   18.8315   -0.3199    9.2589 H   0  0  0  0  0  0  0  0  0  0  0  0
   19.0638    1.4209    9.1026 H   0  0  0  0  0  0  0  0  0  0  0  0
  1  2  1  0
  2  3  1  0
  3  4  1  0
  4  5  2  0
  5  6  1  0
  6  7  2  0
  7  8  1  0
  8  9  2  0
  2 10  1  0
 10 11  2  0
 10 12  1  0
 12 13  1  0
 13 14  2  0
 14 15  1  0
 14 16  1  0
 16 17  1  0
 16 18  2  0
 18 19  1  0
 19 20  2  0
 20 21  1  0
 21 22  2  0
 21 23  1  0
 23 24  1  0
 24 25  1  0
 24 26  1  0
 24 27  1  0
  9  4  1  0
 20 13  1  0
 27 19  1  0
  1 28  1  0
  1 29  1  0
  1 30  1  0
  3 31  1  0
  3 32  1  0
  5 33  1  0
  6 34  1  0
  7 35  1  0
  8 36  1  0
  9 37  1  0
 12 38  1  0
 12 39  1  0
 17 40  1  0
 18 41  1  0
 25 42  1  0
 25 43  1  0
 25 44  1  0
 26 45  1  0
 26 46  1  0
 26 47  1  0
M  END
>  <Energy>  (741) 
134.58214359304498

>  <compound_id>  (741) 
1011

>  <target_id>  (741) 
1

>  <reference_id>  (741) 
76

>  <inspiration_ids>  (741) 
[76, 93]

>  <energy_score>  (741) 
53.142745037307094

>  <distance_score>  (741) 
1.1846946296858656

>  <path>  (741) 
/opt/xchem-fragalysis-2/maxwin/BulkDock/SCRATCH/505733/C1011-P76/C1011-P76.minimised.mol

>  <scratch_subdir>  (741) 
/opt/xchem-fragalysis-2/maxwin/BulkDock/SCRATCH/505733/C1011-P76

>  <fragmenstein_runtime>  (741) 
3.9391379356384277

>  <fragmenstein_outcome>  (741) 
too moved

>  <fragmenstein_mode>  (741) 
expansion

>  <fragmenstein_error>  (741) 


$$$$
C1011-P93
     RDKit          3D

 47 49  0  0  0  0  0  0  0  0999 V2000
   15.5760   -0.8366   13.9120 C   0  0  0  0  0  0  0  0  0  0  0  0
   14.8450    0.4569   14.1770 N   0  0  0  0  0  0  0  0  0  0  0  0
   14.7018   -0.2049   15.5418 C   0  0  0  0  0  0  0  0  0  0  0  0
   13.9449   -1.4903   15.8707 C   0  0  0  0  0  0  0  0  0  0  0  0
   12.7004   -1.8094   15.3139 C   0  0  0  0  0  0  0  0  0  0  0  0
   12.0606   -3.0023   15.6455 C   0  0  0  0  0  0  0  0  0  0  0  0
   12.6390   -3.8711   16.5677 C   0  0  0  0  0  0  0  0  0  0  0  0
   13.8543   -3.5526   17.1659 C   0  0  0  0  0  0  0  0  0  0  0  0
   14.5031   -2.3722   16.8153 C   0  0  0  0  0  0  0  0  0  0  0  0
   13.8095    0.7350   13.0977 C   0  0  0  0  0  0  0  0  0  0  0  0
   12.6739    0.4309   13.0354 O   0  0  0  0  0  0  0  0  0  0  0  0
   14.4766    1.6239   12.0440 C   0  0  0  0  0  0  0  0  0  0  0  0
   14.7788    3.0190   12.5716 C   0  0  0  0  0  0  0  0  0  0  0  0
   13.7270    3.9707   12.6717 C   0  0  0  0  0  0  0  0  0  0  0  0
   11.9557    3.6003   12.0414 Br  0  0  0  0  0  0  0  0  0  0  0  0
   13.9499    5.2292   13.2491 C   0  0  0  0  0  0  0  0  0  0  0  0
   12.9307    6.1381   13.3428 O   0  0  0  0  0  0  0  0  0  0  0  0
   15.2021    5.5651   13.7385 C   0  0  0  0  0  0  0  0  0  0  0  0
   16.2511    4.6526   13.6388 C   0  0  0  0  0  0  0  0  0  0  0  0
   16.0652    3.3915   13.0602 C   0  0  0  0  0  0  0  0  0  0  0  0
   17.2568    2.4987   13.0161 C   0  0  0  0  0  0  0  0  0  0  0  0
   17.3329    1.4716   12.3635 O   0  0  0  0  0  0  0  0  0  0  0  0
   18.2814    2.8849   13.8051 O   0  0  0  0  0  0  0  0  0  0  0  0
   18.5570    4.2817   13.8785 C   0  0  0  0  0  0  0  0  0  0  0  0
   19.2339    4.7580   12.5879 C   0  0  0  0  0  0  0  0  0  0  0  0
   19.5244    4.4642   15.0496 C   0  0  0  0  0  0  0  0  0  0  0  0
   17.4283    5.1019   14.1596 O   0  0  0  0  0  0  0  0  0  0  0  0
   16.4580   -1.0505   14.5362 H   0  0  0  0  0  0  0  0  0  0  0  0
   14.9244   -1.6960   13.7040 H   0  0  0  0  0  0  0  0  0  0  0  0
   16.0301   -0.6839   12.9218 H   0  0  0  0  0  0  0  0  0  0  0  0
   15.6521   -0.1219   16.0996 H   0  0  0  0  0  0  0  0  0  0  0  0
   14.0861    0.5502   16.0590 H   0  0  0  0  0  0  0  0  0  0  0  0
   12.2131   -1.1518   14.6016 H   0  0  0  0  0  0  0  0  0  0  0  0
   11.1180   -3.2590   15.1662 H   0  0  0  0  0  0  0  0  0  0  0  0
   12.1403   -4.8048   16.8069 H   0  0  0  0  0  0  0  0  0  0  0  0
   14.2979   -4.2241   17.8938 H   0  0  0  0  0  0  0  0  0  0  0  0
   15.4582   -2.1439   17.2847 H   0  0  0  0  0  0  0  0  0  0  0  0
   13.8057    1.6885   11.1785 H   0  0  0  0  0  0  0  0  0  0  0  0
   15.3367    1.1092   11.6212 H   0  0  0  0  0  0  0  0  0  0  0  0
   13.2452    6.9373   13.7976 H   0  0  0  0  0  0  0  0  0  0  0  0
   15.3853    6.5330   14.1971 H   0  0  0  0  0  0  0  0  0  0  0  0
   20.1273    4.1643   12.3666 H   0  0  0  0  0  0  0  0  0  0  0  0
   19.5099    5.8160   12.6528 H   0  0  0  0  0  0  0  0  0  0  0  0
   18.5622    4.6583   11.7282 H   0  0  0  0  0  0  0  0  0  0  0  0
   20.4346    3.8700   14.9144 H   0  0  0  0  0  0  0  0  0  0  0  0
   19.0574    4.1307   15.9840 H   0  0  0  0  0  0  0  0  0  0  0  0
   19.7982    5.5163   15.1841 H   0  0  0  0  0  0  0  0  0  0  0  0
  1  2  1  0
  2  3  1  0
  3  4  1  0
  4  5  2  0
  5  6  1  0
  6  7  2  0
  7  8  1  0
  8  9  2  0
  2 10  1  0
 10 11  2  0
 10 12  1  0
 12 13  1  0
 13 14  2  0
 14 15  1  0
 14 16  1  0
 16 17  1  0
 16 18  2  0
 18 19  1  0
 19 20  2  0
 20 21  1  0
 21 22  2  0
 21 23  1  0
 23 24  1  0
 24 25  1  0
 24 26  1  0
 24 27  1  0
  9  4  1  0
 20 13  1  0
 27 19  1  0
  1 28  1  0
  1 29  1  0
  1 30  1  0
  3 31  1  0
  3 32  1  0
  5 33  1  0
  6 34  1  0
  7 35  1  0
  8 36  1  0
  9 37  1  0
 12 38  1  0
 12 39  1  0
 17 40  1  0
 18 41  1  0
 25 42  1  0
 25 43  1  0
 25 44  1  0
 26 45  1  0
 26 46  1  0
 26 47  1  0
M  END
>  <Energy>  (742) 
135.37578471101978

>  <compound_id>  (742) 
1011

>  <target_id>  (742) 
1

>  <reference_id>  (742) 
93

>  <inspiration_ids>  (742) 
[76, 93]

>  <energy_score>  (742) 
53.93638615528388

>  <distance_score>  (742) 
2.171974029608341

>  <path>  (742) 
/opt/xchem-fragalysis-2/maxwin/BulkDock/SCRATCH/505733/C1011-P93/C1011-P93.minimised.mol

>  <scratch_subdir>  (742) 
/opt/xchem-fragalysis-2/maxwin/BulkDock/SCRATCH/505733/C1011-P93

>  <fragmenstein_runtime>  (742) 
4.675883054733276

>  <fragmenstein_outcome>  (742) 
too moved

>  <fragmenstein_mode>  (742) 
expansion

>  <fragmenstein_error>  (742) 


$$$$
C1012-P76
     RDKit          3D

 45 48  0  0  0  0  0  0  0  0999 V2000
   17.8675    0.7000   15.5164 C   0  0  0  0  0  0  0  0  0  0  0  0
   16.3829    0.8273   15.8440 C   0  0  0  0  0  0  0  0  0  0  0  0
   16.1554    2.1367   16.6151 C   0  0  0  0  0  0  0  0  0  0  0  0
   16.0574   -0.2737   16.7422 O   0  0  0  0  0  0  0  0  0  0  0  0
   14.9473   -0.9884   16.4139 C   0  0  0  0  0  0  0  0  0  0  0  0
   14.6287   -2.1824   17.0570 C   0  0  0  0  0  0  0  0  0  0  0  0
   13.5021   -2.9035   16.6384 C   0  0  0  0  0  0  0  0  0  0  0  0
   13.2190   -4.0559   17.3173 O   0  0  0  0  0  0  0  0  0  0  0  0
   12.7149   -2.4448   15.5705 C   0  0  0  0  0  0  0  0  0  0  0  0
   11.1487   -3.2805   15.0433 Br  0  0  0  0  0  0  0  0  0  0  0  0
   13.0725   -1.2893   14.9107 C   0  0  0  0  0  0  0  0  0  0  0  0
   14.1329   -0.5529   15.3947 C   0  0  0  0  0  0  0  0  0  0  0  0
   14.3265    0.7230   14.6886 C   0  0  0  0  0  0  0  0  0  0  0  0
   15.7227    0.8930   14.5648 O   0  0  0  0  0  0  0  0  0  0  0  0
   13.5028    0.5253   13.3530 C   0  0  0  0  0  0  0  0  0  0  0  0
   12.6287    1.6687   13.2425 O   0  0  0  0  0  0  0  0  0  0  0  0
   14.3141    0.5816   12.1338 N   0  0  0  0  0  0  0  0  0  0  0  0
   14.8644   -0.6381   11.5603 C   0  0  0  0  0  0  0  0  0  0  0  0
   15.8613   -1.3634   12.4153 C   0  0  0  0  0  0  0  0  0  0  0  0
   17.2075   -1.0353   12.4290 C   0  0  0  0  0  0  0  0  0  0  0  0
   18.0531   -1.6911   13.3214 C   0  0  0  0  0  0  0  0  0  0  0  0
   17.5789   -2.6232   14.2424 C   0  0  0  0  0  0  0  0  0  0  0  0
   16.2509   -2.9666   14.2240 C   0  0  0  0  0  0  0  0  0  0  0  0
   15.4225   -2.3769   13.2702 C   0  0  0  0  0  0  0  0  0  0  0  0
   12.5638   -0.7079   13.6242 C   0  0  0  0  0  0  0  0  0  0  0  0
   18.4836    1.1145   16.3240 H   0  0  0  0  0  0  0  0  0  0  0  0
   18.1396    1.2143   14.5893 H   0  0  0  0  0  0  0  0  0  0  0  0
   18.1762   -0.3413   15.4610 H   0  0  0  0  0  0  0  0  0  0  0  0
   16.7742    2.1787   17.5184 H   0  0  0  0  0  0  0  0  0  0  0  0
   15.1189    2.2219   16.9580 H   0  0  0  0  0  0  0  0  0  0  0  0
   16.3692    3.0093   15.9892 H   0  0  0  0  0  0  0  0  0  0  0  0
   15.2492   -2.5524   17.8672 H   0  0  0  0  0  0  0  0  0  0  0  0
   12.3543   -4.3897   17.0120 H   0  0  0  0  0  0  0  0  0  0  0  0
   13.9055    1.5597   15.2571 H   0  0  0  0  0  0  0  0  0  0  0  0
   12.0174    1.6327   14.0089 H   0  0  0  0  0  0  0  0  0  0  0  0
   15.0848    1.2190   12.3372 H   0  0  0  0  0  0  0  0  0  0  0  0
   15.3595   -0.3671   10.6187 H   0  0  0  0  0  0  0  0  0  0  0  0
   14.0726   -1.3241   11.2516 H   0  0  0  0  0  0  0  0  0  0  0  0
   17.6027   -0.2643   11.7742 H   0  0  0  0  0  0  0  0  0  0  0  0
   19.1110   -1.4346   13.3292 H   0  0  0  0  0  0  0  0  0  0  0  0
   18.2580   -3.0878   14.9507 H   0  0  0  0  0  0  0  0  0  0  0  0
   15.8890   -3.7207   14.9124 H   0  0  0  0  0  0  0  0  0  0  0  0
   14.3937   -2.6779   13.1703 H   0  0  0  0  0  0  0  0  0  0  0  0
   11.5085   -0.4323   13.6851 H   0  0  0  0  0  0  0  0  0  0  0  0
   12.6600   -1.4743   12.8589 H   0  0  0  0  0  0  0  0  0  0  0  0
  1  2  1  0
  2  3  1  0
  2  4  1  0
  4  5  1  0
  5  6  2  0
  6  7  1  0
  7  8  1  0
  7  9  2  0
  9 10  1  0
  9 11  1  0
 11 12  2  0
 12 13  1  0
 13 14  1  0
 13 15  1  0
 15 16  1  0
 15 17  1  0
 17 18  1  0
 18 19  1  0
 19 20  2  0
 20 21  1  0
 21 22  2  0
 22 23  1  0
 23 24  2  0
 15 25  1  0
 14  2  1  0
 24 19  1  0
 12  5  1  0
 25 11  1  0
  1 26  1  0
  1 27  1  0
  1 28  1  0
  3 29  1  0
  3 30  1  0
  3 31  1  0
  6 32  1  0
  8 33  1  0
 13 34  1  0
 16 35  1  0
 17 36  1  0
 18 37  1  0
 18 38  1  0
 20 39  1  0
 21 40  1  0
 22 41  1  0
 23 42  1  0
 24 43  1  0
 25 44  1  0
 25 45  1  0
M  END
>  <Energy>  (743) 
88.012858810661243

>  <compound_id>  (743) 
1012

>  <target_id>  (743) 
1

>  <reference_id>  (743) 
76

>  <inspiration_ids>  (743) 
[76, 97]

>  <energy_score>  (743) 
-20.29669611149899

>  <distance_score>  (743) 
3.0742546450283115

>  <path>  (743) 
/opt/xchem-fragalysis-2/maxwin/BulkDock/SCRATCH/505733/C1012-P76/C1012-P76.minimised.mol

>  <scratch_subdir>  (743) 
/opt/xchem-fragalysis-2/maxwin/BulkDock/SCRATCH/505733/C1012-P76

>  <fragmenstein_runtime>  (743) 
11.73721981048584

>  <fragmenstein_outcome>  (743) 
too moved

>  <fragmenstein_mode>  (743) 
expansion

>  <fragmenstein_error>  (743) 


$$$$
C1012-P97
     RDKit          3D

 45 48  0  0  0  0  0  0  0  0999 V2000
   17.6261    0.6761   15.5867 C   0  0  0  0  0  0  0  0  0  0  0  0
   16.1809    1.0184   15.9409 C   0  0  0  0  0  0  0  0  0  0  0  0
   16.1231    2.4176   16.5639 C   0  0  0  0  0  0  0  0  0  0  0  0
   15.7667    0.0660   16.9566 O   0  0  0  0  0  0  0  0  0  0  0  0
   14.5965   -0.5829   16.7174 C   0  0  0  0  0  0  0  0  0  0  0  0
   14.2851   -1.7596   17.3809 C   0  0  0  0  0  0  0  0  0  0  0  0
   13.2020   -2.5259   16.9317 C   0  0  0  0  0  0  0  0  0  0  0  0
   13.0591   -3.7585   17.5116 O   0  0  0  0  0  0  0  0  0  0  0  0
   12.3769   -2.0789   15.8871 C   0  0  0  0  0  0  0  0  0  0  0  0
   11.1128   -3.1970   15.1078 Br  0  0  0  0  0  0  0  0  0  0  0  0
   12.6428   -0.8616   15.2965 C   0  0  0  0  0  0  0  0  0  0  0  0
   13.7609   -0.1576   15.7157 C   0  0  0  0  0  0  0  0  0  0  0  0
   14.1013    0.9473   14.7997 C   0  0  0  0  0  0  0  0  0  0  0  0
   15.5001    1.0361   14.6773 O   0  0  0  0  0  0  0  0  0  0  0  0
   13.3447    0.5293   13.4780 C   0  0  0  0  0  0  0  0  0  0  0  0
   12.9156    1.7161   12.8131 O   0  0  0  0  0  0  0  0  0  0  0  0
   13.9003   -0.3103   12.4182 N   0  0  0  0  0  0  0  0  0  0  0  0
   15.3361   -0.4765   12.2631 C   0  0  0  0  0  0  0  0  0  0  0  0
   15.9811   -1.5147   13.1513 C   0  0  0  0  0  0  0  0  0  0  0  0
   17.3651   -1.6666   13.1406 C   0  0  0  0  0  0  0  0  0  0  0  0
   17.9741   -2.5447   14.0395 C   0  0  0  0  0  0  0  0  0  0  0  0
   17.2373   -3.2642   14.9725 C   0  0  0  0  0  0  0  0  0  0  0  0
   15.8676   -3.1745   14.9511 C   0  0  0  0  0  0  0  0  0  0  0  0
   15.2519   -2.3466   14.0072 C   0  0  0  0  0  0  0  0  0  0  0  0
   12.0880   -0.2181   14.0540 C   0  0  0  0  0  0  0  0  0  0  0  0
   17.7520   -0.3977   15.4800 H   0  0  0  0  0  0  0  0  0  0  0  0
   18.3052    0.9587   16.3998 H   0  0  0  0  0  0  0  0  0  0  0  0
   17.9598    1.1691   14.6679 H   0  0  0  0  0  0  0  0  0  0  0  0
   16.7410    2.4774   17.4665 H   0  0  0  0  0  0  0  0  0  0  0  0
   15.1015    2.6669   16.8709 H   0  0  0  0  0  0  0  0  0  0  0  0
   16.4467    3.1845   15.8525 H   0  0  0  0  0  0  0  0  0  0  0  0
   14.9388   -2.1409   18.1597 H   0  0  0  0  0  0  0  0  0  0  0  0
   12.1942   -4.1281   17.2520 H   0  0  0  0  0  0  0  0  0  0  0  0
   13.7038    1.9003   15.1708 H   0  0  0  0  0  0  0  0  0  0  0  0
   13.7374    2.1972   12.6120 H   0  0  0  0  0  0  0  0  0  0  0  0
   13.5150    0.0519   11.5506 H   0  0  0  0  0  0  0  0  0  0  0  0
   15.5002   -0.8264   11.2349 H   0  0  0  0  0  0  0  0  0  0  0  0
   15.8531    0.4867   12.3341 H   0  0  0  0  0  0  0  0  0  0  0  0
   17.9825   -1.0800   12.4661 H   0  0  0  0  0  0  0  0  0  0  0  0
   19.0579   -2.6399   14.0348 H   0  0  0  0  0  0  0  0  0  0  0  0
   17.7351   -3.9211   15.6788 H   0  0  0  0  0  0  0  0  0  0  0  0
   15.2860   -3.7868   15.6315 H   0  0  0  0  0  0  0  0  0  0  0  0
   14.1751   -2.3463   13.9240 H   0  0  0  0  0  0  0  0  0  0  0  0
   11.2802    0.4789   14.3046 H   0  0  0  0  0  0  0  0  0  0  0  0
   11.7055   -0.9522   13.3456 H   0  0  0  0  0  0  0  0  0  0  0  0
  1  2  1  0
  2  3  1  0
  2  4  1  0
  4  5  1  0
  5  6  2  0
  6  7  1  0
  7  8  1  0
  7  9  2  0
  9 10  1  0
  9 11  1  0
 11 12  2  0
 12 13  1  0
 13 14  1  0
 13 15  1  0
 15 16  1  0
 15 17  1  0
 17 18  1  0
 18 19  1  0
 19 20  2  0
 20 21  1  0
 21 22  2  0
 22 23  1  0
 23 24  2  0
 15 25  1  0
 14  2  1  0
 24 19  1  0
 12  5  1  0
 25 11  1  0
  1 26  1  0
  1 27  1  0
  1 28  1  0
  3 29  1  0
  3 30  1  0
  3 31  1  0
  6 32  1  0
  8 33  1  0
 13 34  1  0
 16 35  1  0
 17 36  1  0
 18 37  1  0
 18 38  1  0
 20 39  1  0
 21 40  1  0
 22 41  1  0
 23 42  1  0
 24 43  1  0
 25 44  1  0
 25 45  1  0
M  END
>  <Energy>  (744) 
87.464536658308518

>  <compound_id>  (744) 
1012

>  <target_id>  (744) 
1

>  <reference_id>  (744) 
97

>  <inspiration_ids>  (744) 
[76, 97]

>  <energy_score>  (744) 
-20.845018263852296

>  <distance_score>  (744) 
2.9793894895268926

>  <path>  (744) 
/opt/xchem-fragalysis-2/maxwin/BulkDock/SCRATCH/505733/C1012-P97/C1012-P97.minimised.mol

>  <scratch_subdir>  (744) 
/opt/xchem-fragalysis-2/maxwin/BulkDock/SCRATCH/505733/C1012-P97

>  <fragmenstein_runtime>  (744) 
12.185168981552124

>  <fragmenstein_outcome>  (744) 
too moved

>  <fragmenstein_mode>  (744) 
expansion

>  <fragmenstein_error>  (744) 


$$$$
C1015-P76
     RDKit          3D

 51 53  0  0  0  0  0  0  0  0999 V2000
   11.3940   -3.2203   14.7746 C   0  0  0  0  0  0  0  0  0  0  0  0
   12.1915   -3.0431   16.0476 C   0  0  0  0  0  0  0  0  0  0  0  0
   13.6727   -2.6832   15.9568 C   0  0  0  0  0  0  0  0  0  0  0  0
   14.1493   -1.6444   14.9745 C   0  0  0  0  0  0  0  0  0  0  0  0
   13.2934   -0.8661   14.1957 C   0  0  0  0  0  0  0  0  0  0  0  0
   13.7881    0.0356   13.2593 C   0  0  0  0  0  0  0  0  0  0  0  0
   15.1532    0.2427   13.1399 C   0  0  0  0  0  0  0  0  0  0  0  0
   15.6219    1.1118   12.1977 O   0  0  0  0  0  0  0  0  0  0  0  0
   15.8385    2.4979   12.5972 C   0  0  0  0  0  0  0  0  0  0  0  0
   16.7970    2.5755   13.8053 C   0  0  0  0  0  0  0  0  0  0  0  0
   16.6207    3.0923   11.4003 C   0  0  0  0  0  0  0  0  0  0  0  0
   14.4943    3.2965   12.8489 C   0  0  0  0  0  0  0  0  0  0  0  0
   13.5117    3.1249   11.6580 C   0  0  0  0  0  0  0  0  0  0  0  0
   12.2911    2.9714   11.7580 O   0  0  0  0  0  0  0  0  0  0  0  0
   14.6695    4.7599   13.0239 N   0  0  0  0  0  0  0  0  0  0  0  0
   13.5879    5.1371   13.9496 N   0  0  0  0  0  0  0  0  0  0  0  0
   13.3144    3.9192   14.7170 C   0  0  0  0  0  0  0  0  0  0  0  0
   13.9964    3.9334   16.0464 C   0  0  0  0  0  0  0  0  0  0  0  0
   14.2520    4.9437   16.9546 C   0  0  0  0  0  0  0  0  0  0  0  0
   14.9488    4.3753   18.0487 C   0  0  0  0  0  0  0  0  0  0  0  0
   15.0940    3.0315   17.7919 C   0  0  0  0  0  0  0  0  0  0  0  0
   14.5013    2.7709   16.5877 N   0  0  0  0  0  0  0  0  0  0  0  0
   13.8630    2.8084   14.0280 O   0  0  0  0  0  0  0  0  0  0  0  0
   16.0347   -0.5313   13.8888 C   0  0  0  0  0  0  0  0  0  0  0  0
   15.5269   -1.4540   14.8054 C   0  0  0  0  0  0  0  0  0  0  0  0
   16.3780   -2.2038   15.5707 O   0  0  0  0  0  0  0  0  0  0  0  0
   10.7290   -4.0716   14.8795 H   0  0  0  0  0  0  0  0  0  0  0  0
   11.9996   -3.3593   13.8790 H   0  0  0  0  0  0  0  0  0  0  0  0
   10.7353   -2.3617   14.6261 H   0  0  0  0  0  0  0  0  0  0  0  0
   11.6906   -2.2587   16.6004 H   0  0  0  0  0  0  0  0  0  0  0  0
   12.1067   -3.9532   16.6541 H   0  0  0  0  0  0  0  0  0  0  0  0
   14.2282   -3.6114   15.7900 H   0  0  0  0  0  0  0  0  0  0  0  0
   13.9842   -2.3509   16.9570 H   0  0  0  0  0  0  0  0  0  0  0  0
   12.2161   -0.9270   14.2740 H   0  0  0  0  0  0  0  0  0  0  0  0
   13.0803    0.5853   12.6471 H   0  0  0  0  0  0  0  0  0  0  0  0
   17.1026    3.6025   14.0272 H   0  0  0  0  0  0  0  0  0  0  0  0
   17.7090    1.9970   13.6150 H   0  0  0  0  0  0  0  0  0  0  0  0
   16.3542    2.1578   14.7111 H   0  0  0  0  0  0  0  0  0  0  0  0
   16.0766    2.9764   10.4581 H   0  0  0  0  0  0  0  0  0  0  0  0
   16.8590    4.1510   11.5413 H   0  0  0  0  0  0  0  0  0  0  0  0
   17.5656    2.5532   11.2556 H   0  0  0  0  0  0  0  0  0  0  0  0
   13.9567    3.2220   10.6556 H   0  0  0  0  0  0  0  0  0  0  0  0
   15.5517    4.9204   13.5183 H   0  0  0  0  0  0  0  0  0  0  0  0
   12.7356    5.3356   13.4165 H   0  0  0  0  0  0  0  0  0  0  0  0
   12.2378    3.7696   14.8541 H   0  0  0  0  0  0  0  0  0  0  0  0
   13.9787    5.9842   16.8302 H   0  0  0  0  0  0  0  0  0  0  0  0
   15.3096    4.8938   18.9277 H   0  0  0  0  0  0  0  0  0  0  0  0
   15.5658    2.2415   18.3607 H   0  0  0  0  0  0  0  0  0  0  0  0
   14.4569    1.8708   16.1212 H   0  0  0  0  0  0  0  0  0  0  0  0
   17.1036   -0.4116   13.7517 H   0  0  0  0  0  0  0  0  0  0  0  0
   17.2740   -2.1274   15.2032 H   0  0  0  0  0  0  0  0  0  0  0  0
  1  2  1  0
  2  3  1  0
  3  4  1  0
  4  5  2  0
  5  6  1  0
  6  7  2  0
  7  8  1  0
  8  9  1  0
  9 10  1  0
  9 11  1  0
  9 12  1  0
 12 13  1  0
 13 14  2  0
 12 15  1  0
 15 16  1  0
 16 17  1  0
 17 18  1  0
 18 19  2  0
 19 20  1  0
 20 21  2  0
 21 22  1  0
 17 23  1  0
  7 24  1  0
 24 25  2  0
 25 26  1  0
 25  4  1  0
 23 12  1  0
 22 18  1  0
  1 27  1  0
  1 28  1  0
  1 29  1  0
  2 30  1  0
  2 31  1  0
  3 32  1  0
  3 33  1  0
  5 34  1  0
  6 35  1  0
 10 36  1  0
 10 37  1  0
 10 38  1  0
 11 39  1  0
 11 40  1  0
 11 41  1  0
 13 42  1  0
 15 43  1  0
 16 44  1  0
 17 45  1  0
 19 46  1  0
 20 47  1  0
 21 48  1  0
 22 49  1  0
 24 50  1  0
 26 51  1  0
M  END
>  <Energy>  (745) 
122.82966732656975

>  <compound_id>  (745) 
1015

>  <target_id>  (745) 
1

>  <reference_id>  (745) 
76

>  <inspiration_ids>  (745) 
[76, 113]

>  <energy_score>  (745) 
-40.2938152739149

>  <distance_score>  (745) 
2.6486043793519785

>  <path>  (745) 
/opt/xchem-fragalysis-2/maxwin/BulkDock/SCRATCH/505733/C1015-P76/C1015-P76.minimised.mol

>  <scratch_subdir>  (745) 
/opt/xchem-fragalysis-2/maxwin/BulkDock/SCRATCH/505733/C1015-P76

>  <fragmenstein_runtime>  (745) 
6.265679597854614

>  <fragmenstein_outcome>  (745) 
too moved

>  <fragmenstein_mode>  (745) 
expansion

>  <fragmenstein_error>  (745) 


$$$$
C1015-P113
     RDKit          3D

 51 53  0  0  0  0  0  0  0  0999 V2000
   10.5899   -0.6317   14.3148 C   0  0  0  0  0  0  0  0  0  0  0  0
   10.5387   -1.8972   15.1657 C   0  0  0  0  0  0  0  0  0  0  0  0
   11.8769   -2.6427   15.3585 C   0  0  0  0  0  0  0  0  0  0  0  0
   13.0005   -1.8419   15.9517 C   0  0  0  0  0  0  0  0  0  0  0  0
   12.7589   -0.5953   16.4585 C   0  0  0  0  0  0  0  0  0  0  0  0
   13.7290    0.3681   16.3121 C   0  0  0  0  0  0  0  0  0  0  0  0
   14.8901    0.1032   15.6135 C   0  0  0  0  0  0  0  0  0  0  0  0
   15.6407    1.1393   15.1614 O   0  0  0  0  0  0  0  0  0  0  0  0
   15.4449    1.5202   13.7580 C   0  0  0  0  0  0  0  0  0  0  0  0
   16.4994    2.6322   13.5658 C   0  0  0  0  0  0  0  0  0  0  0  0
   15.9271    0.4005   12.8000 C   0  0  0  0  0  0  0  0  0  0  0  0
   13.9880    2.0821   13.3811 C   0  0  0  0  0  0  0  0  0  0  0  0
   13.1362    1.0096   12.6866 C   0  0  0  0  0  0  0  0  0  0  0  0
   12.3560    1.2417   11.7587 O   0  0  0  0  0  0  0  0  0  0  0  0
   13.9893    3.2775   12.4984 N   0  0  0  0  0  0  0  0  0  0  0  0
   13.7097    4.4080   13.4061 N   0  0  0  0  0  0  0  0  0  0  0  0
   13.1034    3.8172   14.5949 C   0  0  0  0  0  0  0  0  0  0  0  0
   13.7614    4.1203   15.8959 C   0  0  0  0  0  0  0  0  0  0  0  0
   14.9668    4.7026   16.2446 C   0  0  0  0  0  0  0  0  0  0  0  0
   15.1946    4.4548   17.6167 C   0  0  0  0  0  0  0  0  0  0  0  0
   14.0865    3.8051   18.0981 C   0  0  0  0  0  0  0  0  0  0  0  0
   13.1771    3.7112   17.0781 N   0  0  0  0  0  0  0  0  0  0  0  0
   13.1701    2.4048   14.5024 O   0  0  0  0  0  0  0  0  0  0  0  0
   15.2904   -1.2111   15.5482 C   0  0  0  0  0  0  0  0  0  0  0  0
   14.3425   -2.1813   15.8429 C   0  0  0  0  0  0  0  0  0  0  0  0
   14.7840   -3.4270   16.1595 O   0  0  0  0  0  0  0  0  0  0  0  0
   11.1129   -0.8174   13.3757 H   0  0  0  0  0  0  0  0  0  0  0  0
   11.0719    0.2155   14.8021 H   0  0  0  0  0  0  0  0  0  0  0  0
    9.5720   -0.2916   14.1040 H   0  0  0  0  0  0  0  0  0  0  0  0
   10.1135   -1.6172   16.1282 H   0  0  0  0  0  0  0  0  0  0  0  0
    9.8323   -2.6001   14.7113 H   0  0  0  0  0  0  0  0  0  0  0  0
   12.1849   -2.9859   14.3648 H   0  0  0  0  0  0  0  0  0  0  0  0
   11.7052   -3.5249   15.9853 H   0  0  0  0  0  0  0  0  0  0  0  0
   11.7816   -0.2871   16.7929 H   0  0  0  0  0  0  0  0  0  0  0  0
   13.5148    1.3738   16.6243 H   0  0  0  0  0  0  0  0  0  0  0  0
   16.5637    2.9866   12.5317 H   0  0  0  0  0  0  0  0  0  0  0  0
   17.4966    2.2683   13.8469 H   0  0  0  0  0  0  0  0  0  0  0  0
   16.3172    3.4827   14.2212 H   0  0  0  0  0  0  0  0  0  0  0  0
   15.3192   -0.5056   12.8685 H   0  0  0  0  0  0  0  0  0  0  0  0
   15.9138    0.7338   11.7564 H   0  0  0  0  0  0  0  0  0  0  0  0
   16.9489    0.0888   13.0485 H   0  0  0  0  0  0  0  0  0  0  0  0
   13.1973   -0.0022   13.1173 H   0  0  0  0  0  0  0  0  0  0  0  0
   13.1958    3.1635   11.8502 H   0  0  0  0  0  0  0  0  0  0  0  0
   14.5794    4.8690   13.6751 H   0  0  0  0  0  0  0  0  0  0  0  0
   12.0468    4.1048   14.6398 H   0  0  0  0  0  0  0  0  0  0  0  0
   15.6721    5.1764   15.5753 H   0  0  0  0  0  0  0  0  0  0  0  0
   16.0744    4.7168   18.1902 H   0  0  0  0  0  0  0  0  0  0  0  0
   13.8432    3.4390   19.0872 H   0  0  0  0  0  0  0  0  0  0  0  0
   12.2656    3.2802   17.1679 H   0  0  0  0  0  0  0  0  0  0  0  0
   16.3091   -1.4837   15.2994 H   0  0  0  0  0  0  0  0  0  0  0  0
   14.0645   -3.8903   16.6229 H   0  0  0  0  0  0  0  0  0  0  0  0
  1  2  1  0
  2  3  1  0
  3  4  1  0
  4  5  2  0
  5  6  1  0
  6  7  2  0
  7  8  1  0
  8  9  1  0
  9 10  1  0
  9 11  1  0
  9 12  1  0
 12 13  1  0
 13 14  2  0
 12 15  1  0
 15 16  1  0
 16 17  1  0
 17 18  1  0
 18 19  2  0
 19 20  1  0
 20 21  2  0
 21 22  1  0
 17 23  1  0
  7 24  1  0
 24 25  2  0
 25 26  1  0
 25  4  1  0
 23 12  1  0
 22 18  1  0
  1 27  1  0
  1 28  1  0
  1 29  1  0
  2 30  1  0
  2 31  1  0
  3 32  1  0
  3 33  1  0
  5 34  1  0
  6 35  1  0
 10 36  1  0
 10 37  1  0
 10 38  1  0
 11 39  1  0
 11 40  1  0
 11 41  1  0
 13 42  1  0
 15 43  1  0
 16 44  1  0
 17 45  1  0
 19 46  1  0
 20 47  1  0
 21 48  1  0
 22 49  1  0
 24 50  1  0
 26 51  1  0
M  END
>  <Energy>  (746) 
160.84208697109329

>  <compound_id>  (746) 
1015

>  <target_id>  (746) 
1

>  <reference_id>  (746) 
113

>  <inspiration_ids>  (746) 
[76, 113]

>  <energy_score>  (746) 
-15.141145599344839

>  <distance_score>  (746) 
2.15598839003036

>  <path>  (746) 
/opt/xchem-fragalysis-2/maxwin/BulkDock/SCRATCH/505733/C1015-P113/C1015-P113.minimised.mol

>  <scratch_subdir>  (746) 
/opt/xchem-fragalysis-2/maxwin/BulkDock/SCRATCH/505733/C1015-P113

>  <fragmenstein_runtime>  (746) 
3.9368677139282227

>  <fragmenstein_outcome>  (746) 
too moved

>  <fragmenstein_mode>  (746) 
expansion

>  <fragmenstein_error>  (746) 


$$$$
C1016-P76
     RDKit          3D

 49 52  0  0  0  0  0  0  0  0999 V2000
   14.7201   -2.0373   12.1429 C   0  0  0  0  0  0  0  0  0  0  0  0
   15.6999   -1.5621   13.1972 C   0  0  0  0  0  0  0  0  0  0  0  0
   16.6603   -2.5130   13.6801 C   0  0  0  0  0  0  0  0  0  0  0  0
   16.8243   -1.2750   14.4829 C   0  0  0  0  0  0  0  0  0  0  0  0
   16.7781   -1.3205   16.4289 C   0  0  0  0  0  0  0  0  0  0  0  0
   15.6591    0.0334   17.1689 C   0  0  0  0  0  0  0  0  0  0  0  0
   15.1486    1.5574   16.1927 C   0  0  0  0  0  0  0  0  0  0  0  0
   15.1931    1.5911   14.4369 C   0  0  0  0  0  0  0  0  0  0  0  0
   15.6667    0.3015   13.8043 N   0  0  0  0  0  0  0  0  0  0  0  0
   15.8581    2.4026   13.2450 C   0  0  0  0  0  0  0  0  0  0  0  0
   14.9745    3.4020   12.7247 O   0  0  0  0  0  0  0  0  0  0  0  0
   16.2259    1.3222   11.8919 C   0  0  0  0  0  0  0  0  0  0  0  0
   16.9062   -0.2085   12.3599 C   0  0  0  0  0  0  0  0  0  0  0  0
   17.8427    0.5189   13.6670 C   0  0  0  0  0  0  0  0  0  0  0  0
   16.8089    0.4042   15.2780 C   0  0  0  0  0  0  0  0  0  0  0  0
   17.4272    1.0248   16.1654 O   0  0  0  0  0  0  0  0  0  0  0  0
   15.0974   -0.9278   15.0418 C   0  0  0  0  0  0  0  0  0  0  0  0
   14.5860   -2.3063   15.8466 C   0  0  0  0  0  0  0  0  0  0  0  0
   13.1028   -2.5590   15.6388 C   0  0  0  0  0  0  0  0  0  0  0  0
   12.6917   -1.5163   14.6714 C   0  0  0  0  0  0  0  0  0  0  0  0
   13.6109   -0.4188   14.9579 N   0  0  0  0  0  0  0  0  0  0  0  0
   15.2686   -2.3582   11.2515 H   0  0  0  0  0  0  0  0  0  0  0  0
   14.1279   -2.8867   12.4655 H   0  0  0  0  0  0  0  0  0  0  0  0
   14.0449   -1.2375   11.8278 H   0  0  0  0  0  0  0  0  0  0  0  0
   16.3284   -3.4024   14.1923 H   0  0  0  0  0  0  0  0  0  0  0  0
   17.4543   -2.7271   12.9612 H   0  0  0  0  0  0  0  0  0  0  0  0
   17.9299   -1.2452   14.4609 H   0  0  0  0  0  0  0  0  0  0  0  0
   17.8064   -1.0912   16.7637 H   0  0  0  0  0  0  0  0  0  0  0  0
   16.6149   -2.3212   16.8403 H   0  0  0  0  0  0  0  0  0  0  0  0
   16.1898    0.4013   18.0604 H   0  0  0  0  0  0  0  0  0  0  0  0
   14.7404   -0.4069   17.5573 H   0  0  0  0  0  0  0  0  0  0  0  0
   15.7137    2.4170   16.5813 H   0  0  0  0  0  0  0  0  0  0  0  0
   14.1146    1.7441   16.4751 H   0  0  0  0  0  0  0  0  0  0  0  0
   14.1400    1.8269   14.2348 H   0  0  0  0  0  0  0  0  0  0  0  0
   14.8463    0.0201   13.2390 H   0  0  0  0  0  0  0  0  0  0  0  0
   16.7587    2.9288   13.5698 H   0  0  0  0  0  0  0  0  0  0  0  0
   14.2121    2.9434   12.3354 H   0  0  0  0  0  0  0  0  0  0  0  0
   16.9579    1.8494   11.2687 H   0  0  0  0  0  0  0  0  0  0  0  0
   15.3199    1.1531   11.2971 H   0  0  0  0  0  0  0  0  0  0  0  0
   17.5203   -0.6619   11.5768 H   0  0  0  0  0  0  0  0  0  0  0  0
   18.1064    1.5601   13.4744 H   0  0  0  0  0  0  0  0  0  0  0  0
   18.8292    0.0402   13.7625 H   0  0  0  0  0  0  0  0  0  0  0  0
   15.1180   -3.2138   15.5759 H   0  0  0  0  0  0  0  0  0  0  0  0
   14.6688   -2.2433   16.9358 H   0  0  0  0  0  0  0  0  0  0  0  0
   12.8671   -3.5632   15.2969 H   0  0  0  0  0  0  0  0  0  0  0  0
   12.5675   -2.4631   16.5883 H   0  0  0  0  0  0  0  0  0  0  0  0
   11.6457   -1.2409   14.8128 H   0  0  0  0  0  0  0  0  0  0  0  0
   12.7606   -1.8562   13.6422 H   0  0  0  0  0  0  0  0  0  0  0  0
   13.4311    0.2499   14.2262 H   0  0  0  0  0  0  0  0  0  0  0  0
  1  2  1  0
  2  3  1  0
  3  4  1  0
  4  5  1  0
  5  6  1  0
  6  7  1  0
  7  8  1  0
  8  9  1  0
  8 10  1  0
 10 11  1  0
 10 12  1  0
 12 13  1  0
 13 14  1  0
 14 15  1  0
 15 16  2  0
 15 17  1  0
 17 18  1  0
 18 19  1  0
 19 20  1  0
 20 21  1  0
 13  2  1  0
 21 17  1  0
 17  2  1  0
  9  4  1  0
  1 22  1  0
  1 23  1  0
  1 24  1  0
  3 25  1  0
  3 26  1  0
  4 27  1  0
  5 28  1  0
  5 29  1  0
  6 30  1  0
  6 31  1  0
  7 32  1  0
  7 33  1  0
  8 34  1  0
  9 35  1  0
 10 36  1  0
 11 37  1  0
 12 38  1  0
 12 39  1  0
 13 40  1  0
 14 41  1  0
 14 42  1  0
 18 43  1  0
 18 44  1  0
 19 45  1  0
 19 46  1  0
 20 47  1  0
 20 48  1  0
 21 49  1  0
M  END
>  <Energy>  (747) 
1341.9591959126606

>  <compound_id>  (747) 
1016

>  <target_id>  (747) 
1

>  <reference_id>  (747) 
76

>  <inspiration_ids>  (747) 
[76, 114]

>  <energy_score>  (747) 
1155.1289256134116

>  <distance_score>  (747) 
3.6027397387406084

>  <path>  (747) 
/opt/xchem-fragalysis-2/maxwin/BulkDock/SCRATCH/505733/C1016-P76/C1016-P76.minimised.mol

>  <scratch_subdir>  (747) 
/opt/xchem-fragalysis-2/maxwin/BulkDock/SCRATCH/505733/C1016-P76

>  <fragmenstein_runtime>  (747) 
4.118566274642944

>  <fragmenstein_outcome>  (747) 
too moved

>  <fragmenstein_mode>  (747) 
expansion

>  <fragmenstein_error>  (747) 


$$$$
C1016-P114
     RDKit          3D

 49 52  0  0  0  0  0  0  0  0999 V2000
   13.4653   -1.7747   13.8369 C   0  0  0  0  0  0  0  0  0  0  0  0
   13.5467   -0.9363   15.1260 C   0  0  0  0  0  0  0  0  0  0  0  0
   12.0736   -0.5721   15.5867 C   0  0  0  0  0  0  0  0  0  0  0  0
   11.6294    0.7327   14.9942 C   0  0  0  0  0  0  0  0  0  0  0  0
   10.3520    1.4225   15.3940 C   0  0  0  0  0  0  0  0  0  0  0  0
   10.5190    2.8810   14.9151 C   0  0  0  0  0  0  0  0  0  0  0  0
   11.2507    3.0691   13.5548 C   0  0  0  0  0  0  0  0  0  0  0  0
   12.0375    1.8720   12.9599 C   0  0  0  0  0  0  0  0  0  0  0  0
   11.6271    0.6134   13.5444 N   0  0  0  0  0  0  0  0  0  0  0  0
   13.6065    1.9201   12.9665 C   0  0  0  0  0  0  0  0  0  0  0  0
   14.1144    0.9873   12.0041 O   0  0  0  0  0  0  0  0  0  0  0  0
   14.3684    1.6894   14.2877 C   0  0  0  0  0  0  0  0  0  0  0  0
   14.5658    0.2882   14.9957 C   0  0  0  0  0  0  0  0  0  0  0  0
   14.9201    0.6036   16.4705 C   0  0  0  0  0  0  0  0  0  0  0  0
   14.6948   -0.6842   17.2108 C   0  0  0  0  0  0  0  0  0  0  0  0
   14.9170   -0.7862   18.4127 O   0  0  0  0  0  0  0  0  0  0  0  0
   14.2122   -1.7971   16.2770 C   0  0  0  0  0  0  0  0  0  0  0  0
   15.4332   -2.6579   15.9454 C   0  0  0  0  0  0  0  0  0  0  0  0
   15.4802   -3.6971   17.0637 C   0  0  0  0  0  0  0  0  0  0  0  0
   14.1217   -3.6358   17.7456 C   0  0  0  0  0  0  0  0  0  0  0  0
   13.2894   -2.7569   16.9185 N   0  0  0  0  0  0  0  0  0  0  0  0
   14.4552   -1.9842   13.4205 H   0  0  0  0  0  0  0  0  0  0  0  0
   12.8929   -1.3128   13.0406 H   0  0  0  0  0  0  0  0  0  0  0  0
   12.9559   -2.7218   14.0338 H   0  0  0  0  0  0  0  0  0  0  0  0
   12.0392   -0.4662   16.6744 H   0  0  0  0  0  0  0  0  0  0  0  0
   11.3734   -1.3799   15.3361 H   0  0  0  0  0  0  0  0  0  0  0  0
   12.3726    1.4259   15.3759 H   0  0  0  0  0  0  0  0  0  0  0  0
   10.1992    1.4107   16.4767 H   0  0  0  0  0  0  0  0  0  0  0  0
    9.4779    0.9409   14.9472 H   0  0  0  0  0  0  0  0  0  0  0  0
   11.1084    3.4136   15.6747 H   0  0  0  0  0  0  0  0  0  0  0  0
    9.5466    3.3859   14.8958 H   0  0  0  0  0  0  0  0  0  0  0  0
   11.8976    3.9527   13.6143 H   0  0  0  0  0  0  0  0  0  0  0  0
   10.4702    3.3310   12.8282 H   0  0  0  0  0  0  0  0  0  0  0  0
   11.7626    1.8253   11.8965 H   0  0  0  0  0  0  0  0  0  0  0  0
   10.7051    0.3042   13.2146 H   0  0  0  0  0  0  0  0  0  0  0  0
   13.8931    2.9113   12.5936 H   0  0  0  0  0  0  0  0  0  0  0  0
   13.5149    0.2226   12.0554 H   0  0  0  0  0  0  0  0  0  0  0  0
   14.0212    2.4454   15.0044 H   0  0  0  0  0  0  0  0  0  0  0  0
   15.4006    2.0154   14.0786 H   0  0  0  0  0  0  0  0  0  0  0  0
   15.4682   -0.1359   14.5284 H   0  0  0  0  0  0  0  0  0  0  0  0
   15.9636    0.9164   16.5663 H   0  0  0  0  0  0  0  0  0  0  0  0
   14.2565    1.3564   16.9075 H   0  0  0  0  0  0  0  0  0  0  0  0
   16.3720   -2.0939   15.9074 H   0  0  0  0  0  0  0  0  0  0  0  0
   15.3333   -3.1859   14.9961 H   0  0  0  0  0  0  0  0  0  0  0  0
   15.6817   -4.6914   16.6518 H   0  0  0  0  0  0  0  0  0  0  0  0
   16.2773   -3.4624   17.7778 H   0  0  0  0  0  0  0  0  0  0  0  0
   14.2095   -3.2344   18.7606 H   0  0  0  0  0  0  0  0  0  0  0  0
   13.6663   -4.6267   17.8338 H   0  0  0  0  0  0  0  0  0  0  0  0
   12.8575   -3.3323   16.1947 H   0  0  0  0  0  0  0  0  0  0  0  0
  1  2  1  0
  2  3  1  0
  3  4  1  0
  4  5  1  0
  5  6  1  0
  6  7  1  0
  7  8  1  0
  8  9  1  0
  8 10  1  0
 10 11  1  0
 10 12  1  0
 12 13  1  0
 13 14  1  0
 14 15  1  0
 15 16  2  0
 15 17  1  0
 17 18  1  0
 18 19  1  0
 19 20  1  0
 20 21  1  0
 13  2  1  0
 21 17  1  0
 17  2  1  0
  9  4  1  0
  1 22  1  0
  1 23  1  0
  1 24  1  0
  3 25  1  0
  3 26  1  0
  4 27  1  0
  5 28  1  0
  5 29  1  0
  6 30  1  0
  6 31  1  0
  7 32  1  0
  7 33  1  0
  8 34  1  0
  9 35  1  0
 10 36  1  0
 11 37  1  0
 12 38  1  0
 12 39  1  0
 13 40  1  0
 14 41  1  0
 14 42  1  0
 18 43  1  0
 18 44  1  0
 19 45  1  0
 19 46  1  0
 20 47  1  0
 20 48  1  0
 21 49  1  0
M  END
>  <Energy>  (748) 
139.61540390057169

>  <compound_id>  (748) 
1016

>  <target_id>  (748) 
1

>  <reference_id>  (748) 
114

>  <inspiration_ids>  (748) 
[76, 114]

>  <energy_score>  (748) 
-47.214866398676406

>  <distance_score>  (748) 
2.649255167637403

>  <path>  (748) 
/opt/xchem-fragalysis-2/maxwin/BulkDock/SCRATCH/505733/C1016-P114/C1016-P114.minimised.mol

>  <scratch_subdir>  (748) 
/opt/xchem-fragalysis-2/maxwin/BulkDock/SCRATCH/505733/C1016-P114

>  <fragmenstein_runtime>  (748) 
4.419434547424316

>  <fragmenstein_outcome>  (748) 
too moved

>  <fragmenstein_mode>  (748) 
expansion

>  <fragmenstein_error>  (748) 


$$$$
C1017-P76
     RDKit          3D

 56 57  0  0  0  0  0  0  0  0999 V2000
   16.8762    0.8874   22.9682 C   0  0  0  0  0  0  0  0  0  0  0  0
   16.7388    0.8715   21.4526 C   0  0  0  0  0  0  0  0  0  0  0  0
   17.1576    2.1951   20.8472 C   0  0  0  0  0  0  0  0  0  0  0  0
   16.9964    2.1895   19.3650 C   0  0  0  0  0  0  0  0  0  0  0  0
   18.0992    1.9505   18.5380 C   0  0  0  0  0  0  0  0  0  0  0  0
   17.9493    1.8842   17.1451 C   0  0  0  0  0  0  0  0  0  0  0  0
   16.7020    2.1184   16.5381 C   0  0  0  0  0  0  0  0  0  0  0  0
   16.3913    1.5443   15.1095 C   0  0  0  0  0  0  0  0  0  0  0  0
   16.2163    2.5697   14.1386 O   0  0  0  0  0  0  0  0  0  0  0  0
   17.5625    0.8820   14.6724 O   0  0  0  0  0  0  0  0  0  0  0  0
   15.1445    0.5235   15.0946 C   0  0  0  0  0  0  0  0  0  0  0  0
   15.0136   -0.0274   16.5233 C   0  0  0  0  0  0  0  0  0  0  0  0
   13.8921    1.3572   14.7319 C   0  0  0  0  0  0  0  0  0  0  0  0
   15.2126   -0.8092   14.1250 C   0  0  0  0  0  0  0  0  0  0  0  0
   15.8127   -0.4604   12.7180 C   0  0  0  0  0  0  0  0  0  0  0  0
   15.2299    0.6754   12.1020 O   0  0  0  0  0  0  0  0  0  0  0  0
   16.1042   -1.9562   14.7036 C   0  0  0  0  0  0  0  0  0  0  0  0
   15.5335   -2.8862   15.7952 C   0  0  0  0  0  0  0  0  0  0  0  0
   14.0193   -3.0314   15.9711 C   0  0  0  0  0  0  0  0  0  0  0  0
   13.1300   -2.2601   14.9947 C   0  0  0  0  0  0  0  0  0  0  0  0
   13.8356   -1.5432   13.8395 C   0  0  0  0  0  0  0  0  0  0  0  0
   15.6649    2.5686   17.3860 C   0  0  0  0  0  0  0  0  0  0  0  0
   15.7647    2.4123   18.7735 C   0  0  0  0  0  0  0  0  0  0  0  0
   14.5929    2.3323   19.4815 O   0  0  0  0  0  0  0  0  0  0  0  0
   16.2342    1.6552   23.4118 H   0  0  0  0  0  0  0  0  0  0  0  0
   16.5840   -0.0816   23.3851 H   0  0  0  0  0  0  0  0  0  0  0  0
   17.9102    1.0870   23.2672 H   0  0  0  0  0  0  0  0  0  0  0  0
   17.3636    0.0632   21.0516 H   0  0  0  0  0  0  0  0  0  0  0  0
   15.7055    0.6110   21.1995 H   0  0  0  0  0  0  0  0  0  0  0  0
   16.5877    3.0258   21.2827 H   0  0  0  0  0  0  0  0  0  0  0  0
   18.2045    2.4040   21.1048 H   0  0  0  0  0  0  0  0  0  0  0  0
   19.0773    1.7462   18.9695 H   0  0  0  0  0  0  0  0  0  0  0  0
   18.8015    1.5535   16.5537 H   0  0  0  0  0  0  0  0  0  0  0  0
   16.4152    3.4055   14.5969 H   0  0  0  0  0  0  0  0  0  0  0  0
   17.7564    1.3266   13.8302 H   0  0  0  0  0  0  0  0  0  0  0  0
   14.5506    0.6399   17.2322 H   0  0  0  0  0  0  0  0  0  0  0  0
   14.3339   -0.8482   16.5667 H   0  0  0  0  0  0  0  0  0  0  0  0
   15.9655   -0.3740   16.9380 H   0  0  0  0  0  0  0  0  0  0  0  0
   13.0513    0.6942   14.5931 H   0  0  0  0  0  0  0  0  0  0  0  0
   13.6134    2.0833   15.4932 H   0  0  0  0  0  0  0  0  0  0  0  0
   13.9769    1.9094   13.7943 H   0  0  0  0  0  0  0  0  0  0  0  0
   16.8952   -0.3153   12.7514 H   0  0  0  0  0  0  0  0  0  0  0  0
   15.6670   -1.2977   12.0246 H   0  0  0  0  0  0  0  0  0  0  0  0
   15.5618    1.4660   12.5702 H   0  0  0  0  0  0  0  0  0  0  0  0
   16.3754   -2.6201   13.8689 H   0  0  0  0  0  0  0  0  0  0  0  0
   17.0644   -1.5574   15.0510 H   0  0  0  0  0  0  0  0  0  0  0  0
   15.9538   -3.8874   15.6255 H   0  0  0  0  0  0  0  0  0  0  0  0
   15.9633   -2.5991   16.7635 H   0  0  0  0  0  0  0  0  0  0  0  0
   13.7543   -4.0941   15.9603 H   0  0  0  0  0  0  0  0  0  0  0  0
   13.7458   -2.7550   16.9989 H   0  0  0  0  0  0  0  0  0  0  0  0
   12.5302   -1.5311   15.5376 H   0  0  0  0  0  0  0  0  0  0  0  0
   12.3783   -2.9423   14.5768 H   0  0  0  0  0  0  0  0  0  0  0  0
   14.0266   -2.3111   13.0764 H   0  0  0  0  0  0  0  0  0  0  0  0
   13.1303   -0.8710   13.3386 H   0  0  0  0  0  0  0  0  0  0  0  0
   14.6872    2.8147   16.9882 H   0  0  0  0  0  0  0  0  0  0  0  0
   14.7762    2.3197   20.4323 H   0  0  0  0  0  0  0  0  0  0  0  0
  1  2  1  0
  2  3  1  0
  3  4  1  0
  4  5  2  0
  5  6  1  0
  6  7  2  0
  7  8  1  0
  8  9  1  0
  8 10  1  0
  8 11  1  0
 11 12  1  0
 11 13  1  0
 11 14  1  0
 14 15  1  0
 15 16  1  0
 14 17  1  0
 17 18  1  0
 18 19  1  0
 19 20  1  0
 20 21  1  0
  7 22  1  0
 22 23  2  0
 23 24  1  0
 23  4  1  0
 21 14  1  0
  1 25  1  0
  1 26  1  0
  1 27  1  0
  2 28  1  0
  2 29  1  0
  3 30  1  0
  3 31  1  0
  5 32  1  0
  6 33  1  0
  9 34  1  0
 10 35  1  0
 12 36  1  0
 12 37  1  0
 12 38  1  0
 13 39  1  0
 13 40  1  0
 13 41  1  0
 15 42  1  0
 15 43  1  0
 16 44  1  0
 17 45  1  0
 17 46  1  0
 18 47  1  0
 18 48  1  0
 19 49  1  0
 19 50  1  0
 20 51  1  0
 20 52  1  0
 21 53  1  0
 21 54  1  0
 22 55  1  0
 24 56  1  0
M  END
>  <Energy>  (749) 
77.484080860842951

>  <compound_id>  (749) 
1017

>  <target_id>  (749) 
1

>  <reference_id>  (749) 
76

>  <inspiration_ids>  (749) 
[76, 117]

>  <energy_score>  (749) 
-31.68517942423034

>  <distance_score>  (749) 
2.495227602216119

>  <path>  (749) 
/opt/xchem-fragalysis-2/maxwin/BulkDock/SCRATCH/505733/C1017-P76/C1017-P76.minimised.mol

>  <scratch_subdir>  (749) 
/opt/xchem-fragalysis-2/maxwin/BulkDock/SCRATCH/505733/C1017-P76

>  <fragmenstein_runtime>  (749) 
36.183693170547485

>  <fragmenstein_outcome>  (749) 
too moved

>  <fragmenstein_mode>  (749) 
expansion

>  <fragmenstein_error>  (749) 


$$$$
C1017-P117
     RDKit          3D

 56 57  0  0  0  0  0  0  0  0999 V2000
   17.5142    1.0175   22.9511 C   0  0  0  0  0  0  0  0  0  0  0  0
   17.1170    0.9205   21.4852 C   0  0  0  0  0  0  0  0  0  0  0  0
   17.1983    2.2670   20.8013 C   0  0  0  0  0  0  0  0  0  0  0  0
   16.7792    2.1702   19.3758 C   0  0  0  0  0  0  0  0  0  0  0  0
   17.7385    1.9957   18.3742 C   0  0  0  0  0  0  0  0  0  0  0  0
   17.3527    1.8898   17.0325 C   0  0  0  0  0  0  0  0  0  0  0  0
   16.0057    2.0313   16.6542 C   0  0  0  0  0  0  0  0  0  0  0  0
   15.4955    1.4836   15.2897 C   0  0  0  0  0  0  0  0  0  0  0  0
   15.2521    2.5141   14.3369 O   0  0  0  0  0  0  0  0  0  0  0  0
   16.5845    0.7882   14.7146 O   0  0  0  0  0  0  0  0  0  0  0  0
   14.2021    0.5070   15.4148 C   0  0  0  0  0  0  0  0  0  0  0  0
   14.0826   -0.0054   16.8753 C   0  0  0  0  0  0  0  0  0  0  0  0
   12.9227    1.3725   15.1784 C   0  0  0  0  0  0  0  0  0  0  0  0
   14.2080   -0.8146   14.4390 C   0  0  0  0  0  0  0  0  0  0  0  0
   14.6440   -0.4606   12.9679 C   0  0  0  0  0  0  0  0  0  0  0  0
   14.0192    0.6888   12.4248 O   0  0  0  0  0  0  0  0  0  0  0  0
   15.2031   -1.9283   14.9082 C   0  0  0  0  0  0  0  0  0  0  0  0
   14.7983   -2.8269   16.0810 C   0  0  0  0  0  0  0  0  0  0  0  0
   13.3366   -3.2484   16.1828 C   0  0  0  0  0  0  0  0  0  0  0  0
   12.3036   -2.3614   15.4967 C   0  0  0  0  0  0  0  0  0  0  0  0
   12.8142   -1.5477   14.3071 C   0  0  0  0  0  0  0  0  0  0  0  0
   15.1062    2.4154   17.6671 C   0  0  0  0  0  0  0  0  0  0  0  0
   15.4491    2.2670   19.0098 C   0  0  0  0  0  0  0  0  0  0  0  0
   14.4233    2.0918   19.8984 O   0  0  0  0  0  0  0  0  0  0  0  0
   16.8443    1.6913   23.4949 H   0  0  0  0  0  0  0  0  0  0  0  0
   17.4611    0.0318   23.4239 H   0  0  0  0  0  0  0  0  0  0  0  0
   18.5383    1.3896   23.0570 H   0  0  0  0  0  0  0  0  0  0  0  0
   17.7834    0.2047   20.9873 H   0  0  0  0  0  0  0  0  0  0  0  0
   16.1096    0.4940   21.4235 H   0  0  0  0  0  0  0  0  0  0  0  0
   16.5858    3.0119   21.3254 H   0  0  0  0  0  0  0  0  0  0  0  0
   18.2249    2.6527   20.8595 H   0  0  0  0  0  0  0  0  0  0  0  0
   18.7900    1.8848   18.6306 H   0  0  0  0  0  0  0  0  0  0  0  0
   18.1117    1.6203   16.3005 H   0  0  0  0  0  0  0  0  0  0  0  0
   15.5213    3.3434   14.7718 H   0  0  0  0  0  0  0  0  0  0  0  0
   16.7408    1.2804   13.8911 H   0  0  0  0  0  0  0  0  0  0  0  0
   13.5400    0.6752   17.5326 H   0  0  0  0  0  0  0  0  0  0  0  0
   13.4536   -0.8742   16.9799 H   0  0  0  0  0  0  0  0  0  0  0  0
   15.0474   -0.2712   17.3158 H   0  0  0  0  0  0  0  0  0  0  0  0
   12.0262    0.8504   15.5327 H   0  0  0  0  0  0  0  0  0  0  0  0
   12.9545    2.3236   15.7155 H   0  0  0  0  0  0  0  0  0  0  0  0
   12.7488    1.6201   14.1315 H   0  0  0  0  0  0  0  0  0  0  0  0
   15.7253   -0.3366   12.8697 H   0  0  0  0  0  0  0  0  0  0  0  0
   14.4055   -1.2913   12.2922 H   0  0  0  0  0  0  0  0  0  0  0  0
   14.4195    1.4689   12.8582 H   0  0  0  0  0  0  0  0  0  0  0  0
   15.3832   -2.6004   14.0574 H   0  0  0  0  0  0  0  0  0  0  0  0
   16.1869   -1.5056   15.1336 H   0  0  0  0  0  0  0  0  0  0  0  0
   15.4136   -3.7366   16.0388 H   0  0  0  0  0  0  0  0  0  0  0  0
   15.1041   -2.3689   17.0264 H   0  0  0  0  0  0  0  0  0  0  0  0
   13.2389   -4.2623   15.7914 H   0  0  0  0  0  0  0  0  0  0  0  0
   13.0666   -3.3556   17.2417 H   0  0  0  0  0  0  0  0  0  0  0  0
   11.8329   -1.6891   16.2211 H   0  0  0  0  0  0  0  0  0  0  0  0
   11.4739   -2.9954   15.1551 H   0  0  0  0  0  0  0  0  0  0  0  0
   12.8809   -2.2595   13.4720 H   0  0  0  0  0  0  0  0  0  0  0  0
   12.0397   -0.8376   13.9955 H   0  0  0  0  0  0  0  0  0  0  0  0
   14.0642    2.6236   17.4476 H   0  0  0  0  0  0  0  0  0  0  0  0
   14.7637    2.0005   20.8000 H   0  0  0  0  0  0  0  0  0  0  0  0
  1  2  1  0
  2  3  1  0
  3  4  1  0
  4  5  2  0
  5  6  1  0
  6  7  2  0
  7  8  1  0
  8  9  1  0
  8 10  1  0
  8 11  1  0
 11 12  1  0
 11 13  1  0
 11 14  1  0
 14 15  1  0
 15 16  1  0
 14 17  1  0
 17 18  1  0
 18 19  1  0
 19 20  1  0
 20 21  1  0
  7 22  1  0
 22 23  2  0
 23 24  1  0
 23  4  1  0
 21 14  1  0
  1 25  1  0
  1 26  1  0
  1 27  1  0
  2 28  1  0
  2 29  1  0
  3 30  1  0
  3 31  1  0
  5 32  1  0
  6 33  1  0
  9 34  1  0
 10 35  1  0
 12 36  1  0
 12 37  1  0
 12 38  1  0
 13 39  1  0
 13 40  1  0
 13 41  1  0
 15 42  1  0
 15 43  1  0
 16 44  1  0
 17 45  1  0
 17 46  1  0
 18 47  1  0
 18 48  1  0
 19 49  1  0
 19 50  1  0
 20 51  1  0
 20 52  1  0
 21 53  1  0
 21 54  1  0
 22 55  1  0
 24 56  1  0
M  END
>  <Energy>  (750) 
68.225833625094168

>  <compound_id>  (750) 
1017

>  <target_id>  (750) 
1

>  <reference_id>  (750) 
117

>  <inspiration_ids>  (750) 
[76, 117]

>  <energy_score>  (750) 
-40.943426659981384

>  <distance_score>  (750) 
2.2222802375450366

>  <path>  (750) 
/opt/xchem-fragalysis-2/maxwin/BulkDock/SCRATCH/505733/C1017-P117/C1017-P117.minimised.mol

>  <scratch_subdir>  (750) 
/opt/xchem-fragalysis-2/maxwin/BulkDock/SCRATCH/505733/C1017-P117

>  <fragmenstein_runtime>  (750) 
37.2232346534729

>  <fragmenstein_outcome>  (750) 
too moved

>  <fragmenstein_mode>  (750) 
expansion

>  <fragmenstein_error>  (750) 


$$$$
C1018-P76
     RDKit          3D

 43 45  0  0  0  0  0  0  0  0999 V2000
   15.9928   -2.6060   11.4884 C   0  0  0  0  0  0  0  0  0  0  0  0
   16.1936   -2.5732   13.0014 C   0  0  0  0  0  0  0  0  0  0  0  0
   15.4804   -1.5095   13.8083 C   0  0  0  0  0  0  0  0  0  0  0  0
   16.5895    0.1138   13.3259 Br  0  0  0  0  0  0  0  0  0  0  0  0
   14.0027   -1.4236   13.3323 C   0  0  0  0  0  0  0  0  0  0  0  0
   13.8868   -0.7278   12.0856 O   0  0  0  0  0  0  0  0  0  0  0  0
   13.0653   -0.8261   14.3598 C   0  0  0  0  0  0  0  0  0  0  0  0
   13.6894    0.4695   14.7852 C   0  0  0  0  0  0  0  0  0  0  0  0
   14.6371    0.5740   15.7287 C   0  0  0  0  0  0  0  0  0  0  0  0
   15.2065    1.9090   15.9695 C   0  0  0  0  0  0  0  0  0  0  0  0
   15.7684    2.2017   17.0143 O   0  0  0  0  0  0  0  0  0  0  0  0
   15.1593    2.7522   14.9204 O   0  0  0  0  0  0  0  0  0  0  0  0
   13.9432    2.7683   14.1757 C   0  0  0  0  0  0  0  0  0  0  0  0
   12.9506    3.6997   14.8787 C   0  0  0  0  0  0  0  0  0  0  0  0
   14.2694    3.3363   12.7941 C   0  0  0  0  0  0  0  0  0  0  0  0
   13.3202    1.5039   13.9663 O   0  0  0  0  0  0  0  0  0  0  0  0
   15.2638   -0.6493   16.3473 C   0  0  0  0  0  0  0  0  0  0  0  0
   16.5930   -0.4864   17.0947 C   0  0  0  0  0  0  0  0  0  0  0  0
   17.1165   -1.9024   17.1528 C   0  0  0  0  0  0  0  0  0  0  0  0
   16.8481   -2.3803   15.8070 N   0  0  0  0  0  0  0  0  0  0  0  0
   15.5594   -1.8231   15.3576 C   0  0  0  0  0  0  0  0  0  0  0  0
   14.9842   -2.9356   11.2271 H   0  0  0  0  0  0  0  0  0  0  0  0
   16.6972   -3.3121   11.0377 H   0  0  0  0  0  0  0  0  0  0  0  0
   16.1773   -1.6376   11.0162 H   0  0  0  0  0  0  0  0  0  0  0  0
   17.2796   -2.5352   13.1706 H   0  0  0  0  0  0  0  0  0  0  0  0
   15.8916   -3.4992   13.4555 H   0  0  0  0  0  0  0  0  0  0  0  0
   13.6204   -2.4280   13.1320 H   0  0  0  0  0  0  0  0  0  0  0  0
   14.1201    0.2048   12.2513 H   0  0  0  0  0  0  0  0  0  0  0  0
   12.0836   -0.6447   13.9058 H   0  0  0  0  0  0  0  0  0  0  0  0
   12.8966   -1.4995   15.2054 H   0  0  0  0  0  0  0  0  0  0  0  0
   12.7188    3.3351   15.8854 H   0  0  0  0  0  0  0  0  0  0  0  0
   13.3653    4.7067   14.9956 H   0  0  0  0  0  0  0  0  0  0  0  0
   12.0040    3.7606   14.3313 H   0  0  0  0  0  0  0  0  0  0  0  0
   13.3726    3.4080   12.1693 H   0  0  0  0  0  0  0  0  0  0  0  0
   14.9747    2.6855   12.2664 H   0  0  0  0  0  0  0  0  0  0  0  0
   14.7374    4.3239   12.8671 H   0  0  0  0  0  0  0  0  0  0  0  0
   14.5645   -1.0336   17.1009 H   0  0  0  0  0  0  0  0  0  0  0  0
   17.2971    0.1509   16.5458 H   0  0  0  0  0  0  0  0  0  0  0  0
   16.4557   -0.0711   18.0983 H   0  0  0  0  0  0  0  0  0  0  0  0
   18.1831   -1.9387   17.3904 H   0  0  0  0  0  0  0  0  0  0  0  0
   16.5689   -2.4981   17.8921 H   0  0  0  0  0  0  0  0  0  0  0  0
   16.8723   -3.3977   15.7494 H   0  0  0  0  0  0  0  0  0  0  0  0
   14.8216   -2.6120   15.5644 H   0  0  0  0  0  0  0  0  0  0  0  0
  1  2  1  0
  2  3  1  0
  3  4  1  0
  3  5  1  0
  5  6  1  0
  5  7  1  0
  7  8  1  0
  8  9  2  0
  9 10  1  0
 10 11  2  0
 10 12  1  0
 12 13  1  0
 13 14  1  0
 13 15  1  0
 13 16  1  0
  9 17  1  0
 17 18  1  0
 18 19  1  0
 19 20  1  0
 20 21  1  0
 21  3  1  0
 16  8  1  0
 21 17  1  0
  1 22  1  0
  1 23  1  0
  1 24  1  0
  2 25  1  0
  2 26  1  0
  5 27  1  0
  6 28  1  0
  7 29  1  0
  7 30  1  0
 14 31  1  0
 14 32  1  0
 14 33  1  0
 15 34  1  0
 15 35  1  0
 15 36  1  0
 17 37  1  0
 18 38  1  0
 18 39  1  0
 19 40  1  0
 19 41  1  0
 20 42  1  0
 21 43  1  0
M  END
>  <Energy>  (751) 
75.952816843399262

>  <compound_id>  (751) 
1018

>  <target_id>  (751) 
1

>  <reference_id>  (751) 
76

>  <inspiration_ids>  (751) 
[76, 118]

>  <energy_score>  (751) 
-41.4403001357594

>  <distance_score>  (751) 
3.057067077293462

>  <path>  (751) 
/opt/xchem-fragalysis-2/maxwin/BulkDock/SCRATCH/505733/C1018-P76/C1018-P76.minimised.mol

>  <scratch_subdir>  (751) 
/opt/xchem-fragalysis-2/maxwin/BulkDock/SCRATCH/505733/C1018-P76

>  <fragmenstein_runtime>  (751) 
2.8801043033599854

>  <fragmenstein_outcome>  (751) 
too moved

>  <fragmenstein_mode>  (751) 
expansion

>  <fragmenstein_error>  (751) 


$$$$
C1018-P118
     RDKit          3D

 43 45  0  0  0  0  0  0  0  0999 V2000
   16.4025   -2.9385   15.2760 C   0  0  0  0  0  0  0  0  0  0  0  0
   15.0388   -2.3327   14.9444 C   0  0  0  0  0  0  0  0  0  0  0  0
   13.9610   -2.3089   16.0619 C   0  0  0  0  0  0  0  0  0  0  0  0
   13.8574   -4.0967   17.0971 Br  0  0  0  0  0  0  0  0  0  0  0  0
   12.5036   -2.1396   15.5014 C   0  0  0  0  0  0  0  0  0  0  0  0
   12.3379   -2.7118   14.2018 O   0  0  0  0  0  0  0  0  0  0  0  0
   12.0554   -0.6937   15.4477 C   0  0  0  0  0  0  0  0  0  0  0  0
   13.0757    0.2365   14.8577 C   0  0  0  0  0  0  0  0  0  0  0  0
   14.1379    0.7107   15.5307 C   0  0  0  0  0  0  0  0  0  0  0  0
   14.9025    1.8292   14.9415 C   0  0  0  0  0  0  0  0  0  0  0  0
   15.6971    2.4829   15.6054 O   0  0  0  0  0  0  0  0  0  0  0  0
   14.6542    2.1463   13.6584 O   0  0  0  0  0  0  0  0  0  0  0  0
   13.8319    1.2859   12.8704 C   0  0  0  0  0  0  0  0  0  0  0  0
   13.1360    2.1707   11.8337 C   0  0  0  0  0  0  0  0  0  0  0  0
   14.7149    0.2630   12.1525 C   0  0  0  0  0  0  0  0  0  0  0  0
   12.7788    0.6220   13.5794 O   0  0  0  0  0  0  0  0  0  0  0  0
   14.5381    0.2024   16.8892 C   0  0  0  0  0  0  0  0  0  0  0  0
   15.9830    0.4280   17.3652 C   0  0  0  0  0  0  0  0  0  0  0  0
   16.1204   -0.5300   18.5245 C   0  0  0  0  0  0  0  0  0  0  0  0
   15.4813   -1.7144   17.9917 N   0  0  0  0  0  0  0  0  0  0  0  0
   14.3047   -1.3025   17.2030 C   0  0  0  0  0  0  0  0  0  0  0  0
   17.0311   -2.9242   14.3783 H   0  0  0  0  0  0  0  0  0  0  0  0
   16.3343   -3.9769   15.6066 H   0  0  0  0  0  0  0  0  0  0  0  0
   16.9399   -2.3627   16.0314 H   0  0  0  0  0  0  0  0  0  0  0  0
   14.6858   -2.7846   14.0167 H   0  0  0  0  0  0  0  0  0  0  0  0
   15.2639   -1.3127   14.6396 H   0  0  0  0  0  0  0  0  0  0  0  0
   11.7843   -2.6616   16.1429 H   0  0  0  0  0  0  0  0  0  0  0  0
   11.4339   -2.5320   13.8774 H   0  0  0  0  0  0  0  0  0  0  0  0
   11.8100   -0.3478   16.4524 H   0  0  0  0  0  0  0  0  0  0  0  0
   11.1190   -0.6057   14.8808 H   0  0  0  0  0  0  0  0  0  0  0  0
   12.4956    1.5814   11.1684 H   0  0  0  0  0  0  0  0  0  0  0  0
   12.4927    2.9056   12.3322 H   0  0  0  0  0  0  0  0  0  0  0  0
   13.8594    2.7322   11.2329 H   0  0  0  0  0  0  0  0  0  0  0  0
   14.1193   -0.5463   11.7215 H   0  0  0  0  0  0  0  0  0  0  0  0
   15.4361   -0.1900   12.8368 H   0  0  0  0  0  0  0  0  0  0  0  0
   15.3119    0.7362   11.3652 H   0  0  0  0  0  0  0  0  0  0  0  0
   13.9170    0.7732   17.5989 H   0  0  0  0  0  0  0  0  0  0  0  0
   16.7053    0.1882   16.5745 H   0  0  0  0  0  0  0  0  0  0  0  0
   16.1600    1.4524   17.7073 H   0  0  0  0  0  0  0  0  0  0  0  0
   17.1656   -0.7129   18.7874 H   0  0  0  0  0  0  0  0  0  0  0  0
   15.5892   -0.1638   19.4103 H   0  0  0  0  0  0  0  0  0  0  0  0
   15.2416   -2.3946   18.7134 H   0  0  0  0  0  0  0  0  0  0  0  0
   13.4660   -1.3181   17.8857 H   0  0  0  0  0  0  0  0  0  0  0  0
  1  2  1  0
  2  3  1  0
  3  4  1  0
  3  5  1  0
  5  6  1  0
  5  7  1  0
  7  8  1  0
  8  9  2  0
  9 10  1  0
 10 11  2  0
 10 12  1  0
 12 13  1  0
 13 14  1  0
 13 15  1  0
 13 16  1  0
  9 17  1  0
 17 18  1  0
 18 19  1  0
 19 20  1  0
 20 21  1  0
 21  3  1  0
 16  8  1  0
 21 17  1  0
  1 22  1  0
  1 23  1  0
  1 24  1  0
  2 25  1  0
  2 26  1  0
  5 27  1  0
  6 28  1  0
  7 29  1  0
  7 30  1  0
 14 31  1  0
 14 32  1  0
 14 33  1  0
 15 34  1  0
 15 35  1  0
 15 36  1  0
 17 37  1  0
 18 38  1  0
 18 39  1  0
 19 40  1  0
 19 41  1  0
 20 42  1  0
 21 43  1  0
M  END
>  <Energy>  (752) 
71.051136627788949

>  <compound_id>  (752) 
1018

>  <target_id>  (752) 
1

>  <reference_id>  (752) 
118

>  <inspiration_ids>  (752) 
[76, 118]

>  <energy_score>  (752) 
-46.34198035137345

>  <distance_score>  (752) 
2.6211103697574027

>  <path>  (752) 
/opt/xchem-fragalysis-2/maxwin/BulkDock/SCRATCH/505733/C1018-P118/C1018-P118.minimised.mol

>  <scratch_subdir>  (752) 
/opt/xchem-fragalysis-2/maxwin/BulkDock/SCRATCH/505733/C1018-P118

>  <fragmenstein_runtime>  (752) 
2.6881203651428223

>  <fragmenstein_outcome>  (752) 
too moved

>  <fragmenstein_mode>  (752) 
expansion

>  <fragmenstein_error>  (752) 


$$$$
C1023-P76
     RDKit          3D

 59 63  0  0  0  0  0  0  0  0999 V2000
   14.8502    1.9117   15.9144 C   0  0  0  0  0  0  0  0  0  0  0  0
   14.8759    1.7421   14.3820 C   0  0  0  0  0  0  0  0  0  0  0  0
   14.8879    3.1401   13.7767 C   0  0  0  0  0  0  0  0  0  0  0  0
   16.0851    1.0768   14.0047 O   0  0  0  0  0  0  0  0  0  0  0  0
   16.1120   -0.2705   14.1531 C   0  0  0  0  0  0  0  0  0  0  0  0
   17.1404   -0.9233   14.0611 O   0  0  0  0  0  0  0  0  0  0  0  0
   14.8219   -0.9163   14.4715 C   0  0  0  0  0  0  0  0  0  0  0  0
   14.6821   -2.1491   15.1218 C   0  0  0  0  0  0  0  0  0  0  0  0
   13.4163   -2.6430   15.4723 C   0  0  0  0  0  0  0  0  0  0  0  0
   13.2130   -3.6561   16.3902 O   0  0  0  0  0  0  0  0  0  0  0  0
   14.3769   -3.9780   17.1780 C   0  0  0  0  0  0  0  0  0  0  0  0
   14.0398   -4.7338   18.8182 S   0  0  0  0  0  0  0  0  0  0  0  0
   15.7268   -5.3264   19.3449 C   0  0  0  0  0  0  0  0  0  0  0  0
   15.8986   -7.0369   19.7247 Cl  0  0  0  0  0  0  0  0  0  0  0  0
   16.8504   -4.8173   18.4195 C   0  0  0  0  0  0  0  0  0  0  0  0
   17.5726   -5.4162   17.7314 O   0  0  0  0  0  0  0  0  0  0  0  0
   16.8031   -3.3088   18.7492 N   0  0  0  0  0  0  0  0  0  0  0  0
   17.6933   -2.2411   18.3749 C   0  0  0  0  0  0  0  0  0  0  0  0
   17.4746   -1.4141   19.6651 C   0  0  0  0  0  0  0  0  0  0  0  0
   17.6322   -2.0635   20.8024 N   0  0  0  0  0  0  0  0  0  0  0  0
   16.6987   -1.6158   21.6679 N   0  0  0  0  0  0  0  0  0  0  0  0
   16.1073   -0.5841   21.1143 C   0  0  0  0  0  0  0  0  0  0  0  0
   15.1340    0.1972   21.7764 C   0  0  0  0  0  0  0  0  0  0  0  0
   14.6084   -0.0924   23.0143 C   0  0  0  0  0  0  0  0  0  0  0  0
   13.6502    0.8680   23.4273 C   0  0  0  0  0  0  0  0  0  0  0  0
   13.4829    1.8644   22.4961 C   0  0  0  0  0  0  0  0  0  0  0  0
   14.5122    1.6593   21.1538 S   0  0  0  0  0  0  0  0  0  0  0  0
   16.5843   -0.3971   19.8482 N   0  0  0  0  0  0  0  0  0  0  0  0
   19.1498   -2.5131   17.9861 C   0  0  0  0  0  0  0  0  0  0  0  0
   19.0276   -1.2841   17.0486 C   0  0  0  0  0  0  0  0  0  0  0  0
   17.5005   -1.5442   17.0375 C   0  0  0  0  0  0  0  0  0  0  0  0
   12.3262   -2.0696   14.8250 C   0  0  0  0  0  0  0  0  0  0  0  0
   11.0824   -2.6106   14.8980 O   0  0  0  0  0  0  0  0  0  0  0  0
   12.4745   -0.8797   14.1240 C   0  0  0  0  0  0  0  0  0  0  0  0
   13.6934   -0.2276   14.1230 C   0  0  0  0  0  0  0  0  0  0  0  0
   13.7165    1.0998   13.8382 O   0  0  0  0  0  0  0  0  0  0  0  0
   14.8117    0.9536   16.4410 H   0  0  0  0  0  0  0  0  0  0  0  0
   13.9717    2.4862   16.2242 H   0  0  0  0  0  0  0  0  0  0  0  0
   15.7526    2.4238   16.2666 H   0  0  0  0  0  0  0  0  0  0  0  0
   13.9779    3.6968   14.0258 H   0  0  0  0  0  0  0  0  0  0  0  0
   15.7621    3.7138   14.1033 H   0  0  0  0  0  0  0  0  0  0  0  0
   14.9383    3.0802   12.6829 H   0  0  0  0  0  0  0  0  0  0  0  0
   15.5767   -2.7135   15.3451 H   0  0  0  0  0  0  0  0  0  0  0  0
   15.0140   -4.6365   16.5827 H   0  0  0  0  0  0  0  0  0  0  0  0
   14.8751   -3.0408   17.4207 H   0  0  0  0  0  0  0  0  0  0  0  0
   15.8792   -4.8646   20.3272 H   0  0  0  0  0  0  0  0  0  0  0  0
   15.9853   -3.1115   19.3269 H   0  0  0  0  0  0  0  0  0  0  0  0
   14.8802   -0.9699   23.5913 H   0  0  0  0  0  0  0  0  0  0  0  0
   13.0985    0.8194   24.3584 H   0  0  0  0  0  0  0  0  0  0  0  0
   12.8178    2.7149   22.5551 H   0  0  0  0  0  0  0  0  0  0  0  0
   16.2191    0.2454   19.1622 H   0  0  0  0  0  0  0  0  0  0  0  0
   19.3207   -3.4510   17.4466 H   0  0  0  0  0  0  0  0  0  0  0  0
   19.9012   -2.4225   18.7756 H   0  0  0  0  0  0  0  0  0  0  0  0
   19.5317   -1.3712   16.0828 H   0  0  0  0  0  0  0  0  0  0  0  0
   19.3141   -0.3351   17.5163 H   0  0  0  0  0  0  0  0  0  0  0  0
   16.8640   -0.6595   17.0030 H   0  0  0  0  0  0  0  0  0  0  0  0
   17.2429   -2.2389   16.2405 H   0  0  0  0  0  0  0  0  0  0  0  0
   10.5289   -2.2595   14.1641 H   0  0  0  0  0  0  0  0  0  0  0  0
   11.6076   -0.3811   13.6958 H   0  0  0  0  0  0  0  0  0  0  0  0
  1  2  1  0
  2  3  1  0
  2  4  1  0
  4  5  1  0
  5  6  2  0
  5  7  1  0
  7  8  2  0
  8  9  1  0
  9 10  1  0
 10 11  1  0
 11 12  1  0
 12 13  1  0
 13 14  1  0
 13 15  1  0
 15 16  2  0
 15 17  1  0
 17 18  1  0
 18 19  1  0
 19 20  2  0
 20 21  1  0
 21 22  2  0
 22 23  1  0
 23 24  2  0
 24 25  1  0
 25 26  2  0
 26 27  1  0
 22 28  1  0
 18 29  1  0
 29 30  1  0
 30 31  1  0
  9 32  2  0
 32 33  1  0
 32 34  1  0
 34 35  2  0
 35 36  1  0
 36  2  1  0
 35  7  1  0
 31 18  1  0
 28 19  1  0
 27 23  1  0
  1 37  1  0
  1 38  1  0
  1 39  1  0
  3 40  1  0
  3 41  1  0
  3 42  1  0
  8 43  1  0
 11 44  1  0
 11 45  1  0
 13 46  1  0
 17 47  1  0
 24 48  1  0
 25 49  1  0
 26 50  1  0
 28 51  1  0
 29 52  1  0
 29 53  1  0
 30 54  1  0
 30 55  1  0
 31 56  1  0
 31 57  1  0
 33 58  1  0
 34 59  1  0
M  END
>  <Energy>  (753) 
116.77712639229478

>  <compound_id>  (753) 
1023

>  <target_id>  (753) 
1

>  <reference_id>  (753) 
76

>  <inspiration_ids>  (753) 
[76, 184]

>  <energy_score>  (753) 
1.3431180848999702

>  <distance_score>  (753) 
2.9627229246069544

>  <path>  (753) 
/opt/xchem-fragalysis-2/maxwin/BulkDock/SCRATCH/505733/C1023-P76/C1023-P76.minimised.mol

>  <scratch_subdir>  (753) 
/opt/xchem-fragalysis-2/maxwin/BulkDock/SCRATCH/505733/C1023-P76

>  <fragmenstein_runtime>  (753) 
41.809767961502075

>  <fragmenstein_outcome>  (753) 
too moved

>  <fragmenstein_mode>  (753) 
expansion

>  <fragmenstein_error>  (753) 


$$$$
C1023-P184
     RDKit          3D

 59 63  0  0  0  0  0  0  0  0999 V2000
   13.5496    2.8039   15.8348 C   0  0  0  0  0  0  0  0  0  0  0  0
   14.4765    2.0157   14.9047 C   0  0  0  0  0  0  0  0  0  0  0  0
   14.9003    2.9402   13.7771 C   0  0  0  0  0  0  0  0  0  0  0  0
   15.6500    1.6549   15.6194 O   0  0  0  0  0  0  0  0  0  0  0  0
   15.4031    0.8000   16.6332 C   0  0  0  0  0  0  0  0  0  0  0  0
   16.0025    0.8554   17.6981 O   0  0  0  0  0  0  0  0  0  0  0  0
   14.4124   -0.2554   16.3253 C   0  0  0  0  0  0  0  0  0  0  0  0
   14.1672   -1.3281   17.1903 C   0  0  0  0  0  0  0  0  0  0  0  0
   13.3467   -2.3826   16.8014 C   0  0  0  0  0  0  0  0  0  0  0  0
   13.2344   -3.4108   17.7126 O   0  0  0  0  0  0  0  0  0  0  0  0
   14.0930   -4.4980   17.3337 C   0  0  0  0  0  0  0  0  0  0  0  0
   14.9639   -5.3723   18.6669 S   0  0  0  0  0  0  0  0  0  0  0  0
   16.3924   -6.1589   17.6952 C   0  0  0  0  0  0  0  0  0  0  0  0
   15.8603   -7.4943   16.6891 Cl  0  0  0  0  0  0  0  0  0  0  0  0
   17.0717   -5.0127   16.8991 C   0  0  0  0  0  0  0  0  0  0  0  0
   17.2463   -4.9279   15.7500 O   0  0  0  0  0  0  0  0  0  0  0  0
   17.3478   -3.9954   18.0334 N   0  0  0  0  0  0  0  0  0  0  0  0
   17.8047   -2.6341   17.9759 C   0  0  0  0  0  0  0  0  0  0  0  0
   17.0523   -2.0885   19.2343 C   0  0  0  0  0  0  0  0  0  0  0  0
   16.5083   -2.9309   20.0975 N   0  0  0  0  0  0  0  0  0  0  0  0
   15.7985   -2.2221   21.0068 N   0  0  0  0  0  0  0  0  0  0  0  0
   15.9564   -0.9513   20.7207 C   0  0  0  0  0  0  0  0  0  0  0  0
   15.4111    0.1454   21.4384 C   0  0  0  0  0  0  0  0  0  0  0  0
   15.6643    1.4849   21.2259 C   0  0  0  0  0  0  0  0  0  0  0  0
   14.9118    2.3204   22.0978 C   0  0  0  0  0  0  0  0  0  0  0  0
   14.1165    1.5947   22.9524 C   0  0  0  0  0  0  0  0  0  0  0  0
   14.3143   -0.0778   22.7310 S   0  0  0  0  0  0  0  0  0  0  0  0
   16.7313   -0.8251   19.5984 N   0  0  0  0  0  0  0  0  0  0  0  0
   19.3120   -2.4012   17.8720 C   0  0  0  0  0  0  0  0  0  0  0  0
   19.1057   -2.2051   16.3514 C   0  0  0  0  0  0  0  0  0  0  0  0
   17.6226   -1.8742   16.6514 C   0  0  0  0  0  0  0  0  0  0  0  0
   12.7155   -2.3245   15.5575 C   0  0  0  0  0  0  0  0  0  0  0  0
   11.8977   -3.3231   15.1392 O   0  0  0  0  0  0  0  0  0  0  0  0
   12.9096   -1.2268   14.7200 C   0  0  0  0  0  0  0  0  0  0  0  0
   13.7433   -0.1865   15.1175 C   0  0  0  0  0  0  0  0  0  0  0  0
   13.8181    0.8999   14.2981 O   0  0  0  0  0  0  0  0  0  0  0  0
   13.1455    2.1940   16.6498 H   0  0  0  0  0  0  0  0  0  0  0  0
   12.6803    3.1837   15.2860 H   0  0  0  0  0  0  0  0  0  0  0  0
   14.0732    3.6476   16.2982 H   0  0  0  0  0  0  0  0  0  0  0  0
   14.0437    3.2649   13.1763 H   0  0  0  0  0  0  0  0  0  0  0  0
   15.4302    3.8224   14.1528 H   0  0  0  0  0  0  0  0  0  0  0  0
   15.5878    2.4217   13.0979 H   0  0  0  0  0  0  0  0  0  0  0  0
   14.6253   -1.3699   18.1693 H   0  0  0  0  0  0  0  0  0  0  0  0
   13.4514   -5.2398   16.8721 H   0  0  0  0  0  0  0  0  0  0  0  0
   14.8520   -4.1205   16.6541 H   0  0  0  0  0  0  0  0  0  0  0  0
   17.1073   -6.5633   18.4188 H   0  0  0  0  0  0  0  0  0  0  0  0
   17.1513   -4.4314   18.9398 H   0  0  0  0  0  0  0  0  0  0  0  0
   16.3417    1.8682   20.4728 H   0  0  0  0  0  0  0  0  0  0  0  0
   14.9495    3.4029   22.0981 H   0  0  0  0  0  0  0  0  0  0  0  0
   13.4470    1.9667   23.7156 H   0  0  0  0  0  0  0  0  0  0  0  0
   16.9032    0.0266   19.0774 H   0  0  0  0  0  0  0  0  0  0  0  0
   19.9578   -3.2397   18.1480 H   0  0  0  0  0  0  0  0  0  0  0  0
   19.6694   -1.4994   18.3830 H   0  0  0  0  0  0  0  0  0  0  0  0
   19.2524   -3.1176   15.7638 H   0  0  0  0  0  0  0  0  0  0  0  0
   19.6868   -1.3982   15.8971 H   0  0  0  0  0  0  0  0  0  0  0  0
   17.4875   -0.7971   16.7467 H   0  0  0  0  0  0  0  0  0  0  0  0
   16.8989   -2.2648   15.9329 H   0  0  0  0  0  0  0  0  0  0  0  0
   11.4148   -3.0547   14.3387 H   0  0  0  0  0  0  0  0  0  0  0  0
   12.4047   -1.1592   13.7595 H   0  0  0  0  0  0  0  0  0  0  0  0
  1  2  1  0
  2  3  1  0
  2  4  1  0
  4  5  1  0
  5  6  2  0
  5  7  1  0
  7  8  2  0
  8  9  1  0
  9 10  1  0
 10 11  1  0
 11 12  1  0
 12 13  1  0
 13 14  1  0
 13 15  1  0
 15 16  2  0
 15 17  1  0
 17 18  1  0
 18 19  1  0
 19 20  2  0
 20 21  1  0
 21 22  2  0
 22 23  1  0
 23 24  2  0
 24 25  1  0
 25 26  2  0
 26 27  1  0
 22 28  1  0
 18 29  1  0
 29 30  1  0
 30 31  1  0
  9 32  2  0
 32 33  1  0
 32 34  1  0
 34 35  2  0
 35 36  1  0
 36  2  1  0
 35  7  1  0
 31 18  1  0
 28 19  1  0
 27 23  1  0
  1 37  1  0
  1 38  1  0
  1 39  1  0
  3 40  1  0
  3 41  1  0
  3 42  1  0
  8 43  1  0
 11 44  1  0
 11 45  1  0
 13 46  1  0
 17 47  1  0
 24 48  1  0
 25 49  1  0
 26 50  1  0
 28 51  1  0
 29 52  1  0
 29 53  1  0
 30 54  1  0
 30 55  1  0
 31 56  1  0
 31 57  1  0
 33 58  1  0
 34 59  1  0
M  END
>  <Energy>  (754) 
82.188334333821516

>  <compound_id>  (754) 
1023

>  <target_id>  (754) 
1

>  <reference_id>  (754) 
184

>  <inspiration_ids>  (754) 
[76, 184]

>  <energy_score>  (754) 
-33.245673973574384

>  <distance_score>  (754) 
2.7118839376547013

>  <path>  (754) 
/opt/xchem-fragalysis-2/maxwin/BulkDock/SCRATCH/505733/C1023-P184/C1023-P184.minimised.mol

>  <scratch_subdir>  (754) 
/opt/xchem-fragalysis-2/maxwin/BulkDock/SCRATCH/505733/C1023-P184

>  <fragmenstein_runtime>  (754) 
40.28328013420105

>  <fragmenstein_outcome>  (754) 
too moved

>  <fragmenstein_mode>  (754) 
expansion

>  <fragmenstein_error>  (754) 


$$$$
C1025-P77
     RDKit          3D

 33 34  0  0  0  0  0  0  0  0999 V2000
  -12.2179  -24.9218   11.4152 C   0  0  0  0  0  0  0  0  0  0  0  0
  -10.7903  -25.2686   11.8530 C   0  0  0  0  0  0  0  0  0  0  0  0
  -10.9079  -26.2873   12.9988 C   0  0  0  0  0  0  0  0  0  0  0  0
  -10.1423  -24.1007   12.3443 O   0  0  0  0  0  0  0  0  0  0  0  0
  -10.0882  -25.7672   10.6810 O   0  0  0  0  0  0  0  0  0  0  0  0
   -8.7377  -25.8922   10.7450 C   0  0  0  0  0  0  0  0  0  0  0  0
   -7.9460  -26.0569    9.7448 N   0  0  0  0  0  0  0  0  0  0  0  0
   -8.4765  -26.0659    8.3758 C   0  0  0  0  0  0  0  0  0  0  0  0
   -7.3885  -25.3830    7.0078 S   0  0  0  0  0  0  0  0  0  0  0  0
   -8.4594  -24.3986    6.0992 C   0  0  0  0  0  0  0  0  0  0  0  0
   -8.2172  -23.2478    5.5106 N   0  0  0  0  0  0  0  0  0  0  0  0
   -9.4482  -22.6500    5.4834 C   0  0  0  0  0  0  0  0  0  0  0  0
   -9.7777  -21.3176    5.2218 C   0  0  0  0  0  0  0  0  0  0  0  0
  -11.0825  -20.9296    5.4935 C   0  0  0  0  0  0  0  0  0  0  0  0
  -12.0114  -21.8404    6.0007 C   0  0  0  0  0  0  0  0  0  0  0  0
  -13.2908  -21.4673    6.1285 F   0  0  0  0  0  0  0  0  0  0  0  0
  -11.7157  -23.1655    6.2541 C   0  0  0  0  0  0  0  0  0  0  0  0
  -10.4252  -23.5244    5.9405 C   0  0  0  0  0  0  0  0  0  0  0  0
   -9.7772  -24.7122    6.0587 N   0  0  0  0  0  0  0  0  0  0  0  0
  -12.1953  -24.2716   10.5347 H   0  0  0  0  0  0  0  0  0  0  0  0
  -12.7708  -25.8201   11.1191 H   0  0  0  0  0  0  0  0  0  0  0  0
  -12.7699  -24.4010   12.2045 H   0  0  0  0  0  0  0  0  0  0  0  0
   -9.9162  -26.5419   13.3886 H   0  0  0  0  0  0  0  0  0  0  0  0
  -11.3686  -27.2190   12.6551 H   0  0  0  0  0  0  0  0  0  0  0  0
  -11.4830  -25.8804   13.8375 H   0  0  0  0  0  0  0  0  0  0  0  0
  -10.6175  -23.3138   12.0262 H   0  0  0  0  0  0  0  0  0  0  0  0
   -8.3449  -25.8449   11.7714 H   0  0  0  0  0  0  0  0  0  0  0  0
   -8.6476  -27.1115    8.0960 H   0  0  0  0  0  0  0  0  0  0  0  0
   -9.4537  -25.5855    8.3518 H   0  0  0  0  0  0  0  0  0  0  0  0
   -9.0401  -20.6154    4.8545 H   0  0  0  0  0  0  0  0  0  0  0  0
  -11.3961  -19.9230    5.2347 H   0  0  0  0  0  0  0  0  0  0  0  0
  -12.4581  -23.8582    6.6232 H   0  0  0  0  0  0  0  0  0  0  0  0
  -10.1860  -25.5628    6.4044 H   0  0  0  0  0  0  0  0  0  0  0  0
  1  2  1  0
  2  3  1  0
  2  4  1  0
  2  5  1  0
  5  6  1  0
  6  7  2  3
  7  8  1  0
  8  9  1  0
  9 10  1  0
 10 11  2  0
 11 12  1  0
 12 13  2  0
 13 14  1  0
 14 15  2  0
 15 16  1  0
 15 17  1  0
 17 18  2  0
 18 19  1  0
 19 10  1  0
 18 12  1  0
  1 20  1  0
  1 21  1  0
  1 22  1  0
  3 23  1  0
  3 24  1  0
  3 25  1  0
  4 26  1  0
  6 27  1  0
  8 28  1  0
  8 29  1  0
 13 30  1  0
 14 31  1  0
 17 32  1  0
 19 33  1  0
M  END
>  <Energy>  (755) 
-14.796761360772532

>  <compound_id>  (755) 
1025

>  <target_id>  (755) 
1

>  <reference_id>  (755) 
77

>  <inspiration_ids>  (755) 
[77, 2]

>  <energy_score>  (755) 
-23.518453958425635

>  <distance_score>  (755) 
3.8228489055881667

>  <path>  (755) 
/opt/xchem-fragalysis-2/maxwin/BulkDock/SCRATCH/505733/C1025-P77/C1025-P77.minimised.mol

>  <scratch_subdir>  (755) 
/opt/xchem-fragalysis-2/maxwin/BulkDock/SCRATCH/505733/C1025-P77

>  <fragmenstein_runtime>  (755) 
13.136175155639648

>  <fragmenstein_outcome>  (755) 
too moved

>  <fragmenstein_mode>  (755) 
expansion

>  <fragmenstein_error>  (755) 


$$$$
C1025-P2
     RDKit          3D

 33 34  0  0  0  0  0  0  0  0999 V2000
  -12.0726  -24.3913   12.3689 C   0  0  0  0  0  0  0  0  0  0  0  0
  -11.7784  -25.6521   11.5639 C   0  0  0  0  0  0  0  0  0  0  0  0
  -12.6812  -26.7579   12.1259 C   0  0  0  0  0  0  0  0  0  0  0  0
  -10.4179  -26.0196   11.7745 O   0  0  0  0  0  0  0  0  0  0  0  0
  -12.0404  -25.3790   10.1585 O   0  0  0  0  0  0  0  0  0  0  0  0
  -11.4513  -26.2003    9.2577 C   0  0  0  0  0  0  0  0  0  0  0  0
  -11.3948  -26.0346    7.9843 N   0  0  0  0  0  0  0  0  0  0  0  0
  -12.0310  -24.8941    7.3143 C   0  0  0  0  0  0  0  0  0  0  0  0
  -11.0736  -24.2073    5.8385 S   0  0  0  0  0  0  0  0  0  0  0  0
   -9.9024  -23.3514    6.7554 C   0  0  0  0  0  0  0  0  0  0  0  0
   -9.8860  -22.0680    7.0112 N   0  0  0  0  0  0  0  0  0  0  0  0
   -9.2923  -22.0000    8.2446 C   0  0  0  0  0  0  0  0  0  0  0  0
   -9.1327  -20.9055    9.0956 C   0  0  0  0  0  0  0  0  0  0  0  0
   -8.6247  -21.1377   10.3810 C   0  0  0  0  0  0  0  0  0  0  0  0
   -8.2937  -22.4250   10.7941 C   0  0  0  0  0  0  0  0  0  0  0  0
   -7.8728  -22.6293   12.0470 F   0  0  0  0  0  0  0  0  0  0  0  0
   -8.3899  -23.5225    9.9478 C   0  0  0  0  0  0  0  0  0  0  0  0
   -8.8789  -23.2590    8.6755 C   0  0  0  0  0  0  0  0  0  0  0  0
   -9.1244  -24.0740    7.6074 N   0  0  0  0  0  0  0  0  0  0  0  0
  -11.7935  -24.5153   13.4209 H   0  0  0  0  0  0  0  0  0  0  0  0
  -11.4866  -23.5510   11.9823 H   0  0  0  0  0  0  0  0  0  0  0  0
  -13.1325  -24.1281   12.3163 H   0  0  0  0  0  0  0  0  0  0  0  0
  -12.4879  -27.7047   11.6090 H   0  0  0  0  0  0  0  0  0  0  0  0
  -13.7400  -26.5218   11.9767 H   0  0  0  0  0  0  0  0  0  0  0  0
  -12.4907  -26.9314   13.1905 H   0  0  0  0  0  0  0  0  0  0  0  0
   -9.9225  -25.2108   11.9978 H   0  0  0  0  0  0  0  0  0  0  0  0
  -10.9780  -27.0830    9.7138 H   0  0  0  0  0  0  0  0  0  0  0  0
  -12.2368  -24.0652    8.0011 H   0  0  0  0  0  0  0  0  0  0  0  0
  -12.9918  -25.2282    6.9096 H   0  0  0  0  0  0  0  0  0  0  0  0
   -9.4305  -19.9228    8.7567 H   0  0  0  0  0  0  0  0  0  0  0  0
   -8.4737  -20.3180   11.0737 H   0  0  0  0  0  0  0  0  0  0  0  0
   -8.0912  -24.5098   10.2747 H   0  0  0  0  0  0  0  0  0  0  0  0
   -9.0867  -25.0828    7.6115 H   0  0  0  0  0  0  0  0  0  0  0  0
  1  2  1  0
  2  3  1  0
  2  4  1  0
  2  5  1  0
  5  6  1  0
  6  7  2  3
  7  8  1  0
  8  9  1  0
  9 10  1  0
 10 11  2  0
 11 12  1  0
 12 13  2  0
 13 14  1  0
 14 15  2  0
 15 16  1  0
 15 17  1  0
 17 18  2  0
 18 19  1  0
 19 10  1  0
 18 12  1  0
  1 20  1  0
  1 21  1  0
  1 22  1  0
  3 23  1  0
  3 24  1  0
  3 25  1  0
  4 26  1  0
  6 27  1  0
  8 28  1  0
  8 29  1  0
 13 30  1  0
 14 31  1  0
 17 32  1  0
 19 33  1  0
M  END
>  <Energy>  (756) 
-27.981657224523971

>  <compound_id>  (756) 
1025

>  <target_id>  (756) 
1

>  <reference_id>  (756) 
2

>  <inspiration_ids>  (756) 
[77, 2]

>  <energy_score>  (756) 
-36.703349822176705

>  <distance_score>  (756) 
2.5807520102511674

>  <path>  (756) 
/opt/xchem-fragalysis-2/maxwin/BulkDock/SCRATCH/505733/C1025-P2/C1025-P2.minimised.mol

>  <scratch_subdir>  (756) 
/opt/xchem-fragalysis-2/maxwin/BulkDock/SCRATCH/505733/C1025-P2

>  <fragmenstein_runtime>  (756) 
11.595813751220703

>  <fragmenstein_outcome>  (756) 
too moved

>  <fragmenstein_mode>  (756) 
expansion

>  <fragmenstein_error>  (756) 


$$$$
C1026-P77
     RDKit          3D

 41 43  0  0  0  0  0  0  0  0999 V2000
  -16.5017  -24.4908   11.3505 C   0  0  0  0  0  0  0  0  0  0  0  0
  -15.2003  -25.2642   11.5707 C   0  0  0  0  0  0  0  0  0  0  0  0
  -15.3251  -26.6526   10.9324 C   0  0  0  0  0  0  0  0  0  0  0  0
  -14.1766  -24.5127   10.9096 O   0  0  0  0  0  0  0  0  0  0  0  0
  -12.8866  -24.7480   11.2247 C   0  0  0  0  0  0  0  0  0  0  0  0
  -11.9863  -24.5076   10.4339 O   0  0  0  0  0  0  0  0  0  0  0  0
  -12.6366  -25.2852   12.5810 C   0  0  0  0  0  0  0  0  0  0  0  0
  -13.7507  -25.5931   13.3677 C   0  0  0  0  0  0  0  0  0  0  0  0
  -13.6070  -26.1432   14.6383 C   0  0  0  0  0  0  0  0  0  0  0  0
  -12.3430  -26.4860   15.0866 C   0  0  0  0  0  0  0  0  0  0  0  0
  -12.1938  -27.0656   16.3162 O   0  0  0  0  0  0  0  0  0  0  0  0
  -11.2153  -26.2257   14.2989 C   0  0  0  0  0  0  0  0  0  0  0  0
   -9.5691  -26.9723   14.8969 Br  0  0  0  0  0  0  0  0  0  0  0  0
  -11.3295  -25.5140   13.0811 C   0  0  0  0  0  0  0  0  0  0  0  0
  -10.0826  -24.9635   12.4004 C   0  0  0  0  0  0  0  0  0  0  0  0
   -9.4185  -25.9189   11.4097 C   0  0  0  0  0  0  0  0  0  0  0  0
   -7.9272  -25.8020   11.4720 N   0  0  0  0  0  0  0  0  0  0  0  0
   -7.0969  -27.2949   11.3519 S   0  0  0  0  0  0  0  0  0  0  0  0
   -6.9335  -27.5317    9.9353 O   0  0  0  0  0  0  0  0  0  0  0  0
   -7.7434  -28.2542   12.2173 O   0  0  0  0  0  0  0  0  0  0  0  0
   -5.4549  -27.0571   11.9551 C   0  0  0  0  0  0  0  0  0  0  0  0
   -4.4024  -26.2451   11.5751 C   0  0  0  0  0  0  0  0  0  0  0  0
   -3.2552  -26.5157   12.3718 C   0  0  0  0  0  0  0  0  0  0  0  0
   -3.3854  -27.4473   13.3121 N   0  0  0  0  0  0  0  0  0  0  0  0
   -4.9385  -28.0266   13.2632 S   0  0  0  0  0  0  0  0  0  0  0  0
  -15.0393  -25.3795   12.9807 O   0  0  0  0  0  0  0  0  0  0  0  0
  -16.7086  -24.3484   10.2844 H   0  0  0  0  0  0  0  0  0  0  0  0
  -17.3530  -24.9972   11.8181 H   0  0  0  0  0  0  0  0  0  0  0  0
  -16.4327  -23.4938   11.8016 H   0  0  0  0  0  0  0  0  0  0  0  0
  -14.4048  -27.2332   11.0604 H   0  0  0  0  0  0  0  0  0  0  0  0
  -16.1330  -27.2296   11.3947 H   0  0  0  0  0  0  0  0  0  0  0  0
  -15.5051  -26.5777    9.8547 H   0  0  0  0  0  0  0  0  0  0  0  0
  -14.4913  -26.3382   15.2382 H   0  0  0  0  0  0  0  0  0  0  0  0
  -13.0585  -27.1359   16.7547 H   0  0  0  0  0  0  0  0  0  0  0  0
  -10.2921  -23.9973   11.9278 H   0  0  0  0  0  0  0  0  0  0  0  0
   -9.3762  -24.6796   13.1862 H   0  0  0  0  0  0  0  0  0  0  0  0
   -9.7332  -26.9462   11.6184 H   0  0  0  0  0  0  0  0  0  0  0  0
   -9.7339  -25.7024   10.3845 H   0  0  0  0  0  0  0  0  0  0  0  0
   -7.5802  -25.2118   10.7079 H   0  0  0  0  0  0  0  0  0  0  0  0
   -4.4466  -25.5275   10.7673 H   0  0  0  0  0  0  0  0  0  0  0  0
   -2.2900  -26.0337   12.2781 H   0  0  0  0  0  0  0  0  0  0  0  0
  1  2  1  0
  2  3  1  0
  2  4  1  0
  4  5  1  0
  5  6  2  0
  5  7  1  0
  7  8  2  0
  8  9  1  0
  9 10  2  0
 10 11  1  0
 10 12  1  0
 12 13  1  0
 12 14  2  0
 14 15  1  0
 15 16  1  0
 16 17  1  0
 17 18  1  0
 18 19  2  0
 18 20  2  0
 18 21  1  0
 21 22  2  0
 22 23  1  0
 23 24  2  0
 24 25  1  0
  8 26  1  0
 26  2  1  0
 14  7  1  0
 25 21  1  0
  1 27  1  0
  1 28  1  0
  1 29  1  0
  3 30  1  0
  3 31  1  0
  3 32  1  0
  9 33  1  0
 11 34  1  0
 15 35  1  0
 15 36  1  0
 16 37  1  0
 16 38  1  0
 17 39  1  0
 22 40  1  0
 23 41  1  0
M  END
>  <Energy>  (757) 
-27.992852299868936

>  <compound_id>  (757) 
1026

>  <target_id>  (757) 
1

>  <reference_id>  (757) 
77

>  <inspiration_ids>  (757) 
[77, 21]

>  <energy_score>  (757) 
-51.758842117822624

>  <distance_score>  (757) 
0.9494562145160798

>  <path>  (757) 
/opt/xchem-fragalysis-2/maxwin/BulkDock/SCRATCH/505733/C1026-P77/C1026-P77.minimised.mol

>  <scratch_subdir>  (757) 
/opt/xchem-fragalysis-2/maxwin/BulkDock/SCRATCH/505733/C1026-P77

>  <fragmenstein_runtime>  (757) 
3.040334463119507

>  <fragmenstein_outcome>  (757) 
acceptable

>  <fragmenstein_mode>  (757) 
expansion

>  <fragmenstein_error>  (757) 


$$$$
C1026-P21
     RDKit          3D

 41 43  0  0  0  0  0  0  0  0999 V2000
  -16.3711  -24.4907   11.4037 C   0  0  0  0  0  0  0  0  0  0  0  0
  -15.0701  -25.2732   11.5911 C   0  0  0  0  0  0  0  0  0  0  0  0
  -15.1905  -26.6292   10.8862 C   0  0  0  0  0  0  0  0  0  0  0  0
  -14.0444  -24.4900   10.9716 O   0  0  0  0  0  0  0  0  0  0  0  0
  -12.7562  -24.7470   11.2761 C   0  0  0  0  0  0  0  0  0  0  0  0
  -11.8537  -24.4890   10.4940 O   0  0  0  0  0  0  0  0  0  0  0  0
  -12.5084  -25.3314   12.6144 C   0  0  0  0  0  0  0  0  0  0  0  0
  -13.6265  -25.6701   13.3823 C   0  0  0  0  0  0  0  0  0  0  0  0
  -13.4849  -26.2451   14.6410 C   0  0  0  0  0  0  0  0  0  0  0  0
  -12.2188  -26.5720   15.0963 C   0  0  0  0  0  0  0  0  0  0  0  0
  -12.0737  -27.1673   16.3186 O   0  0  0  0  0  0  0  0  0  0  0  0
  -11.0835  -26.2800   14.3285 C   0  0  0  0  0  0  0  0  0  0  0  0
   -9.4295  -26.9755   14.9669 Br  0  0  0  0  0  0  0  0  0  0  0  0
  -11.1969  -25.5550   13.1206 C   0  0  0  0  0  0  0  0  0  0  0  0
   -9.9711  -24.9183   12.4732 C   0  0  0  0  0  0  0  0  0  0  0  0
   -9.1910  -25.7700   11.4594 C   0  0  0  0  0  0  0  0  0  0  0  0
   -8.0764  -26.4737   12.1442 N   0  0  0  0  0  0  0  0  0  0  0  0
   -6.9562  -27.3222   11.2035 S   0  0  0  0  0  0  0  0  0  0  0  0
   -7.3168  -28.7178   11.3134 O   0  0  0  0  0  0  0  0  0  0  0  0
   -6.8199  -26.6575    9.9289 O   0  0  0  0  0  0  0  0  0  0  0  0
   -5.3655  -27.1521   11.9674 C   0  0  0  0  0  0  0  0  0  0  0  0
   -4.2381  -26.4062   11.6734 C   0  0  0  0  0  0  0  0  0  0  0  0
   -3.2212  -26.6323   12.6443 C   0  0  0  0  0  0  0  0  0  0  0  0
   -3.5105  -27.4794   13.6297 N   0  0  0  0  0  0  0  0  0  0  0  0
   -5.0566  -28.0482   13.3884 S   0  0  0  0  0  0  0  0  0  0  0  0
  -14.9148  -25.4586   12.9942 O   0  0  0  0  0  0  0  0  0  0  0  0
  -16.3044  -23.5168   11.9030 H   0  0  0  0  0  0  0  0  0  0  0  0
  -16.5738  -24.2967   10.3449 H   0  0  0  0  0  0  0  0  0  0  0  0
  -17.2240  -25.0197   11.8426 H   0  0  0  0  0  0  0  0  0  0  0  0
  -14.2710  -27.2153   10.9928 H   0  0  0  0  0  0  0  0  0  0  0  0
  -16.0014  -27.2277   11.3149 H   0  0  0  0  0  0  0  0  0  0  0  0
  -15.3634  -26.5028    9.8121 H   0  0  0  0  0  0  0  0  0  0  0  0
  -14.3709  -26.4666   15.2292 H   0  0  0  0  0  0  0  0  0  0  0  0
  -12.9320  -27.2064   16.7742 H   0  0  0  0  0  0  0  0  0  0  0  0
  -10.2647  -23.9694   12.0121 H   0  0  0  0  0  0  0  0  0  0  0  0
   -9.3037  -24.5761   13.2726 H   0  0  0  0  0  0  0  0  0  0  0  0
   -9.8420  -26.4994   10.9672 H   0  0  0  0  0  0  0  0  0  0  0  0
   -8.7582  -25.1091   10.7046 H   0  0  0  0  0  0  0  0  0  0  0  0
   -8.4139  -27.1043   12.8764 H   0  0  0  0  0  0  0  0  0  0  0  0
   -4.1595  -25.7411   10.8232 H   0  0  0  0  0  0  0  0  0  0  0  0
   -2.2417  -26.1693   12.6571 H   0  0  0  0  0  0  0  0  0  0  0  0
  1  2  1  0
  2  3  1  0
  2  4  1  0
  4  5  1  0
  5  6  2  0
  5  7  1  0
  7  8  2  0
  8  9  1  0
  9 10  2  0
 10 11  1  0
 10 12  1  0
 12 13  1  0
 12 14  2  0
 14 15  1  0
 15 16  1  0
 16 17  1  0
 17 18  1  0
 18 19  2  0
 18 20  2  0
 18 21  1  0
 21 22  2  0
 22 23  1  0
 23 24  2  0
 24 25  1  0
  8 26  1  0
 26  2  1  0
 14  7  1  0
 25 21  1  0
  1 27  1  0
  1 28  1  0
  1 29  1  0
  3 30  1  0
  3 31  1  0
  3 32  1  0
  9 33  1  0
 11 34  1  0
 15 35  1  0
 15 36  1  0
 16 37  1  0
 16 38  1  0
 17 39  1  0
 22 40  1  0
 23 41  1  0
M  END
>  <Energy>  (758) 
-30.690889713898443

>  <compound_id>  (758) 
1026

>  <target_id>  (758) 
1

>  <reference_id>  (758) 
21

>  <inspiration_ids>  (758) 
[77, 21]

>  <energy_score>  (758) 
-54.456879531850106

>  <distance_score>  (758) 
0.9254098270330792

>  <path>  (758) 
/opt/xchem-fragalysis-2/maxwin/BulkDock/SCRATCH/505733/C1026-P21/C1026-P21.minimised.mol

>  <scratch_subdir>  (758) 
/opt/xchem-fragalysis-2/maxwin/BulkDock/SCRATCH/505733/C1026-P21

>  <fragmenstein_runtime>  (758) 
3.7011804580688477

>  <fragmenstein_outcome>  (758) 
acceptable

>  <fragmenstein_mode>  (758) 
expansion

>  <fragmenstein_error>  (758) 


$$$$
C1027-P77
     RDKit          3D

 46 48  0  0  0  0  0  0  0  0999 V2000
  -16.1397  -23.8413   13.6614 C   0  0  0  0  0  0  0  0  0  0  0  0
  -15.8265  -24.9833   12.6913 C   0  0  0  0  0  0  0  0  0  0  0  0
  -17.0920  -25.3491   11.9149 C   0  0  0  0  0  0  0  0  0  0  0  0
  -14.8784  -24.5319   11.7240 O   0  0  0  0  0  0  0  0  0  0  0  0
  -13.5616  -24.6740   11.9592 C   0  0  0  0  0  0  0  0  0  0  0  0
  -12.7375  -24.2885   11.1446 O   0  0  0  0  0  0  0  0  0  0  0  0
  -13.1495  -25.3870   13.1819 C   0  0  0  0  0  0  0  0  0  0  0  0
  -14.1385  -26.1541   13.7930 C   0  0  0  0  0  0  0  0  0  0  0  0
  -13.8302  -26.9954   14.8512 C   0  0  0  0  0  0  0  0  0  0  0  0
  -12.5164  -27.1127   15.2610 C   0  0  0  0  0  0  0  0  0  0  0  0
  -12.2635  -27.9573   16.3036 O   0  0  0  0  0  0  0  0  0  0  0  0
  -11.5026  -26.3787   14.6486 C   0  0  0  0  0  0  0  0  0  0  0  0
   -9.7363  -26.8105   15.1927 Br  0  0  0  0  0  0  0  0  0  0  0  0
  -11.8114  -25.4185   13.6647 C   0  0  0  0  0  0  0  0  0  0  0  0
  -10.7857  -24.3603   13.3026 C   0  0  0  0  0  0  0  0  0  0  0  0
   -9.6909  -24.7511   12.3366 C   0  0  0  0  0  0  0  0  0  0  0  0
  -10.2251  -24.7539   10.9905 N   0  0  0  0  0  0  0  0  0  0  0  0
  -10.0348  -26.0952   10.0267 S   0  0  0  0  0  0  0  0  0  0  0  0
  -10.7748  -25.7901    8.8269 O   0  0  0  0  0  0  0  0  0  0  0  0
   -8.6339  -26.4492   10.0129 O   0  0  0  0  0  0  0  0  0  0  0  0
  -10.9138  -27.3802   10.8605 C   0  0  0  0  0  0  0  0  0  0  0  0
  -10.2321  -28.1937   11.7670 C   0  0  0  0  0  0  0  0  0  0  0  0
  -10.8362  -29.3534   12.2315 C   0  0  0  0  0  0  0  0  0  0  0  0
  -12.0952  -29.6992   11.7590 C   0  0  0  0  0  0  0  0  0  0  0  0
  -12.5686  -30.9226   12.1137 O   0  0  0  0  0  0  0  0  0  0  0  0
  -12.8071  -28.8682   10.8989 C   0  0  0  0  0  0  0  0  0  0  0  0
  -12.2087  -27.6988   10.4404 C   0  0  0  0  0  0  0  0  0  0  0  0
  -15.4438  -26.1516   13.4076 O   0  0  0  0  0  0  0  0  0  0  0  0
  -16.8732  -24.1484   14.4144 H   0  0  0  0  0  0  0  0  0  0  0  0
  -15.2380  -23.5256   14.1972 H   0  0  0  0  0  0  0  0  0  0  0  0
  -16.5140  -22.9595   13.1302 H   0  0  0  0  0  0  0  0  0  0  0  0
  -17.8860  -25.6976   12.5841 H   0  0  0  0  0  0  0  0  0  0  0  0
  -16.8834  -26.1630   11.2103 H   0  0  0  0  0  0  0  0  0  0  0  0
  -17.4621  -24.5018   11.3276 H   0  0  0  0  0  0  0  0  0  0  0  0
  -14.6059  -27.5821   15.3357 H   0  0  0  0  0  0  0  0  0  0  0  0
  -11.2999  -27.9719   16.4515 H   0  0  0  0  0  0  0  0  0  0  0  0
  -11.2924  -23.4511   12.9596 H   0  0  0  0  0  0  0  0  0  0  0  0
  -10.2987  -24.0429   14.2338 H   0  0  0  0  0  0  0  0  0  0  0  0
   -8.9124  -23.9905   12.3937 H   0  0  0  0  0  0  0  0  0  0  0  0
   -9.2075  -25.6926   12.5919 H   0  0  0  0  0  0  0  0  0  0  0  0
  -11.1745  -24.3625   10.8654 H   0  0  0  0  0  0  0  0  0  0  0  0
   -9.2028  -27.9806   12.0472 H   0  0  0  0  0  0  0  0  0  0  0  0
  -10.2974  -30.0260   12.8930 H   0  0  0  0  0  0  0  0  0  0  0  0
  -13.4054  -31.0818   11.6463 H   0  0  0  0  0  0  0  0  0  0  0  0
  -13.7919  -29.1425   10.5336 H   0  0  0  0  0  0  0  0  0  0  0  0
  -12.7252  -27.0797    9.7088 H   0  0  0  0  0  0  0  0  0  0  0  0
  1  2  1  0
  2  3  1  0
  2  4  1  0
  4  5  1  0
  5  6  2  0
  5  7  1  0
  7  8  2  0
  8  9  1  0
  9 10  2  0
 10 11  1  0
 10 12  1  0
 12 13  1  0
 12 14  2  0
 14 15  1  0
 15 16  1  0
 16 17  1  0
 17 18  1  0
 18 19  2  0
 18 20  2  0
 18 21  1  0
 21 22  2  0
 22 23  1  0
 23 24  2  0
 24 25  1  0
 24 26  1  0
 26 27  2  0
  8 28  1  0
 28  2  1  0
 14  7  1  0
 27 21  1  0
  1 29  1  0
  1 30  1  0
  1 31  1  0
  3 32  1  0
  3 33  1  0
  3 34  1  0
  9 35  1  0
 11 36  1  0
 15 37  1  0
 15 38  1  0
 16 39  1  0
 16 40  1  0
 17 41  1  0
 22 42  1  0
 23 43  1  0
 25 44  1  0
 26 45  1  0
 27 46  1  0
M  END
>  <Energy>  (759) 
-15.023142565529039

>  <compound_id>  (759) 
1027

>  <target_id>  (759) 
1

>  <reference_id>  (759) 
77

>  <inspiration_ids>  (759) 
[77, 28]

>  <energy_score>  (759) 
-54.378147395961165

>  <distance_score>  (759) 
1.4013252721208522

>  <path>  (759) 
/opt/xchem-fragalysis-2/maxwin/BulkDock/SCRATCH/505733/C1027-P77/C1027-P77.minimised.mol

>  <scratch_subdir>  (759) 
/opt/xchem-fragalysis-2/maxwin/BulkDock/SCRATCH/505733/C1027-P77

>  <fragmenstein_runtime>  (759) 
25.534832000732422

>  <fragmenstein_outcome>  (759) 
too moved

>  <fragmenstein_mode>  (759) 
expansion

>  <fragmenstein_error>  (759) 


$$$$
C1027-P28
     RDKit          3D

 46 48  0  0  0  0  0  0  0  0999 V2000
  -17.8356  -25.5651   12.6921 C   0  0  0  0  0  0  0  0  0  0  0  0
  -16.3499  -25.9027   12.5494 C   0  0  0  0  0  0  0  0  0  0  0  0
  -16.2049  -27.1512   11.6734 C   0  0  0  0  0  0  0  0  0  0  0  0
  -15.7483  -24.7783   11.9211 O   0  0  0  0  0  0  0  0  0  0  0  0
  -14.4070  -24.6433   11.9748 C   0  0  0  0  0  0  0  0  0  0  0  0
  -13.8492  -23.9676   11.1274 O   0  0  0  0  0  0  0  0  0  0  0  0
  -13.7023  -25.3211   13.1108 C   0  0  0  0  0  0  0  0  0  0  0  0
  -14.5214  -26.0347   13.9877 C   0  0  0  0  0  0  0  0  0  0  0  0
  -13.9980  -26.6781   15.0975 C   0  0  0  0  0  0  0  0  0  0  0  0
  -12.6355  -26.6789   15.2945 C   0  0  0  0  0  0  0  0  0  0  0  0
  -12.1809  -27.3599   16.3933 O   0  0  0  0  0  0  0  0  0  0  0  0
  -11.7712  -26.0059   14.4213 C   0  0  0  0  0  0  0  0  0  0  0  0
   -9.9513  -26.2973   14.8360 Br  0  0  0  0  0  0  0  0  0  0  0  0
  -12.2844  -25.2433   13.3481 C   0  0  0  0  0  0  0  0  0  0  0  0
  -11.4954  -24.2509   12.5120 C   0  0  0  0  0  0  0  0  0  0  0  0
   -9.9876  -24.0714   12.5259 C   0  0  0  0  0  0  0  0  0  0  0  0
   -9.2230  -25.2058   11.9987 N   0  0  0  0  0  0  0  0  0  0  0  0
   -9.6421  -26.0015   10.5940 S   0  0  0  0  0  0  0  0  0  0  0  0
  -10.4713  -25.1170    9.8159 O   0  0  0  0  0  0  0  0  0  0  0  0
   -8.4118  -26.5627   10.0849 O   0  0  0  0  0  0  0  0  0  0  0  0
  -10.6428  -27.3558   11.1076 C   0  0  0  0  0  0  0  0  0  0  0  0
  -10.1026  -28.2897   11.9925 C   0  0  0  0  0  0  0  0  0  0  0  0
  -10.7947  -29.4644   12.2571 C   0  0  0  0  0  0  0  0  0  0  0  0
  -12.0002  -29.6978   11.6054 C   0  0  0  0  0  0  0  0  0  0  0  0
  -12.6332  -30.8947   11.7245 O   0  0  0  0  0  0  0  0  0  0  0  0
  -12.5671  -28.7508   10.7583 C   0  0  0  0  0  0  0  0  0  0  0  0
  -11.8861  -27.5648   10.5050 C   0  0  0  0  0  0  0  0  0  0  0  0
  -15.8720  -26.1472   13.8635 O   0  0  0  0  0  0  0  0  0  0  0  0
  -18.2932  -25.3495   11.7205 H   0  0  0  0  0  0  0  0  0  0  0  0
  -18.3867  -26.3783   13.1769 H   0  0  0  0  0  0  0  0  0  0  0  0
  -17.9653  -24.6717   13.3148 H   0  0  0  0  0  0  0  0  0  0  0  0
  -16.6990  -28.0155   12.1298 H   0  0  0  0  0  0  0  0  0  0  0  0
  -15.1532  -27.4204   11.5388 H   0  0  0  0  0  0  0  0  0  0  0  0
  -16.6191  -26.9838   10.6734 H   0  0  0  0  0  0  0  0  0  0  0  0
  -14.6493  -27.2107   15.7855 H   0  0  0  0  0  0  0  0  0  0  0  0
  -11.2057  -27.3298   16.3752 H   0  0  0  0  0  0  0  0  0  0  0  0
  -11.7752  -24.4049   11.4766 H   0  0  0  0  0  0  0  0  0  0  0  0
  -11.8975  -23.2706   12.8015 H   0  0  0  0  0  0  0  0  0  0  0  0
   -9.7440  -23.1864   11.9307 H   0  0  0  0  0  0  0  0  0  0  0  0
   -9.6474  -23.8286   13.5354 H   0  0  0  0  0  0  0  0  0  0  0  0
   -8.2150  -25.2089   12.1557 H   0  0  0  0  0  0  0  0  0  0  0  0
   -9.1139  -28.1381   12.4200 H   0  0  0  0  0  0  0  0  0  0  0  0
  -10.3530  -30.2067   12.9142 H   0  0  0  0  0  0  0  0  0  0  0  0
  -12.0706  -31.5008   12.2340 H   0  0  0  0  0  0  0  0  0  0  0  0
  -13.5061  -28.9634   10.2548 H   0  0  0  0  0  0  0  0  0  0  0  0
  -12.2945  -26.8479    9.7953 H   0  0  0  0  0  0  0  0  0  0  0  0
  1  2  1  0
  2  3  1  0
  2  4  1  0
  4  5  1  0
  5  6  2  0
  5  7  1  0
  7  8  2  0
  8  9  1  0
  9 10  2  0
 10 11  1  0
 10 12  1  0
 12 13  1  0
 12 14  2  0
 14 15  1  0
 15 16  1  0
 16 17  1  0
 17 18  1  0
 18 19  2  0
 18 20  2  0
 18 21  1  0
 21 22  2  0
 22 23  1  0
 23 24  2  0
 24 25  1  0
 24 26  1  0
 26 27  2  0
  8 28  1  0
 28  2  1  0
 14  7  1  0
 27 21  1  0
  1 29  1  0
  1 30  1  0
  1 31  1  0
  3 32  1  0
  3 33  1  0
  3 34  1  0
  9 35  1  0
 11 36  1  0
 15 37  1  0
 15 38  1  0
 16 39  1  0
 16 40  1  0
 17 41  1  0
 22 42  1  0
 23 43  1  0
 25 44  1  0
 26 45  1  0
 27 46  1  0
M  END
>  <Energy>  (760) 
0.38506523669945913

>  <compound_id>  (760) 
1027

>  <target_id>  (760) 
1

>  <reference_id>  (760) 
28

>  <inspiration_ids>  (760) 
[77, 28]

>  <energy_score>  (760) 
-38.96993959373317

>  <distance_score>  (760) 
1.1358763979847553

>  <path>  (760) 
/opt/xchem-fragalysis-2/maxwin/BulkDock/SCRATCH/505733/C1027-P28/C1027-P28.minimised.mol

>  <scratch_subdir>  (760) 
/opt/xchem-fragalysis-2/maxwin/BulkDock/SCRATCH/505733/C1027-P28

>  <fragmenstein_runtime>  (760) 
24.332082509994507

>  <fragmenstein_outcome>  (760) 
too moved

>  <fragmenstein_mode>  (760) 
expansion

>  <fragmenstein_error>  (760) 


$$$$
C1027-P77
     RDKit          3D

 46 48  0  0  0  0  0  0  0  0999 V2000
  -14.4556  -33.5492   15.0339 C   0  0  0  0  0  0  0  0  0  0  0  0
  -13.2589  -32.6198   15.2437 C   0  0  0  0  0  0  0  0  0  0  0  0
  -12.1839  -33.3573   16.0510 C   0  0  0  0  0  0  0  0  0  0  0  0
  -13.7448  -31.5056   15.9937 O   0  0  0  0  0  0  0  0  0  0  0  0
  -13.1521  -30.2993   15.8874 C   0  0  0  0  0  0  0  0  0  0  0  0
  -13.5555  -29.3525   16.5491 O   0  0  0  0  0  0  0  0  0  0  0  0
  -12.0391  -30.1848   14.9035 C   0  0  0  0  0  0  0  0  0  0  0  0
  -11.9788  -31.1855   13.9309 C   0  0  0  0  0  0  0  0  0  0  0  0
  -11.0831  -31.1079   12.8693 C   0  0  0  0  0  0  0  0  0  0  0  0
  -10.1915  -30.0474   12.8077 C   0  0  0  0  0  0  0  0  0  0  0  0
   -9.3118  -29.9758   11.7617 O   0  0  0  0  0  0  0  0  0  0  0  0
  -10.1801  -29.0623   13.8083 C   0  0  0  0  0  0  0  0  0  0  0  0
   -8.8493  -27.7125   13.7016 Br  0  0  0  0  0  0  0  0  0  0  0  0
  -11.1108  -29.1019   14.8736 C   0  0  0  0  0  0  0  0  0  0  0  0
  -11.1202  -28.0190   15.9471 C   0  0  0  0  0  0  0  0  0  0  0  0
  -11.9461  -26.7702   15.6200 C   0  0  0  0  0  0  0  0  0  0  0  0
  -13.2504  -27.1509   15.0560 N   0  0  0  0  0  0  0  0  0  0  0  0
  -14.1951  -25.9814   14.3275 S   0  0  0  0  0  0  0  0  0  0  0  0
  -15.3143  -26.6394   13.6963 O   0  0  0  0  0  0  0  0  0  0  0  0
  -14.3658  -24.9279   15.3055 O   0  0  0  0  0  0  0  0  0  0  0  0
  -13.0634  -25.4615   13.0465 C   0  0  0  0  0  0  0  0  0  0  0  0
  -12.5172  -26.4149   12.1935 C   0  0  0  0  0  0  0  0  0  0  0  0
  -11.3168  -26.1370   11.5366 C   0  0  0  0  0  0  0  0  0  0  0  0
  -10.6665  -24.9266   11.7649 C   0  0  0  0  0  0  0  0  0  0  0  0
   -9.4368  -24.6715   11.2407 O   0  0  0  0  0  0  0  0  0  0  0  0
  -11.2483  -23.9447   12.5476 C   0  0  0  0  0  0  0  0  0  0  0  0
  -12.4785  -24.2036   13.1444 C   0  0  0  0  0  0  0  0  0  0  0  0
  -12.7764  -32.2914   13.9411 O   0  0  0  0  0  0  0  0  0  0  0  0
  -14.8998  -33.8534   15.9878 H   0  0  0  0  0  0  0  0  0  0  0  0
  -14.1741  -34.4429   14.4666 H   0  0  0  0  0  0  0  0  0  0  0  0
  -15.2389  -33.0374   14.4621 H   0  0  0  0  0  0  0  0  0  0  0  0
  -12.5696  -33.6747   17.0258 H   0  0  0  0  0  0  0  0  0  0  0  0
  -11.3220  -32.7113   16.2502 H   0  0  0  0  0  0  0  0  0  0  0  0
  -11.8106  -34.2319   15.5079 H   0  0  0  0  0  0  0  0  0  0  0  0
  -11.0868  -31.8870   12.1123 H   0  0  0  0  0  0  0  0  0  0  0  0
   -9.4260  -30.7424   11.1753 H   0  0  0  0  0  0  0  0  0  0  0  0
  -11.4791  -28.4421   16.8901 H   0  0  0  0  0  0  0  0  0  0  0  0
  -10.0971  -27.7176   16.1991 H   0  0  0  0  0  0  0  0  0  0  0  0
  -12.1009  -26.1968   16.5391 H   0  0  0  0  0  0  0  0  0  0  0  0
  -11.3750  -26.1512   14.9272 H   0  0  0  0  0  0  0  0  0  0  0  0
  -13.8057  -27.7821   15.6525 H   0  0  0  0  0  0  0  0  0  0  0  0
  -12.9628  -27.4041   12.1151 H   0  0  0  0  0  0  0  0  0  0  0  0
  -10.8688  -26.9021   10.9079 H   0  0  0  0  0  0  0  0  0  0  0  0
   -9.0939  -25.4899   10.8352 H   0  0  0  0  0  0  0  0  0  0  0  0
  -10.7460  -22.9934   12.6995 H   0  0  0  0  0  0  0  0  0  0  0  0
  -12.9907  -23.4731   13.7467 H   0  0  0  0  0  0  0  0  0  0  0  0
  1  2  1  0
  2  3  1  0
  2  4  1  0
  4  5  1  0
  5  6  2  0
  5  7  1  0
  7  8  2  0
  8  9  1  0
  9 10  2  0
 10 11  1  0
 10 12  1  0
 12 13  1  0
 12 14  2  0
 14 15  1  0
 15 16  1  0
 16 17  1  0
 17 18  1  0
 18 19  2  0
 18 20  2  0
 18 21  1  0
 21 22  2  0
 22 23  1  0
 23 24  2  0
 24 25  1  0
 24 26  1  0
 26 27  2  0
  8 28  1  0
 28  2  1  0
 14  7  1  0
 27 21  1  0
  1 29  1  0
  1 30  1  0
  1 31  1  0
  3 32  1  0
  3 33  1  0
  3 34  1  0
  9 35  1  0
 11 36  1  0
 15 37  1  0
 15 38  1  0
 16 39  1  0
 16 40  1  0
 17 41  1  0
 22 42  1  0
 23 43  1  0
 25 44  1  0
 26 45  1  0
 27 46  1  0
M  END
>  <Energy>  (761) 
-8.9591701490870008

>  <compound_id>  (761) 
1027

>  <target_id>  (761) 
1

>  <reference_id>  (761) 
77

>  <inspiration_ids>  (761) 
[77, 30]

>  <energy_score>  (761) 
-49.5965746896033

>  <distance_score>  (761) 
1.7795037958461895

>  <path>  (761) 
/opt/xchem-fragalysis-2/maxwin/BulkDock/SCRATCH/505733/C1027-P77/C1027-P77.minimised.mol

>  <scratch_subdir>  (761) 
/opt/xchem-fragalysis-2/maxwin/BulkDock/SCRATCH/505733/C1027-P77

>  <fragmenstein_runtime>  (761) 
2.500000476837158

>  <fragmenstein_outcome>  (761) 
too moved

>  <fragmenstein_mode>  (761) 
expansion

>  <fragmenstein_error>  (761) 


$$$$
C1027-P30
     RDKit          3D

 46 48  0  0  0  0  0  0  0  0999 V2000
  -15.7131  -32.3615   14.1800 C   0  0  0  0  0  0  0  0  0  0  0  0
  -14.3057  -31.8535   14.4971 C   0  0  0  0  0  0  0  0  0  0  0  0
  -13.4982  -32.9796   15.1531 C   0  0  0  0  0  0  0  0  0  0  0  0
  -14.4675  -30.7811   15.4253 O   0  0  0  0  0  0  0  0  0  0  0  0
  -13.5487  -29.7996   15.5050 C   0  0  0  0  0  0  0  0  0  0  0  0
  -13.6169  -28.9606   16.3936 O   0  0  0  0  0  0  0  0  0  0  0  0
  -12.4815  -29.7854   14.4652 C   0  0  0  0  0  0  0  0  0  0  0  0
  -12.6744  -30.6267   13.3671 C   0  0  0  0  0  0  0  0  0  0  0  0
  -11.7892  -30.6284   12.2919 C   0  0  0  0  0  0  0  0  0  0  0  0
  -10.6637  -29.8192   12.3302 C   0  0  0  0  0  0  0  0  0  0  0  0
   -9.7972  -29.8308   11.2715 O   0  0  0  0  0  0  0  0  0  0  0  0
  -10.4150  -28.9937   13.4374 C   0  0  0  0  0  0  0  0  0  0  0  0
   -8.7989  -27.9779   13.4348 Br  0  0  0  0  0  0  0  0  0  0  0  0
  -11.3317  -28.9414   14.5201 C   0  0  0  0  0  0  0  0  0  0  0  0
  -11.0761  -28.0087   15.6905 C   0  0  0  0  0  0  0  0  0  0  0  0
  -11.5800  -26.5811   15.5154 C   0  0  0  0  0  0  0  0  0  0  0  0
  -13.0444  -26.4452   15.6408 N   0  0  0  0  0  0  0  0  0  0  0  0
  -14.0520  -26.0817   14.3442 S   0  0  0  0  0  0  0  0  0  0  0  0
  -14.6063  -27.3376   13.8870 O   0  0  0  0  0  0  0  0  0  0  0  0
  -14.8905  -24.9915   14.7890 O   0  0  0  0  0  0  0  0  0  0  0  0
  -12.9420  -25.5021   13.0793 C   0  0  0  0  0  0  0  0  0  0  0  0
  -12.4636  -26.3838   12.1193 C   0  0  0  0  0  0  0  0  0  0  0  0
  -11.2791  -26.0759   11.4512 C   0  0  0  0  0  0  0  0  0  0  0  0
  -10.5957  -24.9026   11.7605 C   0  0  0  0  0  0  0  0  0  0  0  0
   -9.3631  -24.6513   11.2473 O   0  0  0  0  0  0  0  0  0  0  0  0
  -11.1416  -23.9592   12.6130 C   0  0  0  0  0  0  0  0  0  0  0  0
  -12.3510  -24.2488   13.2303 C   0  0  0  0  0  0  0  0  0  0  0  0
  -13.7222  -31.4894   13.2484 O   0  0  0  0  0  0  0  0  0  0  0  0
  -16.2431  -32.6693   15.0878 H   0  0  0  0  0  0  0  0  0  0  0  0
  -15.6874  -33.2003   13.4762 H   0  0  0  0  0  0  0  0  0  0  0  0
  -16.3075  -31.5669   13.7135 H   0  0  0  0  0  0  0  0  0  0  0  0
  -13.9739  -33.3196   16.0794 H   0  0  0  0  0  0  0  0  0  0  0  0
  -12.4913  -32.6414   15.4220 H   0  0  0  0  0  0  0  0  0  0  0  0
  -13.3805  -33.8307   14.4739 H   0  0  0  0  0  0  0  0  0  0  0  0
  -11.9889  -31.2765   11.4430 H   0  0  0  0  0  0  0  0  0  0  0  0
  -10.0816  -30.4883   10.6142 H   0  0  0  0  0  0  0  0  0  0  0  0
  -11.4723  -28.4285   16.6169 H   0  0  0  0  0  0  0  0  0  0  0  0
  -10.0003  -27.9701   15.8945 H   0  0  0  0  0  0  0  0  0  0  0  0
  -11.1820  -26.0054   16.3541 H   0  0  0  0  0  0  0  0  0  0  0  0
  -11.1476  -26.1234   14.6332 H   0  0  0  0  0  0  0  0  0  0  0  0
  -13.4494  -27.2640   16.1290 H   0  0  0  0  0  0  0  0  0  0  0  0
  -12.9366  -27.3495   11.9594 H   0  0  0  0  0  0  0  0  0  0  0  0
  -10.8647  -26.7949   10.7489 H   0  0  0  0  0  0  0  0  0  0  0  0
   -9.0608  -25.4300   10.7426 H   0  0  0  0  0  0  0  0  0  0  0  0
  -10.6268  -23.0231   12.8117 H   0  0  0  0  0  0  0  0  0  0  0  0
  -12.8302  -23.5530   13.8934 H   0  0  0  0  0  0  0  0  0  0  0  0
  1  2  1  0
  2  3  1  0
  2  4  1  0
  4  5  1  0
  5  6  2  0
  5  7  1  0
  7  8  2  0
  8  9  1  0
  9 10  2  0
 10 11  1  0
 10 12  1  0
 12 13  1  0
 12 14  2  0
 14 15  1  0
 15 16  1  0
 16 17  1  0
 17 18  1  0
 18 19  2  0
 18 20  2  0
 18 21  1  0
 21 22  2  0
 22 23  1  0
 23 24  2  0
 24 25  1  0
 24 26  1  0
 26 27  2  0
  8 28  1  0
 28  2  1  0
 14  7  1  0
 27 21  1  0
  1 29  1  0
  1 30  1  0
  1 31  1  0
  3 32  1  0
  3 33  1  0
  3 34  1  0
  9 35  1  0
 11 36  1  0
 15 37  1  0
 15 38  1  0
 16 39  1  0
 16 40  1  0
 17 41  1  0
 22 42  1  0
 23 43  1  0
 25 44  1  0
 26 45  1  0
 27 46  1  0
M  END
>  <Energy>  (762) 
-2.0823415525785101

>  <compound_id>  (762) 
1027

>  <target_id>  (762) 
1

>  <reference_id>  (762) 
30

>  <inspiration_ids>  (762) 
[77, 30]

>  <energy_score>  (762) 
-42.71974609309456

>  <distance_score>  (762) 
1.7691716102950281

>  <path>  (762) 
/opt/xchem-fragalysis-2/maxwin/BulkDock/SCRATCH/505733/C1027-P30/C1027-P30.minimised.mol

>  <scratch_subdir>  (762) 
/opt/xchem-fragalysis-2/maxwin/BulkDock/SCRATCH/505733/C1027-P30

>  <fragmenstein_runtime>  (762) 
2.8587329387664795

>  <fragmenstein_outcome>  (762) 
too moved

>  <fragmenstein_mode>  (762) 
expansion

>  <fragmenstein_error>  (762) 


$$$$
C1029-P77
     RDKit          3D

 45 47  0  0  0  0  0  0  0  0999 V2000
   -7.4901  -27.5365    9.3568 C   0  0  0  0  0  0  0  0  0  0  0  0
   -7.6187  -28.0896   10.6846 N   0  0  0  0  0  0  0  0  0  0  0  0
   -7.1738  -29.3051   11.1150 C   0  0  0  0  0  0  0  0  0  0  0  0
   -7.5033  -29.3825   12.4481 C   0  0  0  0  0  0  0  0  0  0  0  0
   -8.1579  -28.1609   12.7329 C   0  0  0  0  0  0  0  0  0  0  0  0
   -8.7605  -27.7374   14.3188 S   0  0  0  0  0  0  0  0  0  0  0  0
   -9.6381  -28.8277   14.7151 O   0  0  0  0  0  0  0  0  0  0  0  0
   -7.5679  -27.5062   15.0988 O   0  0  0  0  0  0  0  0  0  0  0  0
   -9.7002  -26.3158   14.3530 N   0  0  0  0  0  0  0  0  0  0  0  0
   -9.8158  -25.3238   13.2268 C   0  0  0  0  0  0  0  0  0  0  0  0
  -11.0485  -25.5260   12.2997 C   0  0  0  0  0  0  0  0  0  0  0  0
  -12.2351  -26.1412   13.0098 C   0  0  0  0  0  0  0  0  0  0  0  0
  -12.1026  -27.4413   13.4856 C   0  0  0  0  0  0  0  0  0  0  0  0
  -11.5265  -28.8223   12.2807 Br  0  0  0  0  0  0  0  0  0  0  0  0
  -12.7866  -27.8429   14.6268 C   0  0  0  0  0  0  0  0  0  0  0  0
  -12.3103  -28.8338   15.4267 O   0  0  0  0  0  0  0  0  0  0  0  0
  -13.9830  -27.2425   14.9411 C   0  0  0  0  0  0  0  0  0  0  0  0
  -14.3837  -26.1946   14.1395 C   0  0  0  0  0  0  0  0  0  0  0  0
  -13.4622  -25.5483   13.3159 C   0  0  0  0  0  0  0  0  0  0  0  0
  -13.9350  -24.2599   12.8389 C   0  0  0  0  0  0  0  0  0  0  0  0
  -13.1650  -23.3289   12.7498 O   0  0  0  0  0  0  0  0  0  0  0  0
  -15.2449  -24.1652   12.5301 O   0  0  0  0  0  0  0  0  0  0  0  0
  -16.0615  -25.2907   12.8565 C   0  0  0  0  0  0  0  0  0  0  0  0
  -17.4873  -24.7611   13.0141 C   0  0  0  0  0  0  0  0  0  0  0  0
  -16.0221  -26.3139   11.7014 C   0  0  0  0  0  0  0  0  0  0  0  0
  -15.7060  -25.8611   14.1273 O   0  0  0  0  0  0  0  0  0  0  0  0
   -8.2302  -27.3696   11.6440 N   0  0  0  0  0  0  0  0  0  0  0  0
   -8.4926  -27.3427    8.9673 H   0  0  0  0  0  0  0  0  0  0  0  0
   -6.9173  -26.6083    9.4252 H   0  0  0  0  0  0  0  0  0  0  0  0
   -6.9702  -28.2512    8.7142 H   0  0  0  0  0  0  0  0  0  0  0  0
   -6.6624  -29.9948   10.4576 H   0  0  0  0  0  0  0  0  0  0  0  0
   -7.2987  -30.1954   13.1312 H   0  0  0  0  0  0  0  0  0  0  0  0
   -9.4983  -25.8564   15.2422 H   0  0  0  0  0  0  0  0  0  0  0  0
   -9.9456  -24.3498   13.7194 H   0  0  0  0  0  0  0  0  0  0  0  0
   -8.8933  -25.2312   12.6530 H   0  0  0  0  0  0  0  0  0  0  0  0
  -11.3059  -24.5677   11.8390 H   0  0  0  0  0  0  0  0  0  0  0  0
  -10.7649  -26.1636   11.4553 H   0  0  0  0  0  0  0  0  0  0  0  0
  -11.3820  -29.0125   15.1477 H   0  0  0  0  0  0  0  0  0  0  0  0
  -14.6253  -27.6504   15.7132 H   0  0  0  0  0  0  0  0  0  0  0  0
  -17.5317  -24.0178   13.8191 H   0  0  0  0  0  0  0  0  0  0  0  0
  -18.1840  -25.5643   13.2769 H   0  0  0  0  0  0  0  0  0  0  0  0
  -17.8352  -24.2672   12.1005 H   0  0  0  0  0  0  0  0  0  0  0  0
  -16.6337  -27.1904   11.9409 H   0  0  0  0  0  0  0  0  0  0  0  0
  -16.3916  -25.8628   10.7737 H   0  0  0  0  0  0  0  0  0  0  0  0
  -15.0137  -26.6771   11.4833 H   0  0  0  0  0  0  0  0  0  0  0  0
  1  2  1  0
  2  3  1  0
  3  4  2  0
  4  5  1  0
  5  6  1  0
  6  7  2  0
  6  8  2  0
  6  9  1  0
  9 10  1  0
 10 11  1  0
 11 12  1  0
 12 13  2  0
 13 14  1  0
 13 15  1  0
 15 16  1  0
 15 17  2  0
 17 18  1  0
 18 19  2  0
 19 20  1  0
 20 21  2  0
 20 22  1  0
 22 23  1  0
 23 24  1  0
 23 25  1  0
 23 26  1  0
  5 27  2  0
 27  2  1  0
 19 12  1  0
 26 18  1  0
  1 28  1  0
  1 29  1  0
  1 30  1  0
  3 31  1  0
  4 32  1  0
  9 33  1  0
 10 34  1  0
 10 35  1  0
 11 36  1  0
 11 37  1  0
 16 38  1  0
 17 39  1  0
 24 40  1  0
 24 41  1  0
 24 42  1  0
 25 43  1  0
 25 44  1  0
 25 45  1  0
M  END
>  <Energy>  (763) 
97.007399936734686

>  <compound_id>  (763) 
1029

>  <target_id>  (763) 
1

>  <reference_id>  (763) 
77

>  <inspiration_ids>  (763) 
[77, 112]

>  <energy_score>  (763) 
-318.5185893111367

>  <distance_score>  (763) 
1.6636595896887565

>  <path>  (763) 
/opt/xchem-fragalysis-2/maxwin/BulkDock/SCRATCH/505733/C1029-P77/C1029-P77.minimised.mol

>  <scratch_subdir>  (763) 
/opt/xchem-fragalysis-2/maxwin/BulkDock/SCRATCH/505733/C1029-P77

>  <fragmenstein_runtime>  (763) 
5.216016530990601

>  <fragmenstein_outcome>  (763) 
too moved

>  <fragmenstein_mode>  (763) 
expansion

>  <fragmenstein_error>  (763) 


$$$$
C1029-P112
     RDKit          3D

 45 47  0  0  0  0  0  0  0  0999 V2000
   -5.0702  -25.2734   11.0304 C   0  0  0  0  0  0  0  0  0  0  0  0
   -6.1530  -25.6269   10.1432 N   0  0  0  0  0  0  0  0  0  0  0  0
   -6.0940  -25.7385    8.7849 C   0  0  0  0  0  0  0  0  0  0  0  0
   -7.3654  -26.0639    8.3715 C   0  0  0  0  0  0  0  0  0  0  0  0
   -8.1252  -26.1341    9.5605 C   0  0  0  0  0  0  0  0  0  0  0  0
   -9.8383  -26.4897    9.6362 S   0  0  0  0  0  0  0  0  0  0  0  0
  -10.3472  -26.4040    8.2855 O   0  0  0  0  0  0  0  0  0  0  0  0
   -9.9499  -27.7186   10.3953 O   0  0  0  0  0  0  0  0  0  0  0  0
  -10.6403  -25.2722   10.5551 N   0  0  0  0  0  0  0  0  0  0  0  0
  -10.0822  -25.0962   11.9209 C   0  0  0  0  0  0  0  0  0  0  0  0
  -11.0872  -24.4224   12.8574 C   0  0  0  0  0  0  0  0  0  0  0  0
  -12.0359  -25.3837   13.5536 C   0  0  0  0  0  0  0  0  0  0  0  0
  -11.5714  -26.3619   14.4608 C   0  0  0  0  0  0  0  0  0  0  0  0
   -9.7526  -26.6136   14.9352 Br  0  0  0  0  0  0  0  0  0  0  0  0
  -12.4651  -27.2214   15.1114 C   0  0  0  0  0  0  0  0  0  0  0  0
  -12.0544  -28.0933   16.0799 O   0  0  0  0  0  0  0  0  0  0  0  0
  -13.8081  -27.2347   14.7935 C   0  0  0  0  0  0  0  0  0  0  0  0
  -14.2759  -26.3196   13.8727 C   0  0  0  0  0  0  0  0  0  0  0  0
  -13.4364  -25.3342   13.3588 C   0  0  0  0  0  0  0  0  0  0  0  0
  -14.1925  -24.1963   12.8137 C   0  0  0  0  0  0  0  0  0  0  0  0
  -13.8707  -23.0486   13.0536 O   0  0  0  0  0  0  0  0  0  0  0  0
  -15.3064  -24.4961   12.1144 O   0  0  0  0  0  0  0  0  0  0  0  0
  -15.8043  -25.8326   12.2046 C   0  0  0  0  0  0  0  0  0  0  0  0
  -17.3214  -25.7417   12.0352 C   0  0  0  0  0  0  0  0  0  0  0  0
  -15.2161  -26.6816   11.0668 C   0  0  0  0  0  0  0  0  0  0  0  0
  -15.5810  -26.4278   13.4897 O   0  0  0  0  0  0  0  0  0  0  0  0
   -7.3751  -25.8690   10.6525 N   0  0  0  0  0  0  0  0  0  0  0  0
   -4.1205  -25.5133   10.5472 H   0  0  0  0  0  0  0  0  0  0  0  0
   -5.1662  -25.8505   11.9536 H   0  0  0  0  0  0  0  0  0  0  0  0
   -5.1389  -24.2033   11.2380 H   0  0  0  0  0  0  0  0  0  0  0  0
   -5.1800  -25.5635    8.2347 H   0  0  0  0  0  0  0  0  0  0  0  0
   -7.7114  -26.2107    7.3575 H   0  0  0  0  0  0  0  0  0  0  0  0
  -11.6279  -25.5285   10.5461 H   0  0  0  0  0  0  0  0  0  0  0  0
   -9.7612  -26.0652   12.2977 H   0  0  0  0  0  0  0  0  0  0  0  0
   -9.2034  -24.4587   11.8601 H   0  0  0  0  0  0  0  0  0  0  0  0
  -10.5357  -23.8857   13.6391 H   0  0  0  0  0  0  0  0  0  0  0  0
  -11.6317  -23.6564   12.2996 H   0  0  0  0  0  0  0  0  0  0  0  0
  -11.0826  -28.0447   16.1347 H   0  0  0  0  0  0  0  0  0  0  0  0
  -14.4777  -27.9553   15.2532 H   0  0  0  0  0  0  0  0  0  0  0  0
  -17.7579  -25.1286   12.8326 H   0  0  0  0  0  0  0  0  0  0  0  0
  -17.7898  -26.7300   12.0945 H   0  0  0  0  0  0  0  0  0  0  0  0
  -17.5916  -25.2718   11.0834 H   0  0  0  0  0  0  0  0  0  0  0  0
  -15.5831  -27.7122   11.1176 H   0  0  0  0  0  0  0  0  0  0  0  0
  -15.4730  -26.2569   10.0901 H   0  0  0  0  0  0  0  0  0  0  0  0
  -14.1230  -26.7281   11.1043 H   0  0  0  0  0  0  0  0  0  0  0  0
  1  2  1  0
  2  3  1  0
  3  4  2  0
  4  5  1  0
  5  6  1  0
  6  7  2  0
  6  8  2  0
  6  9  1  0
  9 10  1  0
 10 11  1  0
 11 12  1  0
 12 13  2  0
 13 14  1  0
 13 15  1  0
 15 16  1  0
 15 17  2  0
 17 18  1  0
 18 19  2  0
 19 20  1  0
 20 21  2  0
 20 22  1  0
 22 23  1  0
 23 24  1  0
 23 25  1  0
 23 26  1  0
  5 27  2  0
 27  2  1  0
 19 12  1  0
 26 18  1  0
  1 28  1  0
  1 29  1  0
  1 30  1  0
  3 31  1  0
  4 32  1  0
  9 33  1  0
 10 34  1  0
 10 35  1  0
 11 36  1  0
 11 37  1  0
 16 38  1  0
 17 39  1  0
 24 40  1  0
 24 41  1  0
 24 42  1  0
 25 43  1  0
 25 44  1  0
 25 45  1  0
M  END
>  <Energy>  (764) 
67.080031509236974

>  <compound_id>  (764) 
1029

>  <target_id>  (764) 
1

>  <reference_id>  (764) 
112

>  <inspiration_ids>  (764) 
[77, 112]

>  <energy_score>  (764) 
-348.4459577386321

>  <distance_score>  (764) 
1.4690841777021062

>  <path>  (764) 
/opt/xchem-fragalysis-2/maxwin/BulkDock/SCRATCH/505733/C1029-P112/C1029-P112.minimised.mol

>  <scratch_subdir>  (764) 
/opt/xchem-fragalysis-2/maxwin/BulkDock/SCRATCH/505733/C1029-P112

>  <fragmenstein_runtime>  (764) 
5.392920017242432

>  <fragmenstein_outcome>  (764) 
too moved

>  <fragmenstein_mode>  (764) 
expansion

>  <fragmenstein_error>  (764) 


$$$$
C162-P78
     RDKit          3D

 41 43  0  0  0  0  0  0  0  0999 V2000
   -0.0209   -6.1446   38.2895 C   0  0  0  0  0  0  0  0  0  0  0  0
   -0.0068   -5.8823   36.7858 C   0  0  0  0  0  0  0  0  0  0  0  0
   -0.6329   -4.5102   36.5035 C   0  0  0  0  0  0  0  0  0  0  0  0
    1.3740   -5.8645   36.4203 O   0  0  0  0  0  0  0  0  0  0  0  0
    1.7123   -6.0711   35.1387 C   0  0  0  0  0  0  0  0  0  0  0  0
    2.8598   -5.9101   34.7503 O   0  0  0  0  0  0  0  0  0  0  0  0
    0.6268   -6.5429   34.2455 C   0  0  0  0  0  0  0  0  0  0  0  0
   -0.5191   -7.0509   34.8386 C   0  0  0  0  0  0  0  0  0  0  0  0
   -1.4811   -7.6991   34.0691 C   0  0  0  0  0  0  0  0  0  0  0  0
   -1.3084   -7.8154   32.6955 C   0  0  0  0  0  0  0  0  0  0  0  0
   -2.2082   -8.4852   31.9128 O   0  0  0  0  0  0  0  0  0  0  0  0
   -0.2064   -7.2278   32.0798 C   0  0  0  0  0  0  0  0  0  0  0  0
   -0.0333   -7.4695   30.2107 Br  0  0  0  0  0  0  0  0  0  0  0  0
    0.7546   -6.5409   32.8412 C   0  0  0  0  0  0  0  0  0  0  0  0
    1.8471   -5.7327   32.1947 C   0  0  0  0  0  0  0  0  0  0  0  0
    1.6945   -4.2309   32.4461 C   0  0  0  0  0  0  0  0  0  0  0  0
    0.5441   -3.7512   31.6556 N   0  0  0  0  0  0  0  0  0  0  0  0
    0.9630   -2.8878   30.2669 S   0  0  0  0  0  0  0  0  0  0  0  0
    1.7866   -1.7726   30.6741 O   0  0  0  0  0  0  0  0  0  0  0  0
   -0.2611   -2.7068   29.5234 O   0  0  0  0  0  0  0  0  0  0  0  0
    1.9980   -3.8775   29.2712 C   0  0  0  0  0  0  0  0  0  0  0  0
    1.6454   -4.2388   28.0015 C   0  0  0  0  0  0  0  0  0  0  0  0
    2.8748   -5.1782   27.2712 S   0  0  0  0  0  0  0  0  0  0  0  0
    3.7808   -5.0589   28.7061 C   0  0  0  0  0  0  0  0  0  0  0  0
    3.2237   -4.3892   29.6905 N   0  0  0  0  0  0  0  0  0  0  0  0
   -0.7678   -6.9322   36.1738 O   0  0  0  0  0  0  0  0  0  0  0  0
    0.3848   -7.1394   38.5085 H   0  0  0  0  0  0  0  0  0  0  0  0
   -1.0368   -6.1136   38.6937 H   0  0  0  0  0  0  0  0  0  0  0  0
    0.5954   -5.4177   38.8299 H   0  0  0  0  0  0  0  0  0  0  0  0
   -1.6762   -4.4804   36.8307 H   0  0  0  0  0  0  0  0  0  0  0  0
   -0.0764   -3.7126   37.0074 H   0  0  0  0  0  0  0  0  0  0  0  0
   -0.6267   -4.2713   35.4348 H   0  0  0  0  0  0  0  0  0  0  0  0
   -2.3357   -8.1438   34.5666 H   0  0  0  0  0  0  0  0  0  0  0  0
   -2.8804   -8.9439   32.4513 H   0  0  0  0  0  0  0  0  0  0  0  0
    1.8965   -5.9201   31.1246 H   0  0  0  0  0  0  0  0  0  0  0  0
    2.8203   -6.0746   32.5488 H   0  0  0  0  0  0  0  0  0  0  0  0
    1.5027   -3.9859   33.4950 H   0  0  0  0  0  0  0  0  0  0  0  0
    2.6207   -3.7099   32.1849 H   0  0  0  0  0  0  0  0  0  0  0  0
   -0.0969   -3.1670   32.1962 H   0  0  0  0  0  0  0  0  0  0  0  0
    0.7201   -3.9587   27.5264 H   0  0  0  0  0  0  0  0  0  0  0  0
    4.7635   -5.5047   28.8008 H   0  0  0  0  0  0  0  0  0  0  0  0
  1  2  1  0
  2  3  1  0
  2  4  1  0
  4  5  1  0
  5  6  2  0
  5  7  1  0
  7  8  2  0
  8  9  1  0
  9 10  2  0
 10 11  1  0
 10 12  1  0
 12 13  1  0
 12 14  2  0
 14 15  1  0
 15 16  1  0
 16 17  1  0
 17 18  1  0
 18 19  2  0
 18 20  2  0
 18 21  1  0
 21 22  2  0
 22 23  1  0
 23 24  1  0
 24 25  2  0
  8 26  1  0
 26  2  1  0
 14  7  1  0
 25 21  1  0
  1 27  1  0
  1 28  1  0
  1 29  1  0
  3 30  1  0
  3 31  1  0
  3 32  1  0
  9 33  1  0
 11 34  1  0
 15 35  1  0
 15 36  1  0
 16 37  1  0
 16 38  1  0
 17 39  1  0
 22 40  1  0
 24 41  1  0
M  END
>  <Energy>  (765) 
37.246997810940691

>  <compound_id>  (765) 
162

>  <target_id>  (765) 
1

>  <reference_id>  (765) 
78

>  <inspiration_ids>  (765) 
[78, 40]

>  <energy_score>  (765) 
-91.4810808721831

>  <distance_score>  (765) 
1.8174095849639236

>  <path>  (765) 
/opt/xchem-fragalysis-2/maxwin/BulkDock/SCRATCH/505733/C162-P78/C162-P78.minimised.mol

>  <scratch_subdir>  (765) 
/opt/xchem-fragalysis-2/maxwin/BulkDock/SCRATCH/505733/C162-P78

>  <fragmenstein_runtime>  (765) 
2.9730491638183594

>  <fragmenstein_outcome>  (765) 
too moved

>  <fragmenstein_mode>  (765) 
expansion

>  <fragmenstein_error>  (765) 


$$$$
C162-P40
     RDKit          3D

 41 43  0  0  0  0  0  0  0  0999 V2000
    0.4112   -6.3571   38.1780 C   0  0  0  0  0  0  0  0  0  0  0  0
    0.1690   -5.9623   36.7231 C   0  0  0  0  0  0  0  0  0  0  0  0
   -0.6363   -4.6551   36.6839 C   0  0  0  0  0  0  0  0  0  0  0  0
    1.4668   -5.7369   36.1523 O   0  0  0  0  0  0  0  0  0  0  0  0
    1.5732   -5.7219   34.8129 C   0  0  0  0  0  0  0  0  0  0  0  0
    2.5753   -5.3585   34.2128 O   0  0  0  0  0  0  0  0  0  0  0  0
    0.4239   -6.2801   34.0897 C   0  0  0  0  0  0  0  0  0  0  0  0
   -0.5011   -7.0348   34.7653 C   0  0  0  0  0  0  0  0  0  0  0  0
   -1.4330   -7.7618   34.0365 C   0  0  0  0  0  0  0  0  0  0  0  0
   -1.3543   -7.8127   32.6401 C   0  0  0  0  0  0  0  0  0  0  0  0
   -2.1725   -8.6283   31.9108 O   0  0  0  0  0  0  0  0  0  0  0  0
   -0.4906   -6.9621   31.9678 C   0  0  0  0  0  0  0  0  0  0  0  0
   -0.3481   -7.0475   30.0736 Br  0  0  0  0  0  0  0  0  0  0  0  0
    0.2509   -6.0519   32.7238 C   0  0  0  0  0  0  0  0  0  0  0  0
    0.4013   -4.6197   32.2824 C   0  0  0  0  0  0  0  0  0  0  0  0
    1.5002   -4.3786   31.2862 C   0  0  0  0  0  0  0  0  0  0  0  0
    0.8898   -3.6931   30.1545 N   0  0  0  0  0  0  0  0  0  0  0  0
    1.9328   -3.1415   28.9699 S   0  0  0  0  0  0  0  0  0  0  0  0
    3.1049   -2.5759   29.5982 O   0  0  0  0  0  0  0  0  0  0  0  0
    1.1369   -2.4361   28.0023 O   0  0  0  0  0  0  0  0  0  0  0  0
    2.5352   -4.5610   28.1372 C   0  0  0  0  0  0  0  0  0  0  0  0
    3.4397   -5.4161   28.7334 C   0  0  0  0  0  0  0  0  0  0  0  0
    3.8705   -6.6587   27.6531 S   0  0  0  0  0  0  0  0  0  0  0  0
    2.8833   -5.9497   26.4617 C   0  0  0  0  0  0  0  0  0  0  0  0
    2.1577   -4.9226   26.8428 N   0  0  0  0  0  0  0  0  0  0  0  0
   -0.5674   -7.0455   36.1237 O   0  0  0  0  0  0  0  0  0  0  0  0
    0.9789   -7.2938   38.2288 H   0  0  0  0  0  0  0  0  0  0  0  0
   -0.5298   -6.5215   38.7121 H   0  0  0  0  0  0  0  0  0  0  0  0
    0.9949   -5.5972   38.7088 H   0  0  0  0  0  0  0  0  0  0  0  0
   -0.0808   -3.8377   37.1564 H   0  0  0  0  0  0  0  0  0  0  0  0
   -0.8550   -4.3373   35.6595 H   0  0  0  0  0  0  0  0  0  0  0  0
   -1.5969   -4.7718   37.1923 H   0  0  0  0  0  0  0  0  0  0  0  0
   -2.1846   -8.3251   34.5787 H   0  0  0  0  0  0  0  0  0  0  0  0
   -2.7855   -9.1002   32.5077 H   0  0  0  0  0  0  0  0  0  0  0  0
    0.5688   -3.9613   33.1460 H   0  0  0  0  0  0  0  0  0  0  0  0
   -0.5822   -4.2914   31.9129 H   0  0  0  0  0  0  0  0  0  0  0  0
    2.2725   -3.7491   31.7407 H   0  0  0  0  0  0  0  0  0  0  0  0
    1.9635   -5.3150   30.9746 H   0  0  0  0  0  0  0  0  0  0  0  0
    0.0494   -4.0876   29.7305 H   0  0  0  0  0  0  0  0  0  0  0  0
    3.9047   -5.3270   29.7049 H   0  0  0  0  0  0  0  0  0  0  0  0
    2.8447   -6.3655   25.4636 H   0  0  0  0  0  0  0  0  0  0  0  0
  1  2  1  0
  2  3  1  0
  2  4  1  0
  4  5  1  0
  5  6  2  0
  5  7  1  0
  7  8  2  0
  8  9  1  0
  9 10  2  0
 10 11  1  0
 10 12  1  0
 12 13  1  0
 12 14  2  0
 14 15  1  0
 15 16  1  0
 16 17  1  0
 17 18  1  0
 18 19  2  0
 18 20  2  0
 18 21  1  0
 21 22  2  0
 22 23  1  0
 23 24  1  0
 24 25  2  0
  8 26  1  0
 26  2  1  0
 14  7  1  0
 25 21  1  0
  1 27  1  0
  1 28  1  0
  1 29  1  0
  3 30  1  0
  3 31  1  0
  3 32  1  0
  9 33  1  0
 11 34  1  0
 15 35  1  0
 15 36  1  0
 16 37  1  0
 16 38  1  0
 17 39  1  0
 22 40  1  0
 24 41  1  0
M  END
>  <Energy>  (766) 
58.077084122624981

>  <compound_id>  (766) 
162

>  <target_id>  (766) 
1

>  <reference_id>  (766) 
40

>  <inspiration_ids>  (766) 
[78, 40]

>  <energy_score>  (766) 
-70.65099456050086

>  <distance_score>  (766) 
1.517950990661954

>  <path>  (766) 
/opt/xchem-fragalysis-2/maxwin/BulkDock/SCRATCH/505733/C162-P40/C162-P40.minimised.mol

>  <scratch_subdir>  (766) 
/opt/xchem-fragalysis-2/maxwin/BulkDock/SCRATCH/505733/C162-P40

>  <fragmenstein_runtime>  (766) 
2.378434658050537

>  <fragmenstein_outcome>  (766) 
too moved

>  <fragmenstein_mode>  (766) 
expansion

>  <fragmenstein_error>  (766) 


$$$$
C1030-P78
     RDKit          3D

 46 48  0  0  0  0  0  0  0  0999 V2000
   -0.0579   -6.5271   38.4990 C   0  0  0  0  0  0  0  0  0  0  0  0
    0.0157   -6.0908   37.0405 C   0  0  0  0  0  0  0  0  0  0  0  0
   -0.6790   -4.7263   36.8992 C   0  0  0  0  0  0  0  0  0  0  0  0
    1.4205   -5.9892   36.7879 O   0  0  0  0  0  0  0  0  0  0  0  0
    1.8299   -6.0924   35.5199 C   0  0  0  0  0  0  0  0  0  0  0  0
    3.0033   -6.1823   35.1924 O   0  0  0  0  0  0  0  0  0  0  0  0
    0.7719   -6.2008   34.5246 C   0  0  0  0  0  0  0  0  0  0  0  0
   -0.3302   -6.9512   34.9107 C   0  0  0  0  0  0  0  0  0  0  0  0
   -1.1400   -7.5211   33.9442 C   0  0  0  0  0  0  0  0  0  0  0  0
   -0.8247   -7.3152   32.6076 C   0  0  0  0  0  0  0  0  0  0  0  0
   -1.5475   -8.0095   31.6704 O   0  0  0  0  0  0  0  0  0  0  0  0
    0.1820   -6.3980   32.2425 C   0  0  0  0  0  0  0  0  0  0  0  0
    0.5378   -6.1757   30.3998 Br  0  0  0  0  0  0  0  0  0  0  0  0
    0.9320   -5.7247   33.2224 C   0  0  0  0  0  0  0  0  0  0  0  0
    1.5463   -4.3317   33.0427 C   0  0  0  0  0  0  0  0  0  0  0  0
    3.0466   -4.0774   33.2644 C   0  0  0  0  0  0  0  0  0  0  0  0
    3.3231   -2.8370   34.0040 N   0  0  0  0  0  0  0  0  0  0  0  0
    3.1013   -2.6373   35.6510 S   0  0  0  0  0  0  0  0  0  0  0  0
    1.8357   -3.2399   35.9963 O   0  0  0  0  0  0  0  0  0  0  0  0
    3.3482   -1.2327   35.8928 O   0  0  0  0  0  0  0  0  0  0  0  0
    4.4160   -3.5159   36.4004 C   0  0  0  0  0  0  0  0  0  0  0  0
    5.6914   -3.5402   35.8480 C   0  0  0  0  0  0  0  0  0  0  0  0
    6.6927   -4.2456   36.5144 C   0  0  0  0  0  0  0  0  0  0  0  0
    6.3898   -4.8927   37.7106 C   0  0  0  0  0  0  0  0  0  0  0  0
    7.3816   -5.6004   38.3942 N   0  0  0  0  0  0  0  0  0  0  0  0
    5.1599   -4.8651   38.2500 N   0  0  0  0  0  0  0  0  0  0  0  0
    4.1920   -4.1859   37.5863 C   0  0  0  0  0  0  0  0  0  0  0  0
   -0.6405   -7.0983   36.2358 O   0  0  0  0  0  0  0  0  0  0  0  0
    0.2937   -7.5591   38.6124 H   0  0  0  0  0  0  0  0  0  0  0  0
   -1.0780   -6.4830   38.8824 H   0  0  0  0  0  0  0  0  0  0  0  0
    0.5712   -5.8970   39.1384 H   0  0  0  0  0  0  0  0  0  0  0  0
   -0.2188   -3.9818   37.5573 H   0  0  0  0  0  0  0  0  0  0  0  0
   -0.6288   -4.3307   35.8807 H   0  0  0  0  0  0  0  0  0  0  0  0
   -1.7402   -4.8037   37.1486 H   0  0  0  0  0  0  0  0  0  0  0  0
   -1.9695   -8.1584   34.2269 H   0  0  0  0  0  0  0  0  0  0  0  0
   -1.0825   -7.8713   30.8237 H   0  0  0  0  0  0  0  0  0  0  0  0
    0.9484   -3.6550   33.6678 H   0  0  0  0  0  0  0  0  0  0  0  0
    1.3173   -3.9806   32.0286 H   0  0  0  0  0  0  0  0  0  0  0  0
    3.4930   -3.9305   32.2703 H   0  0  0  0  0  0  0  0  0  0  0  0
    3.6236   -4.9041   33.6606 H   0  0  0  0  0  0  0  0  0  0  0  0
    3.3662   -1.9550   33.4938 H   0  0  0  0  0  0  0  0  0  0  0  0
    5.9136   -3.0165   34.9238 H   0  0  0  0  0  0  0  0  0  0  0  0
    7.6963   -4.2805   36.1045 H   0  0  0  0  0  0  0  0  0  0  0  0
    8.1479   -4.9797   38.6322 H   0  0  0  0  0  0  0  0  0  0  0  0
    7.7399   -6.3451   37.8056 H   0  0  0  0  0  0  0  0  0  0  0  0
    3.2171   -4.2027   38.0653 H   0  0  0  0  0  0  0  0  0  0  0  0
  1  2  1  0
  2  3  1  0
  2  4  1  0
  4  5  1  0
  5  6  2  0
  5  7  1  0
  7  8  2  0
  8  9  1  0
  9 10  2  0
 10 11  1  0
 10 12  1  0
 12 13  1  0
 12 14  2  0
 14 15  1  0
 15 16  1  0
 16 17  1  0
 17 18  1  0
 18 19  2  0
 18 20  2  0
 18 21  1  0
 21 22  2  0
 22 23  1  0
 23 24  2  0
 24 25  1  0
 24 26  1  0
 26 27  2  0
  8 28  1  0
 28  2  1  0
 14  7  1  0
 27 21  1  0
  1 29  1  0
  1 30  1  0
  1 31  1  0
  3 32  1  0
  3 33  1  0
  3 34  1  0
  9 35  1  0
 11 36  1  0
 15 37  1  0
 15 38  1  0
 16 39  1  0
 16 40  1  0
 17 41  1  0
 22 42  1  0
 23 43  1  0
 25 44  1  0
 25 45  1  0
 27 46  1  0
M  END
>  <Energy>  (767) 
-35.989676451013445

>  <compound_id>  (767) 
1030

>  <target_id>  (767) 
1

>  <reference_id>  (767) 
78

>  <inspiration_ids>  (767) 
[78, 41]

>  <energy_score>  (767) 
-43.885732394922925

>  <distance_score>  (767) 
1.0829160472018315

>  <path>  (767) 
/opt/xchem-fragalysis-2/maxwin/BulkDock/SCRATCH/505733/C1030-P78/C1030-P78.minimised.mol

>  <scratch_subdir>  (767) 
/opt/xchem-fragalysis-2/maxwin/BulkDock/SCRATCH/505733/C1030-P78

>  <fragmenstein_runtime>  (767) 
7.868454694747925

>  <fragmenstein_outcome>  (767) 
too moved

>  <fragmenstein_mode>  (767) 
expansion

>  <fragmenstein_error>  (767) 


$$$$
C1030-P41
     RDKit          3D

 46 48  0  0  0  0  0  0  0  0999 V2000
   -0.0382   -6.5521   38.5067 C   0  0  0  0  0  0  0  0  0  0  0  0
    0.0316   -6.0982   37.0540 C   0  0  0  0  0  0  0  0  0  0  0  0
   -0.6565   -4.7287   36.9332 C   0  0  0  0  0  0  0  0  0  0  0  0
    1.4356   -5.9979   36.7959 O   0  0  0  0  0  0  0  0  0  0  0  0
    1.8373   -6.0856   35.5246 C   0  0  0  0  0  0  0  0  0  0  0  0
    3.0081   -6.1750   35.1879 O   0  0  0  0  0  0  0  0  0  0  0  0
    0.7738   -6.1798   34.5340 C   0  0  0  0  0  0  0  0  0  0  0  0
   -0.3278   -6.9325   34.9160 C   0  0  0  0  0  0  0  0  0  0  0  0
   -1.1385   -7.4953   33.9462 C   0  0  0  0  0  0  0  0  0  0  0  0
   -0.8185   -7.2867   32.6115 C   0  0  0  0  0  0  0  0  0  0  0  0
   -1.5271   -7.9899   31.6707 O   0  0  0  0  0  0  0  0  0  0  0  0
    0.1834   -6.3625   32.2527 C   0  0  0  0  0  0  0  0  0  0  0  0
    0.5376   -6.1193   30.4147 Br  0  0  0  0  0  0  0  0  0  0  0  0
    0.9310   -5.6935   33.2360 C   0  0  0  0  0  0  0  0  0  0  0  0
    1.5453   -4.3003   33.0643 C   0  0  0  0  0  0  0  0  0  0  0  0
    3.0474   -4.0517   33.2779 C   0  0  0  0  0  0  0  0  0  0  0  0
    3.3307   -2.8179   34.0254 N   0  0  0  0  0  0  0  0  0  0  0  0
    3.1115   -2.6304   35.6743 S   0  0  0  0  0  0  0  0  0  0  0  0
    1.8454   -3.2339   36.0164 O   0  0  0  0  0  0  0  0  0  0  0  0
    3.3606   -1.2280   35.9262 O   0  0  0  0  0  0  0  0  0  0  0  0
    4.4255   -3.5168   36.4154 C   0  0  0  0  0  0  0  0  0  0  0  0
    5.6985   -3.5456   35.8577 C   0  0  0  0  0  0  0  0  0  0  0  0
    6.6991   -4.2581   36.5176 C   0  0  0  0  0  0  0  0  0  0  0  0
    6.3980   -4.9074   37.7130 C   0  0  0  0  0  0  0  0  0  0  0  0
    7.3887   -5.6232   38.3896 N   0  0  0  0  0  0  0  0  0  0  0  0
    5.1704   -4.8757   38.2574 N   0  0  0  0  0  0  0  0  0  0  0  0
    4.2030   -4.1900   37.5999 C   0  0  0  0  0  0  0  0  0  0  0  0
   -0.6324   -7.0924   36.2402 O   0  0  0  0  0  0  0  0  0  0  0  0
    0.5995   -5.9360   39.1511 H   0  0  0  0  0  0  0  0  0  0  0  0
    0.3033   -7.5889   38.6056 H   0  0  0  0  0  0  0  0  0  0  0  0
   -1.0562   -6.5022   38.8941 H   0  0  0  0  0  0  0  0  0  0  0  0
   -0.1822   -3.9921   37.5902 H   0  0  0  0  0  0  0  0  0  0  0  0
   -0.6208   -4.3257   35.9171 H   0  0  0  0  0  0  0  0  0  0  0  0
   -1.7132   -4.8026   37.1998 H   0  0  0  0  0  0  0  0  0  0  0  0
   -1.9709   -8.1310   34.2244 H   0  0  0  0  0  0  0  0  0  0  0  0
   -1.0286   -7.8927   30.8375 H   0  0  0  0  0  0  0  0  0  0  0  0
    0.9525   -3.6284   33.6992 H   0  0  0  0  0  0  0  0  0  0  0  0
    1.3096   -3.9386   32.0556 H   0  0  0  0  0  0  0  0  0  0  0  0
    3.4881   -3.8987   32.2822 H   0  0  0  0  0  0  0  0  0  0  0  0
    3.6244   -4.8825   33.6652 H   0  0  0  0  0  0  0  0  0  0  0  0
    3.3760   -1.9323   33.5219 H   0  0  0  0  0  0  0  0  0  0  0  0
    5.9196   -3.0202   34.9342 H   0  0  0  0  0  0  0  0  0  0  0  0
    7.7006   -4.2971   36.1033 H   0  0  0  0  0  0  0  0  0  0  0  0
    8.1612   -5.0089   38.6240 H   0  0  0  0  0  0  0  0  0  0  0  0
    7.7375   -6.3700   37.7980 H   0  0  0  0  0  0  0  0  0  0  0  0
    3.2299   -4.2042   38.0826 H   0  0  0  0  0  0  0  0  0  0  0  0
  1  2  1  0
  2  3  1  0
  2  4  1  0
  4  5  1  0
  5  6  2  0
  5  7  1  0
  7  8  2  0
  8  9  1  0
  9 10  2  0
 10 11  1  0
 10 12  1  0
 12 13  1  0
 12 14  2  0
 14 15  1  0
 15 16  1  0
 16 17  1  0
 17 18  1  0
 18 19  2  0
 18 20  2  0
 18 21  1  0
 21 22  2  0
 22 23  1  0
 23 24  2  0
 24 25  1  0
 24 26  1  0
 26 27  2  0
  8 28  1  0
 28  2  1  0
 14  7  1  0
 27 21  1  0
  1 29  1  0
  1 30  1  0
  1 31  1  0
  3 32  1  0
  3 33  1  0
  3 34  1  0
  9 35  1  0
 11 36  1  0
 15 37  1  0
 15 38  1  0
 16 39  1  0
 16 40  1  0
 17 41  1  0
 22 42  1  0
 23 43  1  0
 25 44  1  0
 25 45  1  0
 27 46  1  0
M  END
>  <Energy>  (768) 
-35.834849279099039

>  <compound_id>  (768) 
1030

>  <target_id>  (768) 
1

>  <reference_id>  (768) 
41

>  <inspiration_ids>  (768) 
[78, 41]

>  <energy_score>  (768) 
-43.73090522300579

>  <distance_score>  (768) 
1.0909077496653392

>  <path>  (768) 
/opt/xchem-fragalysis-2/maxwin/BulkDock/SCRATCH/505733/C1030-P41/C1030-P41.minimised.mol

>  <scratch_subdir>  (768) 
/opt/xchem-fragalysis-2/maxwin/BulkDock/SCRATCH/505733/C1030-P41

>  <fragmenstein_runtime>  (768) 
7.6922385692596436

>  <fragmenstein_outcome>  (768) 
too moved

>  <fragmenstein_mode>  (768) 
expansion

>  <fragmenstein_error>  (768) 


$$$$
C1030-P78
     RDKit          3D

 46 48  0  0  0  0  0  0  0  0999 V2000
    0.1067   -6.4128   38.2161 C   0  0  0  0  0  0  0  0  0  0  0  0
    0.0283   -6.0557   36.7350 C   0  0  0  0  0  0  0  0  0  0  0  0
   -0.8621   -4.8260   36.5293 C   0  0  0  0  0  0  0  0  0  0  0  0
    1.3775   -5.7967   36.3331 O   0  0  0  0  0  0  0  0  0  0  0  0
    1.7238   -5.9585   35.0446 C   0  0  0  0  0  0  0  0  0  0  0  0
    2.8632   -5.7481   34.6500 O   0  0  0  0  0  0  0  0  0  0  0  0
    0.6540   -6.4150   34.1385 C   0  0  0  0  0  0  0  0  0  0  0  0
   -0.4097   -7.0947   34.7257 C   0  0  0  0  0  0  0  0  0  0  0  0
   -1.3728   -7.7237   33.9535 C   0  0  0  0  0  0  0  0  0  0  0  0
   -1.2230   -7.7481   32.5811 C   0  0  0  0  0  0  0  0  0  0  0  0
   -2.0980   -8.4547   31.8001 O   0  0  0  0  0  0  0  0  0  0  0  0
   -0.1672   -7.0477   31.9846 C   0  0  0  0  0  0  0  0  0  0  0  0
    0.1048   -7.3420   30.1481 Br  0  0  0  0  0  0  0  0  0  0  0  0
    0.7263   -6.2642   32.7424 C   0  0  0  0  0  0  0  0  0  0  0  0
    1.6992   -5.2836   32.0966 C   0  0  0  0  0  0  0  0  0  0  0  0
    1.6159   -3.8388   32.6596 C   0  0  0  0  0  0  0  0  0  0  0  0
    2.8981   -3.4662   33.2910 N   0  0  0  0  0  0  0  0  0  0  0  0
    3.0023   -1.9704   34.0720 S   0  0  0  0  0  0  0  0  0  0  0  0
    2.1559   -1.0383   33.3611 O   0  0  0  0  0  0  0  0  0  0  0  0
    4.4064   -1.7104   34.2967 O   0  0  0  0  0  0  0  0  0  0  0  0
    2.2843   -2.2672   35.6562 C   0  0  0  0  0  0  0  0  0  0  0  0
    2.9847   -2.9624   36.6389 C   0  0  0  0  0  0  0  0  0  0  0  0
    2.4123   -3.1095   37.9031 C   0  0  0  0  0  0  0  0  0  0  0  0
    1.1604   -2.5634   38.1423 C   0  0  0  0  0  0  0  0  0  0  0  0
    0.5483   -2.7005   39.3818 N   0  0  0  0  0  0  0  0  0  0  0  0
    0.4892   -1.8607   37.2089 N   0  0  0  0  0  0  0  0  0  0  0  0
    1.0668   -1.7096   35.9870 C   0  0  0  0  0  0  0  0  0  0  0  0
   -0.5637   -7.1788   36.0768 O   0  0  0  0  0  0  0  0  0  0  0  0
    0.6776   -5.6720   38.7822 H   0  0  0  0  0  0  0  0  0  0  0  0
    0.6137   -7.3758   38.3507 H   0  0  0  0  0  0  0  0  0  0  0  0
   -0.8864   -6.5057   38.6619 H   0  0  0  0  0  0  0  0  0  0  0  0
   -1.9088   -5.1192   36.4338 H   0  0  0  0  0  0  0  0  0  0  0  0
   -0.5928   -4.2679   35.6276 H   0  0  0  0  0  0  0  0  0  0  0  0
   -0.8035   -4.1405   37.3728 H   0  0  0  0  0  0  0  0  0  0  0  0
   -2.1876   -8.2425   34.4450 H   0  0  0  0  0  0  0  0  0  0  0  0
   -2.7559   -8.9279   32.3462 H   0  0  0  0  0  0  0  0  0  0  0  0
    2.7124   -5.6949   32.1545 H   0  0  0  0  0  0  0  0  0  0  0  0
    1.4842   -5.1889   31.0282 H   0  0  0  0  0  0  0  0  0  0  0  0
    1.4365   -3.1481   31.8274 H   0  0  0  0  0  0  0  0  0  0  0  0
    0.7941   -3.7272   33.3737 H   0  0  0  0  0  0  0  0  0  0  0  0
    3.3127   -4.2163   33.8649 H   0  0  0  0  0  0  0  0  0  0  0  0
    3.9708   -3.3744   36.4372 H   0  0  0  0  0  0  0  0  0  0  0  0
    2.9441   -3.6394   38.6862 H   0  0  0  0  0  0  0  0  0  0  0  0
   -0.3692   -2.2650   39.3321 H   0  0  0  0  0  0  0  0  0  0  0  0
    0.5156   -3.6510   39.7224 H   0  0  0  0  0  0  0  0  0  0  0  0
    0.4943   -1.1093   35.2845 H   0  0  0  0  0  0  0  0  0  0  0  0
  1  2  1  0
  2  3  1  0
  2  4  1  0
  4  5  1  0
  5  6  2  0
  5  7  1  0
  7  8  2  0
  8  9  1  0
  9 10  2  0
 10 11  1  0
 10 12  1  0
 12 13  1  0
 12 14  2  0
 14 15  1  0
 15 16  1  0
 16 17  1  0
 17 18  1  0
 18 19  2  0
 18 20  2  0
 18 21  1  0
 21 22  2  0
 22 23  1  0
 23 24  2  0
 24 25  1  0
 24 26  1  0
 26 27  2  0
  8 28  1  0
 28  2  1  0
 14  7  1  0
 27 21  1  0
  1 29  1  0
  1 30  1  0
  1 31  1  0
  3 32  1  0
  3 33  1  0
  3 34  1  0
  9 35  1  0
 11 36  1  0
 15 37  1  0
 15 38  1  0
 16 39  1  0
 16 40  1  0
 17 41  1  0
 22 42  1  0
 23 43  1  0
 25 44  1  0
 25 45  1  0
 27 46  1  0
M  END
>  <Energy>  (769) 
-60.838590232448198

>  <compound_id>  (769) 
1030

>  <target_id>  (769) 
1

>  <reference_id>  (769) 
78

>  <inspiration_ids>  (769) 
[78, 56]

>  <energy_score>  (769) 
-352.6308468240212

>  <distance_score>  (769) 
0.9029616062456489

>  <path>  (769) 
/opt/xchem-fragalysis-2/maxwin/BulkDock/SCRATCH/505733/C1030-P78/C1030-P78.minimised.mol

>  <scratch_subdir>  (769) 
/opt/xchem-fragalysis-2/maxwin/BulkDock/SCRATCH/505733/C1030-P78

>  <fragmenstein_runtime>  (769) 
3.60245418548584

>  <fragmenstein_outcome>  (769) 
acceptable

>  <fragmenstein_mode>  (769) 
expansion

>  <fragmenstein_error>  (769) 


$$$$
C1030-P56
     RDKit          3D

 46 48  0  0  0  0  0  0  0  0999 V2000
   -0.4581   -5.5455   38.0048 C   0  0  0  0  0  0  0  0  0  0  0  0
   -0.2717   -5.5720   36.4812 C   0  0  0  0  0  0  0  0  0  0  0  0
   -0.9683   -4.3171   35.9651 C   0  0  0  0  0  0  0  0  0  0  0  0
    1.1191   -5.5166   36.1726 O   0  0  0  0  0  0  0  0  0  0  0  0
    1.4797   -5.6776   34.8792 C   0  0  0  0  0  0  0  0  0  0  0  0
    2.6044   -5.3945   34.4961 O   0  0  0  0  0  0  0  0  0  0  0  0
    0.4227   -6.2300   33.9964 C   0  0  0  0  0  0  0  0  0  0  0  0
   -0.5971   -6.9355   34.6449 C   0  0  0  0  0  0  0  0  0  0  0  0
   -1.4548   -7.7611   33.9372 C   0  0  0  0  0  0  0  0  0  0  0  0
   -1.3637   -7.7792   32.5529 C   0  0  0  0  0  0  0  0  0  0  0  0
   -2.2005   -8.6082   31.8518 O   0  0  0  0  0  0  0  0  0  0  0  0
   -0.4658   -6.9294   31.8729 C   0  0  0  0  0  0  0  0  0  0  0  0
   -0.5353   -6.9581   29.9688 Br  0  0  0  0  0  0  0  0  0  0  0  0
    0.4345   -6.1028   32.5889 C   0  0  0  0  0  0  0  0  0  0  0  0
    1.3801   -5.1138   31.9086 C   0  0  0  0  0  0  0  0  0  0  0  0
    1.2988   -3.6520   32.4392 C   0  0  0  0  0  0  0  0  0  0  0  0
    2.5894   -3.2428   33.0416 N   0  0  0  0  0  0  0  0  0  0  0  0
    2.7037   -1.7290   33.7859 S   0  0  0  0  0  0  0  0  0  0  0  0
    1.7947   -0.8359   33.0987 O   0  0  0  0  0  0  0  0  0  0  0  0
    4.1110   -1.4204   33.9121 O   0  0  0  0  0  0  0  0  0  0  0  0
    2.0958   -1.9576   35.4293 C   0  0  0  0  0  0  0  0  0  0  0  0
    2.7728   -2.7479   36.3516 C   0  0  0  0  0  0  0  0  0  0  0  0
    2.2742   -2.8466   37.6531 C   0  0  0  0  0  0  0  0  0  0  0  0
    1.1161   -2.1681   37.9932 C   0  0  0  0  0  0  0  0  0  0  0  0
    0.5568   -2.3095   39.2596 N   0  0  0  0  0  0  0  0  0  0  0  0
    0.4905   -1.3416   37.1318 N   0  0  0  0  0  0  0  0  0  0  0  0
    0.9965   -1.2438   35.8683 C   0  0  0  0  0  0  0  0  0  0  0  0
   -0.8523   -6.7863   35.9833 O   0  0  0  0  0  0  0  0  0  0  0  0
   -1.2492   -4.8497   38.3112 H   0  0  0  0  0  0  0  0  0  0  0  0
    0.4471   -5.2300   38.5258 H   0  0  0  0  0  0  0  0  0  0  0  0
   -0.7910   -6.5067   38.3956 H   0  0  0  0  0  0  0  0  0  0  0  0
   -2.0212   -4.3502   36.2244 H   0  0  0  0  0  0  0  0  0  0  0  0
   -0.8820   -4.1709   34.8883 H   0  0  0  0  0  0  0  0  0  0  0  0
   -0.5600   -3.4255   36.4212 H   0  0  0  0  0  0  0  0  0  0  0  0
   -2.1974   -8.3500   34.4662 H   0  0  0  0  0  0  0  0  0  0  0  0
   -2.5692   -9.2795   32.4539 H   0  0  0  0  0  0  0  0  0  0  0  0
    2.4014   -5.5099   31.9608 H   0  0  0  0  0  0  0  0  0  0  0  0
    1.1578   -5.0518   30.8401 H   0  0  0  0  0  0  0  0  0  0  0  0
    1.1000   -2.9854   31.5919 H   0  0  0  0  0  0  0  0  0  0  0  0
    0.4890   -3.5260   33.1621 H   0  0  0  0  0  0  0  0  0  0  0  0
    3.0049   -3.9837   33.6324 H   0  0  0  0  0  0  0  0  0  0  0  0
    3.6740   -3.2930   36.0779 H   0  0  0  0  0  0  0  0  0  0  0  0
    2.7798   -3.4665   38.3833 H   0  0  0  0  0  0  0  0  0  0  0  0
   -0.3115   -1.7823   39.2776 H   0  0  0  0  0  0  0  0  0  0  0  0
    0.4449   -3.2742   39.5380 H   0  0  0  0  0  0  0  0  0  0  0  0
    0.4593   -0.5568   35.2192 H   0  0  0  0  0  0  0  0  0  0  0  0
  1  2  1  0
  2  3  1  0
  2  4  1  0
  4  5  1  0
  5  6  2  0
  5  7  1  0
  7  8  2  0
  8  9  1  0
  9 10  2  0
 10 11  1  0
 10 12  1  0
 12 13  1  0
 12 14  2  0
 14 15  1  0
 15 16  1  0
 16 17  1  0
 17 18  1  0
 18 19  2  0
 18 20  2  0
 18 21  1  0
 21 22  2  0
 22 23  1  0
 23 24  2  0
 24 25  1  0
 24 26  1  0
 26 27  2  0
  8 28  1  0
 28  2  1  0
 14  7  1  0
 27 21  1  0
  1 29  1  0
  1 30  1  0
  1 31  1  0
  3 32  1  0
  3 33  1  0
  3 34  1  0
  9 35  1  0
 11 36  1  0
 15 37  1  0
 15 38  1  0
 16 39  1  0
 16 40  1  0
 17 41  1  0
 22 42  1  0
 23 43  1  0
 25 44  1  0
 25 45  1  0
 27 46  1  0
M  END
>  <Energy>  (770) 
-53.434164713707744

>  <compound_id>  (770) 
1030

>  <target_id>  (770) 
1

>  <reference_id>  (770) 
56

>  <inspiration_ids>  (770) 
[78, 56]

>  <energy_score>  (770) 
-345.2264213052812

>  <distance_score>  (770) 
1.0765551850888588

>  <path>  (770) 
/opt/xchem-fragalysis-2/maxwin/BulkDock/SCRATCH/505733/C1030-P56/C1030-P56.minimised.mol

>  <scratch_subdir>  (770) 
/opt/xchem-fragalysis-2/maxwin/BulkDock/SCRATCH/505733/C1030-P56

>  <fragmenstein_runtime>  (770) 
3.798013687133789

>  <fragmenstein_outcome>  (770) 
too moved

>  <fragmenstein_mode>  (770) 
expansion

>  <fragmenstein_error>  (770) 


$$$$
C266-P78
     RDKit          3D

 54 56  0  0  0  0  0  0  0  0999 V2000
   -2.1482  -13.6370   26.7267 C   0  0  0  0  0  0  0  0  0  0  0  0
   -2.8205  -12.2914   26.8476 C   0  0  0  0  0  0  0  0  0  0  0  0
   -2.1061  -11.2637   27.6458 O   0  0  0  0  0  0  0  0  0  0  0  0
   -2.1448  -11.3107   29.0270 C   0  0  0  0  0  0  0  0  0  0  0  0
   -2.7622  -12.2192   29.5546 O   0  0  0  0  0  0  0  0  0  0  0  0
   -1.2111  -10.1543   29.9389 C   0  0  0  0  0  0  0  0  0  0  0  0
   -0.7109   -8.8857   29.8067 C   0  0  0  0  0  0  0  0  0  0  0  0
   -0.7936   -7.7930   30.9701 C   0  0  0  0  0  0  0  0  0  0  0  0
   -1.3466   -8.3719   32.2744 C   0  0  0  0  0  0  0  0  0  0  0  0
   -1.4040   -7.5203   33.5190 C   0  0  0  0  0  0  0  0  0  0  0  0
   -0.9945   -6.1072   33.2313 C   0  0  0  0  0  0  0  0  0  0  0  0
    0.4246   -6.0914   32.6472 C   0  0  0  0  0  0  0  0  0  0  0  0
    0.8969   -4.6110   32.5878 C   0  0  0  0  0  0  0  0  0  0  0  0
    1.1243   -4.0565   33.9884 C   0  0  0  0  0  0  0  0  0  0  0  0
    1.2825   -4.8109   35.0890 C   0  0  0  0  0  0  0  0  0  0  0  0
    1.3654   -6.3007   35.0523 C   0  0  0  0  0  0  0  0  0  0  0  0
    1.4091   -6.8078   33.6118 C   0  0  0  0  0  0  0  0  0  0  0  0
    2.7396   -6.6626   33.1306 O   0  0  0  0  0  0  0  0  0  0  0  0
    1.3274   -4.3104   36.3599 O   0  0  0  0  0  0  0  0  0  0  0  0
    0.7095   -3.0294   36.4661 C   0  0  0  0  0  0  0  0  0  0  0  0
    1.2228   -2.4352   37.7750 C   0  0  0  0  0  0  0  0  0  0  0  0
   -0.8163   -3.1693   36.5442 C   0  0  0  0  0  0  0  0  0  0  0  0
    1.0711   -2.1257   35.4140 O   0  0  0  0  0  0  0  0  0  0  0  0
    1.1907   -2.6026   34.1569 C   0  0  0  0  0  0  0  0  0  0  0  0
    1.3806   -1.8765   33.1908 O   0  0  0  0  0  0  0  0  0  0  0  0
    0.3814   -6.7904   31.2194 C   0  0  0  0  0  0  0  0  0  0  0  0
   -1.1794  -13.3613   26.3700 H   0  0  0  0  0  0  0  0  0  0  0  0
   -2.0045  -14.2201   27.6457 H   0  0  0  0  0  0  0  0  0  0  0  0
   -2.5034  -14.3191   25.9927 H   0  0  0  0  0  0  0  0  0  0  0  0
   -3.8173  -12.2484   27.2320 H   0  0  0  0  0  0  0  0  0  0  0  0
   -2.8790  -12.0031   25.8090 H   0  0  0  0  0  0  0  0  0  0  0  0
   -1.2368  -10.4913   30.9522 H   0  0  0  0  0  0  0  0  0  0  0  0
   -0.6741   -8.4801   28.8155 H   0  0  0  0  0  0  0  0  0  0  0  0
   -1.5979   -7.1417   30.6019 H   0  0  0  0  0  0  0  0  0  0  0  0
   -0.6928   -9.1827   32.5282 H   0  0  0  0  0  0  0  0  0  0  0  0
   -2.3451   -8.7684   32.0995 H   0  0  0  0  0  0  0  0  0  0  0  0
   -2.3701   -7.5715   34.0056 H   0  0  0  0  0  0  0  0  0  0  0  0
   -0.7696   -7.9677   34.2898 H   0  0  0  0  0  0  0  0  0  0  0  0
   -1.6571   -5.6360   32.5086 H   0  0  0  0  0  0  0  0  0  0  0  0
   -1.0986   -5.5254   34.1504 H   0  0  0  0  0  0  0  0  0  0  0  0
    1.8225   -4.5178   32.0066 H   0  0  0  0  0  0  0  0  0  0  0  0
    0.1368   -4.0102   32.0719 H   0  0  0  0  0  0  0  0  0  0  0  0
    2.2682   -6.6233   35.5861 H   0  0  0  0  0  0  0  0  0  0  0  0
    0.5066   -6.7133   35.5923 H   0  0  0  0  0  0  0  0  0  0  0  0
    1.2024   -7.8730   33.6375 H   0  0  0  0  0  0  0  0  0  0  0  0
    3.1209   -5.8310   33.4696 H   0  0  0  0  0  0  0  0  0  0  0  0
    0.8091   -1.4363   37.9504 H   0  0  0  0  0  0  0  0  0  0  0  0
    0.9854   -3.0778   38.6298 H   0  0  0  0  0  0  0  0  0  0  0  0
    2.3138   -2.3294   37.7435 H   0  0  0  0  0  0  0  0  0  0  0  0
   -1.2912   -2.1989   36.7251 H   0  0  0  0  0  0  0  0  0  0  0  0
   -1.1116   -3.8683   37.3341 H   0  0  0  0  0  0  0  0  0  0  0  0
   -1.2341   -3.5487   35.6065 H   0  0  0  0  0  0  0  0  0  0  0  0
    1.3213   -7.2878   31.0254 H   0  0  0  0  0  0  0  0  0  0  0  0
    0.3077   -6.0081   30.4518 H   0  0  0  0  0  0  0  0  0  0  0  0
  1  2  1  0
  2  3  1  0
  3  4  1  0
  4  5  2  0
  4  6  1  0
  6  7  2  3
  7  8  1  0
  8  9  1  0
  9 10  1  0
 10 11  1  0
 11 12  1  0
 12 13  1  0
 13 14  1  0
 14 15  2  0
 15 16  1  0
 16 17  1  0
 17 18  1  0
 15 19  1  0
 19 20  1  0
 20 21  1  0
 20 22  1  0
 20 23  1  0
 23 24  1  0
 24 25  2  0
 12 26  1  0
 26  8  1  0
 17 12  1  0
 24 14  1  0
  1 27  1  0
  1 28  1  0
  1 29  1  0
  2 30  1  0
  2 31  1  0
  6 32  1  0
  7 33  1  0
  8 34  1  0
  9 35  1  0
  9 36  1  0
 10 37  1  0
 10 38  1  0
 11 39  1  0
 11 40  1  0
 13 41  1  0
 13 42  1  0
 16 43  1  0
 16 44  1  0
 17 45  1  0
 18 46  1  0
 21 47  1  0
 21 48  1  0
 21 49  1  0
 22 50  1  0
 22 51  1  0
 22 52  1  0
 26 53  1  0
 26 54  1  0
M  END
>  <Energy>  (771) 
94.444020636403735

>  <compound_id>  (771) 
266

>  <target_id>  (771) 
1

>  <reference_id>  (771) 
78

>  <inspiration_ids>  (771) 
[78, 72]

>  <energy_score>  (771) 
-2.7073178805886187

>  <distance_score>  (771) 
2.7766117352050586

>  <path>  (771) 
/opt/xchem-fragalysis-2/maxwin/BulkDock/SCRATCH/505733/C266-P78/C266-P78.minimised.mol

>  <scratch_subdir>  (771) 
/opt/xchem-fragalysis-2/maxwin/BulkDock/SCRATCH/505733/C266-P78

>  <fragmenstein_runtime>  (771) 
18.307913064956665

>  <fragmenstein_outcome>  (771) 
too moved

>  <fragmenstein_mode>  (771) 
expansion

>  <fragmenstein_error>  (771) 


$$$$
C266-P72
     RDKit          3D

 54 56  0  0  0  0  0  0  0  0999 V2000
   -2.9277  -12.1999   27.3748 C   0  0  0  0  0  0  0  0  0  0  0  0
   -2.9259  -12.0069   28.9210 C   0  0  0  0  0  0  0  0  0  0  0  0
   -1.8842  -10.9936   29.2581 O   0  0  0  0  0  0  0  0  0  0  0  0
   -1.2491  -10.1435   30.1052 C   0  0  0  0  0  0  0  0  0  0  0  0
   -1.4181  -10.1160   31.2916 O   0  0  0  0  0  0  0  0  0  0  0  0
   -0.3726   -9.1197   29.4945 C   0  0  0  0  0  0  0  0  0  0  0  0
   -0.1316   -7.9503   30.1143 C   0  0  0  0  0  0  0  0  0  0  0  0
   -0.8993   -7.2852   31.2401 C   0  0  0  0  0  0  0  0  0  0  0  0
   -1.0163   -8.0679   32.5556 C   0  0  0  0  0  0  0  0  0  0  0  0
   -0.8857   -7.4447   33.9053 C   0  0  0  0  0  0  0  0  0  0  0  0
   -1.0603   -5.9897   33.7347 C   0  0  0  0  0  0  0  0  0  0  0  0
   -0.0740   -5.3653   32.7329 C   0  0  0  0  0  0  0  0  0  0  0  0
    1.3970   -5.7182   33.0161 C   0  0  0  0  0  0  0  0  0  0  0  0
    1.6511   -5.3645   34.4448 C   0  0  0  0  0  0  0  0  0  0  0  0
    1.0246   -4.3321   35.0155 C   0  0  0  0  0  0  0  0  0  0  0  0
    0.2268   -3.3330   34.2261 C   0  0  0  0  0  0  0  0  0  0  0  0
   -0.2151   -3.8335   32.8417 C   0  0  0  0  0  0  0  0  0  0  0  0
   -1.5727   -3.4384   32.5861 O   0  0  0  0  0  0  0  0  0  0  0  0
    0.8714   -4.2013   36.3591 O   0  0  0  0  0  0  0  0  0  0  0  0
    1.2226   -5.3453   37.1257 C   0  0  0  0  0  0  0  0  0  0  0  0
    0.0114   -6.2348   37.4014 C   0  0  0  0  0  0  0  0  0  0  0  0
    1.6701   -4.7519   38.4427 C   0  0  0  0  0  0  0  0  0  0  0  0
    2.3022   -6.1338   36.6074 O   0  0  0  0  0  0  0  0  0  0  0  0
    2.4230   -6.2743   35.2745 C   0  0  0  0  0  0  0  0  0  0  0  0
    3.1471   -7.1096   34.7490 O   0  0  0  0  0  0  0  0  0  0  0  0
   -0.4240   -5.8320   31.3338 C   0  0  0  0  0  0  0  0  0  0  0  0
   -2.5336  -13.1316   26.9311 H   0  0  0  0  0  0  0  0  0  0  0  0
   -2.3927  -11.4224   26.8957 H   0  0  0  0  0  0  0  0  0  0  0  0
   -3.9509  -12.1853   27.1003 H   0  0  0  0  0  0  0  0  0  0  0  0
   -2.8020  -12.9752   29.3679 H   0  0  0  0  0  0  0  0  0  0  0  0
   -3.8979  -11.7906   29.3235 H   0  0  0  0  0  0  0  0  0  0  0  0
    0.1674   -9.4021   28.6165 H   0  0  0  0  0  0  0  0  0  0  0  0
    0.6989   -7.3701   29.7287 H   0  0  0  0  0  0  0  0  0  0  0  0
   -1.9212   -7.2262   30.8570 H   0  0  0  0  0  0  0  0  0  0  0  0
   -0.2634   -8.8289   32.5601 H   0  0  0  0  0  0  0  0  0  0  0  0
   -2.0128   -8.5221   32.5718 H   0  0  0  0  0  0  0  0  0  0  0  0
   -1.6471   -7.8422   34.5872 H   0  0  0  0  0  0  0  0  0  0  0  0
    0.0756   -7.6988   34.3604 H   0  0  0  0  0  0  0  0  0  0  0  0
   -1.0921   -5.5174   34.7172 H   0  0  0  0  0  0  0  0  0  0  0  0
   -2.0404   -5.8492   33.3314 H   0  0  0  0  0  0  0  0  0  0  0  0
    2.0855   -5.1642   32.3659 H   0  0  0  0  0  0  0  0  0  0  0  0
    1.5746   -6.7791   32.8298 H   0  0  0  0  0  0  0  0  0  0  0  0
   -0.6510   -3.0330   34.8134 H   0  0  0  0  0  0  0  0  0  0  0  0
    0.8222   -2.4191   34.1070 H   0  0  0  0  0  0  0  0  0  0  0  0
    0.3982   -3.3479   32.0722 H   0  0  0  0  0  0  0  0  0  0  0  0
   -2.1021   -3.5696   33.4035 H   0  0  0  0  0  0  0  0  0  0  0  0
   -0.3089   -6.7574   36.4996 H   0  0  0  0  0  0  0  0  0  0  0  0
    0.2488   -7.0136   38.1346 H   0  0  0  0  0  0  0  0  0  0  0  0
   -0.8427   -5.6502   37.7589 H   0  0  0  0  0  0  0  0  0  0  0  0
    2.5400   -4.0998   38.2953 H   0  0  0  0  0  0  0  0  0  0  0  0
    1.9788   -5.5285   39.1514 H   0  0  0  0  0  0  0  0  0  0  0  0
    0.8877   -4.1399   38.9060 H   0  0  0  0  0  0  0  0  0  0  0  0
    0.4126   -5.6000   30.6613 H   0  0  0  0  0  0  0  0  0  0  0  0
   -1.2158   -5.1866   30.9616 H   0  0  0  0  0  0  0  0  0  0  0  0
  1  2  1  0
  2  3  1  0
  3  4  1  0
  4  5  2  0
  4  6  1  0
  6  7  2  3
  7  8  1  0
  8  9  1  0
  9 10  1  0
 10 11  1  0
 11 12  1  0
 12 13  1  0
 13 14  1  0
 14 15  2  0
 15 16  1  0
 16 17  1  0
 17 18  1  0
 15 19  1  0
 19 20  1  0
 20 21  1  0
 20 22  1  0
 20 23  1  0
 23 24  1  0
 24 25  2  0
 12 26  1  0
 26  8  1  0
 17 12  1  0
 24 14  1  0
  1 27  1  0
  1 28  1  0
  1 29  1  0
  2 30  1  0
  2 31  1  0
  6 32  1  0
  7 33  1  0
  8 34  1  0
  9 35  1  0
  9 36  1  0
 10 37  1  0
 10 38  1  0
 11 39  1  0
 11 40  1  0
 13 41  1  0
 13 42  1  0
 16 43  1  0
 16 44  1  0
 17 45  1  0
 18 46  1  0
 21 47  1  0
 21 48  1  0
 21 49  1  0
 22 50  1  0
 22 51  1  0
 22 52  1  0
 26 53  1  0
 26 54  1  0
M  END
>  <Energy>  (772) 
112.91404691874831

>  <compound_id>  (772) 
266

>  <target_id>  (772) 
1

>  <reference_id>  (772) 
72

>  <inspiration_ids>  (772) 
[78, 72]

>  <energy_score>  (772) 
28.014774197825034

>  <distance_score>  (772) 
2.4982000069016825

>  <path>  (772) 
/opt/xchem-fragalysis-2/maxwin/BulkDock/SCRATCH/505733/C266-P72/C266-P72.minimised.mol

>  <scratch_subdir>  (772) 
/opt/xchem-fragalysis-2/maxwin/BulkDock/SCRATCH/505733/C266-P72

>  <fragmenstein_runtime>  (772) 
10.499418020248413

>  <fragmenstein_outcome>  (772) 
too moved

>  <fragmenstein_mode>  (772) 
expansion

>  <fragmenstein_error>  (772) 


$$$$
C266-P78
     RDKit          3D

 54 56  0  0  0  0  0  0  0  0999 V2000
    4.0849   -6.1918   27.9703 C   0  0  0  0  0  0  0  0  0  0  0  0
    3.4705   -4.8241   28.1838 C   0  0  0  0  0  0  0  0  0  0  0  0
    2.3143   -4.9694   29.0173 O   0  0  0  0  0  0  0  0  0  0  0  0
    1.6179   -3.8181   29.1569 C   0  0  0  0  0  0  0  0  0  0  0  0
    1.9415   -2.7333   28.6912 O   0  0  0  0  0  0  0  0  0  0  0  0
    0.3920   -3.9610   29.9710 C   0  0  0  0  0  0  0  0  0  0  0  0
   -0.2040   -5.0126   30.5626 C   0  0  0  0  0  0  0  0  0  0  0  0
    0.1838   -6.4539   30.5543 C   0  0  0  0  0  0  0  0  0  0  0  0
   -0.9754   -7.4464   30.4440 C   0  0  0  0  0  0  0  0  0  0  0  0
   -1.6265   -7.7822   31.7916 C   0  0  0  0  0  0  0  0  0  0  0  0
   -1.3278   -6.7487   32.8670 C   0  0  0  0  0  0  0  0  0  0  0  0
    0.1842   -6.6086   33.1035 C   0  0  0  0  0  0  0  0  0  0  0  0
    0.5812   -5.2519   33.6917 C   0  0  0  0  0  0  0  0  0  0  0  0
    0.6614   -5.2627   35.1796 C   0  0  0  0  0  0  0  0  0  0  0  0
    0.2200   -6.2500   35.9709 C   0  0  0  0  0  0  0  0  0  0  0  0
   -0.0837   -7.6005   35.4512 C   0  0  0  0  0  0  0  0  0  0  0  0
    0.5588   -7.7192   34.0811 C   0  0  0  0  0  0  0  0  0  0  0  0
    1.9801   -7.8720   34.2157 O   0  0  0  0  0  0  0  0  0  0  0  0
    0.2057   -6.1832   37.3280 O   0  0  0  0  0  0  0  0  0  0  0  0
    0.4194   -4.8502   37.7765 C   0  0  0  0  0  0  0  0  0  0  0  0
    0.7746   -4.9992   39.2452 C   0  0  0  0  0  0  0  0  0  0  0  0
   -0.8461   -3.9988   37.6199 C   0  0  0  0  0  0  0  0  0  0  0  0
    1.5274   -4.2085   37.1347 O   0  0  0  0  0  0  0  0  0  0  0  0
    1.6496   -4.3807   35.8057 C   0  0  0  0  0  0  0  0  0  0  0  0
    2.5791   -3.9229   35.1524 O   0  0  0  0  0  0  0  0  0  0  0  0
    0.9487   -6.8049   31.7942 C   0  0  0  0  0  0  0  0  0  0  0  0
    4.9606   -6.1294   27.3184 H   0  0  0  0  0  0  0  0  0  0  0  0
    4.3903   -6.6267   28.9261 H   0  0  0  0  0  0  0  0  0  0  0  0
    3.3566   -6.8744   27.5206 H   0  0  0  0  0  0  0  0  0  0  0  0
    3.1846   -4.4021   27.2132 H   0  0  0  0  0  0  0  0  0  0  0  0
    4.1956   -4.1652   28.6744 H   0  0  0  0  0  0  0  0  0  0  0  0
   -0.0929   -2.9909   30.0829 H   0  0  0  0  0  0  0  0  0  0  0  0
   -1.1096   -4.7351   31.0868 H   0  0  0  0  0  0  0  0  0  0  0  0
    0.8562   -6.6446   29.7208 H   0  0  0  0  0  0  0  0  0  0  0  0
   -0.5894   -8.3853   30.0222 H   0  0  0  0  0  0  0  0  0  0  0  0
   -1.7152   -7.1046   29.7227 H   0  0  0  0  0  0  0  0  0  0  0  0
   -2.7004   -7.9077   31.6709 H   0  0  0  0  0  0  0  0  0  0  0  0
   -1.2785   -8.7705   32.1068 H   0  0  0  0  0  0  0  0  0  0  0  0
   -1.7325   -5.7804   32.6017 H   0  0  0  0  0  0  0  0  0  0  0  0
   -1.8745   -7.0176   33.7700 H   0  0  0  0  0  0  0  0  0  0  0  0
   -0.1237   -4.4664   33.3942 H   0  0  0  0  0  0  0  0  0  0  0  0
    1.5509   -4.9400   33.2874 H   0  0  0  0  0  0  0  0  0  0  0  0
   -1.1618   -7.7776   35.4597 H   0  0  0  0  0  0  0  0  0  0  0  0
    0.3605   -8.3538   36.1151 H   0  0  0  0  0  0  0  0  0  0  0  0
    0.1479   -8.6103   33.6394 H   0  0  0  0  0  0  0  0  0  0  0  0
    2.3156   -7.1937   34.8312 H   0  0  0  0  0  0  0  0  0  0  0  0
    1.6812   -5.6049   39.3637 H   0  0  0  0  0  0  0  0  0  0  0  0
    0.9780   -4.0272   39.7077 H   0  0  0  0  0  0  0  0  0  0  0  0
   -0.0229   -5.4998   39.8054 H   0  0  0  0  0  0  0  0  0  0  0  0
   -1.1509   -3.8751   36.5761 H   0  0  0  0  0  0  0  0  0  0  0  0
   -0.6871   -2.9910   38.0191 H   0  0  0  0  0  0  0  0  0  0  0  0
   -1.6907   -4.4574   38.1438 H   0  0  0  0  0  0  0  0  0  0  0  0
    1.1256   -7.8593   31.6737 H   0  0  0  0  0  0  0  0  0  0  0  0
    1.9347   -6.3253   31.8038 H   0  0  0  0  0  0  0  0  0  0  0  0
  1  2  1  0
  2  3  1  0
  3  4  1  0
  4  5  2  0
  4  6  1  0
  6  7  2  3
  7  8  1  0
  8  9  1  0
  9 10  1  0
 10 11  1  0
 11 12  1  0
 12 13  1  0
 13 14  1  0
 14 15  2  0
 15 16  1  0
 16 17  1  0
 17 18  1  0
 15 19  1  0
 19 20  1  0
 20 21  1  0
 20 22  1  0
 20 23  1  0
 23 24  1  0
 24 25  2  0
 12 26  1  0
 26  8  1  0
 17 12  1  0
 24 14  1  0
  1 27  1  0
  1 28  1  0
  1 29  1  0
  2 30  1  0
  2 31  1  0
  6 32  1  0
  7 33  1  0
  8 34  1  0
  9 35  1  0
  9 36  1  0
 10 37  1  0
 10 38  1  0
 11 39  1  0
 11 40  1  0
 13 41  1  0
 13 42  1  0
 16 43  1  0
 16 44  1  0
 17 45  1  0
 18 46  1  0
 21 47  1  0
 21 48  1  0
 21 49  1  0
 22 50  1  0
 22 51  1  0
 22 52  1  0
 26 53  1  0
 26 54  1  0
M  END
>  <Energy>  (773) 
56.557378657541889

>  <compound_id>  (773) 
266

>  <target_id>  (773) 
1

>  <reference_id>  (773) 
78

>  <inspiration_ids>  (773) 
[78, 105]

>  <energy_score>  (773) 
-48.06260207573996

>  <distance_score>  (773) 
2.7850982768833994

>  <path>  (773) 
/opt/xchem-fragalysis-2/maxwin/BulkDock/SCRATCH/505733/C266-P78/C266-P78.minimised.mol

>  <scratch_subdir>  (773) 
/opt/xchem-fragalysis-2/maxwin/BulkDock/SCRATCH/505733/C266-P78

>  <fragmenstein_runtime>  (773) 
5.881057024002075

>  <fragmenstein_outcome>  (773) 
too moved

>  <fragmenstein_mode>  (773) 
expansion

>  <fragmenstein_error>  (773) 


$$$$
C266-P105
     RDKit          3D

 54 56  0  0  0  0  0  0  0  0999 V2000
   -1.9195   -2.5964   36.7527 C   0  0  0  0  0  0  0  0  0  0  0  0
   -1.7760   -3.8362   37.6231 C   0  0  0  0  0  0  0  0  0  0  0  0
   -1.5636   -5.0048   36.7889 O   0  0  0  0  0  0  0  0  0  0  0  0
   -0.9975   -6.0620   37.4167 C   0  0  0  0  0  0  0  0  0  0  0  0
   -0.7321   -6.1017   38.6136 O   0  0  0  0  0  0  0  0  0  0  0  0
   -0.6743   -7.2372   36.5640 C   0  0  0  0  0  0  0  0  0  0  0  0
   -0.8308   -7.6494   35.2905 C   0  0  0  0  0  0  0  0  0  0  0  0
   -1.4182   -7.0189   34.0627 C   0  0  0  0  0  0  0  0  0  0  0  0
   -1.4713   -7.9048   32.8005 C   0  0  0  0  0  0  0  0  0  0  0  0
   -1.2254   -7.2445   31.4260 C   0  0  0  0  0  0  0  0  0  0  0  0
   -0.5429   -5.8567   31.4024 C   0  0  0  0  0  0  0  0  0  0  0  0
    0.2763   -5.6711   32.6766 C   0  0  0  0  0  0  0  0  0  0  0  0
    1.1007   -4.3682   32.8959 C   0  0  0  0  0  0  0  0  0  0  0  0
    1.9129   -4.5619   34.1780 C   0  0  0  0  0  0  0  0  0  0  0  0
    2.0477   -5.7421   34.7998 C   0  0  0  0  0  0  0  0  0  0  0  0
    1.9578   -6.9972   34.0427 C   0  0  0  0  0  0  0  0  0  0  0  0
    1.3293   -6.7733   32.6856 C   0  0  0  0  0  0  0  0  0  0  0  0
    2.3340   -6.3727   31.7550 O   0  0  0  0  0  0  0  0  0  0  0  0
    2.3589   -5.9089   36.1153 O   0  0  0  0  0  0  0  0  0  0  0  0
    2.5754   -4.6659   36.7641 C   0  0  0  0  0  0  0  0  0  0  0  0
    3.3416   -5.0213   38.0271 C   0  0  0  0  0  0  0  0  0  0  0  0
    1.3155   -3.9398   37.1903 C   0  0  0  0  0  0  0  0  0  0  0  0
    3.3230   -3.7656   35.9490 O   0  0  0  0  0  0  0  0  0  0  0  0
    2.8331   -3.5669   34.6986 C   0  0  0  0  0  0  0  0  0  0  0  0
    3.2177   -2.6635   33.9747 O   0  0  0  0  0  0  0  0  0  0  0  0
   -0.7927   -5.6823   33.7774 C   0  0  0  0  0  0  0  0  0  0  0  0
   -2.7667   -2.6805   36.0684 H   0  0  0  0  0  0  0  0  0  0  0  0
   -1.0353   -2.4405   36.1290 H   0  0  0  0  0  0  0  0  0  0  0  0
   -2.0671   -1.7082   37.3741 H   0  0  0  0  0  0  0  0  0  0  0  0
   -2.6712   -3.9662   38.2316 H   0  0  0  0  0  0  0  0  0  0  0  0
   -0.9631   -3.6788   38.3342 H   0  0  0  0  0  0  0  0  0  0  0  0
   -0.1744   -7.9708   37.2042 H   0  0  0  0  0  0  0  0  0  0  0  0
   -0.4393   -8.6454   35.1380 H   0  0  0  0  0  0  0  0  0  0  0  0
   -2.4246   -6.8557   34.4015 H   0  0  0  0  0  0  0  0  0  0  0  0
   -0.7389   -8.7012   32.8948 H   0  0  0  0  0  0  0  0  0  0  0  0
   -2.4169   -8.4482   32.7604 H   0  0  0  0  0  0  0  0  0  0  0  0
   -2.1480   -7.2135   30.8569 H   0  0  0  0  0  0  0  0  0  0  0  0
   -0.6078   -7.9351   30.8334 H   0  0  0  0  0  0  0  0  0  0  0  0
    0.0526   -5.7567   30.4892 H   0  0  0  0  0  0  0  0  0  0  0  0
   -1.2855   -5.0574   31.3304 H   0  0  0  0  0  0  0  0  0  0  0  0
    0.4248   -3.5133   33.0244 H   0  0  0  0  0  0  0  0  0  0  0  0
    1.7519   -4.1223   32.0501 H   0  0  0  0  0  0  0  0  0  0  0  0
    2.9885   -7.3429   33.9490 H   0  0  0  0  0  0  0  0  0  0  0  0
    1.4534   -7.7675   34.6134 H   0  0  0  0  0  0  0  0  0  0  0  0
    0.9665   -7.7202   32.3213 H   0  0  0  0  0  0  0  0  0  0  0  0
    1.9273   -6.2050   30.8892 H   0  0  0  0  0  0  0  0  0  0  0  0
    4.2973   -5.4940   37.7699 H   0  0  0  0  0  0  0  0  0  0  0  0
    3.5819   -4.1293   38.6160 H   0  0  0  0  0  0  0  0  0  0  0  0
    2.7928   -5.7316   38.6555 H   0  0  0  0  0  0  0  0  0  0  0  0
    0.5911   -3.8982   36.3823 H   0  0  0  0  0  0  0  0  0  0  0  0
    1.5322   -2.9050   37.4816 H   0  0  0  0  0  0  0  0  0  0  0  0
    0.8932   -4.4370   38.0587 H   0  0  0  0  0  0  0  0  0  0  0  0
   -0.4398   -5.2256   34.7005 H   0  0  0  0  0  0  0  0  0  0  0  0
   -1.5643   -4.9741   33.4683 H   0  0  0  0  0  0  0  0  0  0  0  0
  1  2  1  0
  2  3  1  0
  3  4  1  0
  4  5  2  0
  4  6  1  0
  6  7  2  3
  7  8  1  0
  8  9  1  0
  9 10  1  0
 10 11  1  0
 11 12  1  0
 12 13  1  0
 13 14  1  0
 14 15  2  0
 15 16  1  0
 16 17  1  0
 17 18  1  0
 15 19  1  0
 19 20  1  0
 20 21  1  0
 20 22  1  0
 20 23  1  0
 23 24  1  0
 24 25  2  0
 12 26  1  0
 26  8  1  0
 17 12  1  0
 24 14  1  0
  1 27  1  0
  1 28  1  0
  1 29  1  0
  2 30  1  0
  2 31  1  0
  6 32  1  0
  7 33  1  0
  8 34  1  0
  9 35  1  0
  9 36  1  0
 10 37  1  0
 10 38  1  0
 11 39  1  0
 11 40  1  0
 13 41  1  0
 13 42  1  0
 16 43  1  0
 16 44  1  0
 17 45  1  0
 18 46  1  0
 21 47  1  0
 21 48  1  0
 21 49  1  0
 22 50  1  0
 22 51  1  0
 22 52  1  0
 26 53  1  0
 26 54  1  0
M  END
>  <Energy>  (774) 
92.255131044506342

>  <compound_id>  (774) 
266

>  <target_id>  (774) 
1

>  <reference_id>  (774) 
105

>  <inspiration_ids>  (774) 
[78, 105]

>  <energy_score>  (774) 
-12.364849688776815

>  <distance_score>  (774) 
2.5708688300936102

>  <path>  (774) 
/opt/xchem-fragalysis-2/maxwin/BulkDock/SCRATCH/505733/C266-P105/C266-P105.minimised.mol

>  <scratch_subdir>  (774) 
/opt/xchem-fragalysis-2/maxwin/BulkDock/SCRATCH/505733/C266-P105

>  <fragmenstein_runtime>  (774) 
5.01281476020813

>  <fragmenstein_outcome>  (774) 
too moved

>  <fragmenstein_mode>  (774) 
expansion

>  <fragmenstein_error>  (774) 


$$$$
C315-P78
     RDKit          3D

 48 50  0  0  0  0  0  0  0  0999 V2000
    0.6591   -6.6542   37.8583 C   0  0  0  0  0  0  0  0  0  0  0  0
    0.5372   -5.9768   36.4928 C   0  0  0  0  0  0  0  0  0  0  0  0
    0.0157   -4.5468   36.6869 C   0  0  0  0  0  0  0  0  0  0  0  0
    1.8649   -5.9475   35.9378 O   0  0  0  0  0  0  0  0  0  0  0  0
    2.0331   -5.8868   34.6018 C   0  0  0  0  0  0  0  0  0  0  0  0
    3.1277   -5.7902   34.0670 O   0  0  0  0  0  0  0  0  0  0  0  0
    0.8069   -5.9943   33.8017 C   0  0  0  0  0  0  0  0  0  0  0  0
   -0.3132   -6.5293   34.4096 C   0  0  0  0  0  0  0  0  0  0  0  0
   -1.3174   -7.0032   33.5832 C   0  0  0  0  0  0  0  0  0  0  0  0
   -1.3068   -6.6127   32.2425 C   0  0  0  0  0  0  0  0  0  0  0  0
   -2.0796   -7.3031   31.3631 O   0  0  0  0  0  0  0  0  0  0  0  0
   -0.3608   -5.7235   31.7891 C   0  0  0  0  0  0  0  0  0  0  0  0
   -0.2744   -4.7714   30.1796 Br  0  0  0  0  0  0  0  0  0  0  0  0
    0.8279   -5.9506   32.3871 C   0  0  0  0  0  0  0  0  0  0  0  0
    1.5533   -7.1740   31.7342 C   0  0  0  0  0  0  0  0  0  0  0  0
    1.2154   -7.9095   30.2662 C   0  0  0  0  0  0  0  0  0  0  0  0
    1.7377   -9.6102   29.4233 N   0  0  0  0  0  0  0  0  0  0  0  0
    1.6701  -11.9281   29.9783 S   0  0  0  0  0  0  0  0  0  0  0  0
    2.7365  -12.4105   29.1580 O   0  0  0  0  0  0  0  0  0  0  0  0
    2.1243  -12.3435   31.2808 O   0  0  0  0  0  0  0  0  0  0  0  0
   -0.5798  -11.3731   30.5316 N   0  0  0  0  0  0  0  0  0  0  0  0
   -0.7686   -9.7832   30.6322 C   0  0  0  0  0  0  0  0  0  0  0  0
   -0.6808   -9.1034   29.2312 C   0  0  0  0  0  0  0  0  0  0  0  0
   -0.6570   -9.9961   28.1764 O   0  0  0  0  0  0  0  0  0  0  0  0
   -1.7062  -10.9185   28.2122 C   0  0  0  0  0  0  0  0  0  0  0  0
   -2.1071  -11.6987   29.3217 C   0  0  0  0  0  0  0  0  0  0  0  0
   -0.4044   -6.7558   35.7422 O   0  0  0  0  0  0  0  0  0  0  0  0
    1.0195   -7.6831   37.7414 H   0  0  0  0  0  0  0  0  0  0  0  0
   -0.3091   -6.7074   38.3671 H   0  0  0  0  0  0  0  0  0  0  0  0
    1.3752   -6.1326   38.5024 H   0  0  0  0  0  0  0  0  0  0  0  0
   -0.0557   -4.0121   35.7337 H   0  0  0  0  0  0  0  0  0  0  0  0
   -0.9867   -4.5486   37.1287 H   0  0  0  0  0  0  0  0  0  0  0  0
    0.6904   -3.9646   37.3237 H   0  0  0  0  0  0  0  0  0  0  0  0
   -2.0555   -7.6938   33.9741 H   0  0  0  0  0  0  0  0  0  0  0  0
   -1.9146   -6.8988   30.4946 H   0  0  0  0  0  0  0  0  0  0  0  0
    2.5696   -6.8008   31.7928 H   0  0  0  0  0  0  0  0  0  0  0  0
    1.2546   -7.9004   32.4809 H   0  0  0  0  0  0  0  0  0  0  0  0
    1.6927   -7.2502   29.5117 H   0  0  0  0  0  0  0  0  0  0  0  0
    0.1898   -7.6164   30.1748 H   0  0  0  0  0  0  0  0  0  0  0  0
    2.2185   -9.7934   30.2677 H   0  0  0  0  0  0  0  0  0  0  0  0
   -1.7522   -9.7164   31.0862 H   0  0  0  0  0  0  0  0  0  0  0  0
   -0.2824   -9.2629   31.4502 H   0  0  0  0  0  0  0  0  0  0  0  0
   -1.3645   -8.2559   29.1350 H   0  0  0  0  0  0  0  0  0  0  0  0
    0.1648   -8.6379   28.8162 H   0  0  0  0  0  0  0  0  0  0  0  0
   -2.2239  -11.2450   27.3035 H   0  0  0  0  0  0  0  0  0  0  0  0
   -1.9973  -10.4358   29.0559 H   0  0  0  0  0  0  0  0  0  0  0  0
   -2.3534  -12.7323   28.9955 H   0  0  0  0  0  0  0  0  0  0  0  0
   -3.1022  -11.5427   29.7339 H   0  0  0  0  0  0  0  0  0  0  0  0
  1  2  1  0
  2  3  1  0
  2  4  1  0
  4  5  1  0
  5  6  2  0
  5  7  1  0
  7  8  2  0
  8  9  1  0
  9 10  2  0
 10 11  1  0
 10 12  1  0
 12 13  1  0
 12 14  2  0
 14 15  1  0
 15 16  1  0
 16 17  1  0
 17 18  1  0
 18 19  2  0
 18 20  2  0
 18 21  1  0
 21 22  1  0
 22 23  1  0
 23 24  1  0
 24 25  1  0
 25 26  1  0
  8 27  1  0
 27  2  1  0
 14  7  1  0
 26 21  1  0
  1 28  1  0
  1 29  1  0
  1 30  1  0
  3 31  1  0
  3 32  1  0
  3 33  1  0
  9 34  1  0
 11 35  1  0
 15 36  1  0
 15 37  1  0
 16 38  1  0
 16 39  1  0
 17 40  1  0
 22 41  1  0
 22 42  1  0
 23 43  1  0
 23 44  1  0
 25 45  1  0
 25 46  1  0
 26 47  1  0
 26 48  1  0
M  END
>  <Energy>  (775) 
630.42687377247898

>  <compound_id>  (775) 
315

>  <target_id>  (775) 
1

>  <reference_id>  (775) 
78

>  <inspiration_ids>  (775) 
[78, 116]

>  <energy_score>  (775) 
662.2141385196996

>  <distance_score>  (775) 
1.758346114922834

>  <path>  (775) 
/opt/xchem-fragalysis-2/maxwin/BulkDock/SCRATCH/505733/C315-P78/C315-P78.minimised.mol

>  <scratch_subdir>  (775) 
/opt/xchem-fragalysis-2/maxwin/BulkDock/SCRATCH/505733/C315-P78

>  <fragmenstein_runtime>  (775) 
8.249513626098633

>  <fragmenstein_outcome>  (775) 
too moved

>  <fragmenstein_mode>  (775) 
expansion

>  <fragmenstein_error>  (775) 


$$$$
C315-P116
     RDKit          3D

 48 50  0  0  0  0  0  0  0  0999 V2000
    0.6716   -6.7727   37.3837 C   0  0  0  0  0  0  0  0  0  0  0  0
    0.9116   -5.5690   36.4729 C   0  0  0  0  0  0  0  0  0  0  0  0
    1.4918   -4.4211   37.2984 C   0  0  0  0  0  0  0  0  0  0  0  0
    1.8969   -5.8925   35.4835 O   0  0  0  0  0  0  0  0  0  0  0  0
    1.4620   -6.2646   34.2512 C   0  0  0  0  0  0  0  0  0  0  0  0
    2.1560   -6.1206   33.2554 O   0  0  0  0  0  0  0  0  0  0  0  0
    0.0520   -6.6906   34.1684 C   0  0  0  0  0  0  0  0  0  0  0  0
   -0.5275   -5.5192   34.6566 C   0  0  0  0  0  0  0  0  0  0  0  0
   -1.1178   -4.6788   33.7595 C   0  0  0  0  0  0  0  0  0  0  0  0
   -1.3497   -5.1637   32.4870 C   0  0  0  0  0  0  0  0  0  0  0  0
   -1.8909   -4.2570   31.6144 O   0  0  0  0  0  0  0  0  0  0  0  0
   -1.1165   -6.5055   32.1158 C   0  0  0  0  0  0  0  0  0  0  0  0
   -1.6617   -7.3364   30.4828 Br  0  0  0  0  0  0  0  0  0  0  0  0
   -0.4213   -7.3139   32.9648 C   0  0  0  0  0  0  0  0  0  0  0  0
   -0.7976   -8.8034   32.8366 C   0  0  0  0  0  0  0  0  0  0  0  0
   -0.6142   -9.7401   31.5819 C   0  0  0  0  0  0  0  0  0  0  0  0
    0.3865  -10.7739   31.6508 N   0  0  0  0  0  0  0  0  0  0  0  0
    0.3575  -12.1494   30.7180 S   0  0  0  0  0  0  0  0  0  0  0  0
    1.7195  -12.4068   30.3189 O   0  0  0  0  0  0  0  0  0  0  0  0
   -0.3980  -13.1148   31.4718 O   0  0  0  0  0  0  0  0  0  0  0  0
   -0.5487  -11.6136   29.4136 N   0  0  0  0  0  0  0  0  0  0  0  0
    0.2670  -11.0263   28.3357 C   0  0  0  0  0  0  0  0  0  0  0  0
    0.7291  -12.0914   27.3582 C   0  0  0  0  0  0  0  0  0  0  0  0
   -0.2146  -13.0785   27.0340 O   0  0  0  0  0  0  0  0  0  0  0  0
   -1.5258  -12.7035   27.3786 C   0  0  0  0  0  0  0  0  0  0  0  0
   -1.5547  -12.5949   28.8906 C   0  0  0  0  0  0  0  0  0  0  0  0
   -0.3022   -5.0577   35.9179 O   0  0  0  0  0  0  0  0  0  0  0  0
    0.3796   -7.6564   36.8087 H   0  0  0  0  0  0  0  0  0  0  0  0
   -0.1209   -6.5717   38.1117 H   0  0  0  0  0  0  0  0  0  0  0  0
    1.5876   -7.0509   37.9168 H   0  0  0  0  0  0  0  0  0  0  0  0
    1.6791   -3.5483   36.6614 H   0  0  0  0  0  0  0  0  0  0  0  0
    0.7991   -4.1038   38.0854 H   0  0  0  0  0  0  0  0  0  0  0  0
    2.4495   -4.6976   37.7527 H   0  0  0  0  0  0  0  0  0  0  0  0
   -1.4058   -3.6687   34.0342 H   0  0  0  0  0  0  0  0  0  0  0  0
   -1.3528   -4.4118   30.8020 H   0  0  0  0  0  0  0  0  0  0  0  0
   -1.8811   -8.8408   33.0408 H   0  0  0  0  0  0  0  0  0  0  0  0
   -0.3788   -9.2058   33.7180 H   0  0  0  0  0  0  0  0  0  0  0  0
   -0.2792   -9.2060   30.7027 H   0  0  0  0  0  0  0  0  0  0  0  0
   -1.5831  -10.1908   31.3814 H   0  0  0  0  0  0  0  0  0  0  0  0
    1.3256  -10.3420   31.6066 H   0  0  0  0  0  0  0  0  0  0  0  0
    1.1299  -10.4808   28.7141 H   0  0  0  0  0  0  0  0  0  0  0  0
   -0.3319  -10.2775   27.8168 H   0  0  0  0  0  0  0  0  0  0  0  0
    1.5989  -12.6227   27.7485 H   0  0  0  0  0  0  0  0  0  0  0  0
    0.9628  -11.6015   26.4183 H   0  0  0  0  0  0  0  0  0  0  0  0
   -1.8140  -11.7828   26.8757 H   0  0  0  0  0  0  0  0  0  0  0  0
   -2.1699  -13.4925   26.9973 H   0  0  0  0  0  0  0  0  0  0  0  0
   -1.3251  -13.5952   29.2677 H   0  0  0  0  0  0  0  0  0  0  0  0
   -2.5403  -12.2870   29.2378 H   0  0  0  0  0  0  0  0  0  0  0  0
  1  2  1  0
  2  3  1  0
  2  4  1  0
  4  5  1  0
  5  6  2  0
  5  7  1  0
  7  8  2  0
  8  9  1  0
  9 10  2  0
 10 11  1  0
 10 12  1  0
 12 13  1  0
 12 14  2  0
 14 15  1  0
 15 16  1  0
 16 17  1  0
 17 18  1  0
 18 19  2  0
 18 20  2  0
 18 21  1  0
 21 22  1  0
 22 23  1  0
 23 24  1  0
 24 25  1  0
 25 26  1  0
  8 27  1  0
 27  2  1  0
 14  7  1  0
 26 21  1  0
  1 28  1  0
  1 29  1  0
  1 30  1  0
  3 31  1  0
  3 32  1  0
  3 33  1  0
  9 34  1  0
 11 35  1  0
 15 36  1  0
 15 37  1  0
 16 38  1  0
 16 39  1  0
 17 40  1  0
 22 41  1  0
 22 42  1  0
 23 43  1  0
 23 44  1  0
 25 45  1  0
 25 46  1  0
 26 47  1  0
 26 48  1  0
M  END
>  <Energy>  (776) 
4.3116836644468322

>  <compound_id>  (776) 
315

>  <target_id>  (776) 
1

>  <reference_id>  (776) 
116

>  <inspiration_ids>  (776) 
[78, 116]

>  <energy_score>  (776) 
36.098948411676645

>  <distance_score>  (776) 
1.9061162938052632

>  <path>  (776) 
/opt/xchem-fragalysis-2/maxwin/BulkDock/SCRATCH/505733/C315-P116/C315-P116.minimised.mol

>  <scratch_subdir>  (776) 
/opt/xchem-fragalysis-2/maxwin/BulkDock/SCRATCH/505733/C315-P116

>  <fragmenstein_runtime>  (776) 
7.7630040645599365

>  <fragmenstein_outcome>  (776) 
too moved

>  <fragmenstein_mode>  (776) 
expansion

>  <fragmenstein_error>  (776) 


$$$$
C1031-P78
     RDKit          3D

 64 67  0  0  0  0  0  0  0  0999 V2000
   -4.5003   -1.8720   32.8728 C   0  0  0  0  0  0  0  0  0  0  0  0
   -3.0782   -2.2683   32.5283 C   0  0  0  0  0  0  0  0  0  0  0  0
   -2.8515   -3.2175   31.8273 O   0  0  0  0  0  0  0  0  0  0  0  0
   -2.1939   -1.4105   33.2366 N   0  0  0  0  0  0  0  0  0  0  0  0
   -0.7171   -1.4767   33.4278 C   0  0  0  0  0  0  0  0  0  0  0  0
    0.1178   -1.5123   32.1627 C   0  0  0  0  0  0  0  0  0  0  0  0
    0.2628   -2.8952   31.5001 C   0  0  0  0  0  0  0  0  0  0  0  0
    0.2992   -3.0302   30.2832 O   0  0  0  0  0  0  0  0  0  0  0  0
    0.4655   -4.0314   32.3150 N   0  0  0  0  0  0  0  0  0  0  0  0
    1.5906   -4.0466   33.3419 S   0  0  0  0  0  0  0  0  0  0  0  0
    2.0708   -2.8680   34.0288 O   0  0  0  0  0  0  0  0  0  0  0  0
    2.9116   -4.5526   32.4017 N   0  0  0  0  0  0  0  0  0  0  0  0
    4.0563   -3.6672   32.1927 C   0  0  0  0  0  0  0  0  0  0  0  0
    5.1976   -4.3442   31.4371 C   0  0  0  0  0  0  0  0  0  0  0  0
    6.0915   -3.1856   31.0110 C   0  0  0  0  0  0  0  0  0  0  0  0
    5.1596   -1.9881   30.8420 C   0  0  0  0  0  0  0  0  0  0  0  0
    3.7796   -2.4583   31.2970 C   0  0  0  0  0  0  0  0  0  0  0  0
    1.2542   -5.2571   34.5905 C   0  0  0  0  0  0  0  0  0  0  0  0
    0.9322   -6.6374   34.0518 C   0  0  0  0  0  0  0  0  0  0  0  0
    0.7537   -7.6126   35.2144 C   0  0  0  0  0  0  0  0  0  0  0  0
    0.5441   -6.9567   36.4652 O   0  0  0  0  0  0  0  0  0  0  0  0
   -0.4255   -5.9235   36.3632 C   0  0  0  0  0  0  0  0  0  0  0  0
    0.1213   -4.7892   35.5131 C   0  0  0  0  0  0  0  0  0  0  0  0
   -0.5300   -0.3334   31.5282 C   0  0  0  0  0  0  0  0  0  0  0  0
   -0.6994   -0.1236   30.0538 C   0  0  0  0  0  0  0  0  0  0  0  0
   -0.1414    1.0281   29.4659 C   0  0  0  0  0  0  0  0  0  0  0  0
   -0.3946    1.3545   28.1354 C   0  0  0  0  0  0  0  0  0  0  0  0
   -1.1841    0.5152   27.3635 C   0  0  0  0  0  0  0  0  0  0  0  0
   -1.6890   -0.6596   27.9093 C   0  0  0  0  0  0  0  0  0  0  0  0
   -1.4637   -0.9698   29.2498 C   0  0  0  0  0  0  0  0  0  0  0  0
   -1.8065   -0.2309   32.3743 C   0  0  0  0  0  0  0  0  0  0  0  0
   -4.6736   -0.8137   32.6647 H   0  0  0  0  0  0  0  0  0  0  0  0
   -4.6890   -2.0627   33.9331 H   0  0  0  0  0  0  0  0  0  0  0  0
   -5.2007   -2.4696   32.2823 H   0  0  0  0  0  0  0  0  0  0  0  0
   -0.3955   -0.6835   34.1269 H   0  0  0  0  0  0  0  0  0  0  0  0
   -0.5855   -2.3908   34.0072 H   0  0  0  0  0  0  0  0  0  0  0  0
    1.1482   -1.2292   32.4061 H   0  0  0  0  0  0  0  0  0  0  0  0
    2.4960   -4.7771   31.5000 H   0  0  0  0  0  0  0  0  0  0  0  0
    4.4449   -3.3319   33.1633 H   0  0  0  0  0  0  0  0  0  0  0  0
    5.7428   -5.0618   32.0574 H   0  0  0  0  0  0  0  0  0  0  0  0
    4.8268   -4.8637   30.5446 H   0  0  0  0  0  0  0  0  0  0  0  0
    6.6394   -3.4141   30.0915 H   0  0  0  0  0  0  0  0  0  0  0  0
    6.8311   -2.9715   31.7914 H   0  0  0  0  0  0  0  0  0  0  0  0
    5.1321   -1.6394   29.8044 H   0  0  0  0  0  0  0  0  0  0  0  0
    5.5075   -1.1524   31.4597 H   0  0  0  0  0  0  0  0  0  0  0  0
    3.2466   -1.6594   31.8167 H   0  0  0  0  0  0  0  0  0  0  0  0
    3.1877   -2.7459   30.4193 H   0  0  0  0  0  0  0  0  0  0  0  0
    2.1810   -5.3161   35.1784 H   0  0  0  0  0  0  0  0  0  0  0  0
    0.0055   -6.6087   33.4642 H   0  0  0  0  0  0  0  0  0  0  0  0
    1.7063   -6.9971   33.3688 H   0  0  0  0  0  0  0  0  0  0  0  0
    1.6536   -8.2251   35.3286 H   0  0  0  0  0  0  0  0  0  0  0  0
   -0.0863   -8.2861   35.0245 H   0  0  0  0  0  0  0  0  0  0  0  0
   -1.3484   -6.3296   35.9324 H   0  0  0  0  0  0  0  0  0  0  0  0
   -0.6655   -5.5660   37.3696 H   0  0  0  0  0  0  0  0  0  0  0  0
    0.4999   -3.9902   36.1627 H   0  0  0  0  0  0  0  0  0  0  0  0
   -0.7122   -4.3521   34.9541 H   0  0  0  0  0  0  0  0  0  0  0  0
    0.0691    0.5324   31.8587 H   0  0  0  0  0  0  0  0  0  0  0  0
    0.4677    1.7162   30.0488 H   0  0  0  0  0  0  0  0  0  0  0  0
    0.0101    2.2670   27.7066 H   0  0  0  0  0  0  0  0  0  0  0  0
   -1.4064    0.7594   26.3310 H   0  0  0  0  0  0  0  0  0  0  0  0
   -2.2675   -1.3406   27.2867 H   0  0  0  0  0  0  0  0  0  0  0  0
   -1.8941   -1.8898   29.6389 H   0  0  0  0  0  0  0  0  0  0  0  0
   -1.7585    0.6426   33.0455 H   0  0  0  0  0  0  0  0  0  0  0  0
   -2.6604   -0.0250   31.7183 H   0  0  0  0  0  0  0  0  0  0  0  0
  1  2  1  0
  2  3  2  0
  2  4  1  0
  4  5  1  0
  5  6  1  0
  6  7  1  0
  7  8  2  0
  7  9  1  0
  9 10  2  0
 10 11  2  0
 10 12  1  0
 12 13  1  0
 13 14  1  0
 14 15  1  0
 15 16  1  0
 16 17  1  0
 10 18  1  0
 18 19  1  0
 19 20  1  0
 20 21  1  0
 21 22  1  0
 22 23  1  0
  6 24  1  0
 24 25  1  0
 25 26  2  0
 26 27  1  0
 27 28  2  0
 28 29  1  0
 29 30  2  0
 24 31  1  0
 31  4  1  0
 17 13  1  0
 23 18  1  0
 30 25  1  0
  1 32  1  0
  1 33  1  0
  1 34  1  0
  5 35  1  0
  5 36  1  0
  6 37  1  0
 12 38  1  0
 13 39  1  0
 14 40  1  0
 14 41  1  0
 15 42  1  0
 15 43  1  0
 16 44  1  0
 16 45  1  0
 17 46  1  0
 17 47  1  0
 18 48  1  0
 19 49  1  0
 19 50  1  0
 20 51  1  0
 20 52  1  0
 22 53  1  0
 22 54  1  0
 23 55  1  0
 23 56  1  0
 24 57  1  0
 26 58  1  0
 27 59  1  0
 28 60  1  0
 29 61  1  0
 30 62  1  0
 31 63  1  0
 31 64  1  0
M  END
>  <Energy>  (777) 
-51.474582127719984

>  <compound_id>  (777) 
1031

>  <target_id>  (777) 
1

>  <reference_id>  (777) 
78

>  <inspiration_ids>  (777) 
[78, 130]

>  <energy_score>  (777) 
18.711820297278706

>  <distance_score>  (777) 
2.3360707060816828

>  <path>  (777) 
/opt/xchem-fragalysis-2/maxwin/BulkDock/SCRATCH/505733/C1031-P78/C1031-P78.minimised.mol

>  <scratch_subdir>  (777) 
/opt/xchem-fragalysis-2/maxwin/BulkDock/SCRATCH/505733/C1031-P78

>  <fragmenstein_runtime>  (777) 
11.583812952041626

>  <fragmenstein_outcome>  (777) 
too moved

>  <fragmenstein_mode>  (777) 
expansion

>  <fragmenstein_error>  (777) 


$$$$
C1031-P130
     RDKit          3D

 64 67  0  0  0  0  0  0  0  0999 V2000
   -3.3670    0.4824   34.8068 C   0  0  0  0  0  0  0  0  0  0  0  0
   -3.8562   -0.5049   33.7685 C   0  0  0  0  0  0  0  0  0  0  0  0
   -4.9969   -0.7169   33.5842 O   0  0  0  0  0  0  0  0  0  0  0  0
   -2.6319   -1.1040   33.1146 N   0  0  0  0  0  0  0  0  0  0  0  0
   -2.5042   -2.2067   32.1203 C   0  0  0  0  0  0  0  0  0  0  0  0
   -1.1236   -2.2635   31.5453 C   0  0  0  0  0  0  0  0  0  0  0  0
   -0.9156   -3.4584   30.6271 C   0  0  0  0  0  0  0  0  0  0  0  0
   -0.9497   -3.4004   29.4105 O   0  0  0  0  0  0  0  0  0  0  0  0
   -0.6514   -4.6886   31.2751 N   0  0  0  0  0  0  0  0  0  0  0  0
    0.7231   -4.7728   31.9373 S   0  0  0  0  0  0  0  0  0  0  0  0
    1.5234   -3.6003   32.2124 O   0  0  0  0  0  0  0  0  0  0  0  0
    1.5935   -5.5971   30.7336 N   0  0  0  0  0  0  0  0  0  0  0  0
    2.6332   -4.8883   29.9674 C   0  0  0  0  0  0  0  0  0  0  0  0
    3.2345   -5.7317   28.8299 C   0  0  0  0  0  0  0  0  0  0  0  0
    3.7975   -4.7367   27.8103 C   0  0  0  0  0  0  0  0  0  0  0  0
    3.3781   -3.3585   28.3000 C   0  0  0  0  0  0  0  0  0  0  0  0
    2.1868   -3.6388   29.2009 C   0  0  0  0  0  0  0  0  0  0  0  0
    0.6252   -5.5966   33.4868 C   0  0  0  0  0  0  0  0  0  0  0  0
    2.0181   -5.9418   34.0052 C   0  0  0  0  0  0  0  0  0  0  0  0
    1.9296   -6.4874   35.4131 C   0  0  0  0  0  0  0  0  0  0  0  0
    1.0382   -7.5940   35.4364 O   0  0  0  0  0  0  0  0  0  0  0  0
   -0.2931   -7.2349   35.0631 C   0  0  0  0  0  0  0  0  0  0  0  0
   -0.3218   -6.7787   33.6042 C   0  0  0  0  0  0  0  0  0  0  0  0
   -0.9487   -0.8263   31.2000 C   0  0  0  0  0  0  0  0  0  0  0  0
   -0.8381   -0.1400   29.8681 C   0  0  0  0  0  0  0  0  0  0  0  0
   -0.1198    1.0738   29.8561 C   0  0  0  0  0  0  0  0  0  0  0  0
   -0.1203    1.9153   28.7475 C   0  0  0  0  0  0  0  0  0  0  0  0
   -0.8289    1.5512   27.6144 C   0  0  0  0  0  0  0  0  0  0  0  0
   -1.5031    0.3337   27.5875 C   0  0  0  0  0  0  0  0  0  0  0  0
   -1.5111   -0.5096   28.7050 C   0  0  0  0  0  0  0  0  0  0  0  0
   -2.2158   -0.3101   31.9016 C   0  0  0  0  0  0  0  0  0  0  0  0
   -3.6636    1.4912   34.5078 H   0  0  0  0  0  0  0  0  0  0  0  0
   -3.8211    0.2354   35.7705 H   0  0  0  0  0  0  0  0  0  0  0  0
   -2.2801    0.4541   34.9237 H   0  0  0  0  0  0  0  0  0  0  0  0
   -3.3367   -2.2503   31.4099 H   0  0  0  0  0  0  0  0  0  0  0  0
   -2.6567   -3.1018   32.7276 H   0  0  0  0  0  0  0  0  0  0  0  0
   -0.4719   -2.4206   32.4143 H   0  0  0  0  0  0  0  0  0  0  0  0
    0.8577   -5.8543   30.0759 H   0  0  0  0  0  0  0  0  0  0  0  0
    3.4439   -4.6166   30.6562 H   0  0  0  0  0  0  0  0  0  0  0  0
    4.0261   -6.3984   29.1751 H   0  0  0  0  0  0  0  0  0  0  0  0
    2.4725   -6.3537   28.3481 H   0  0  0  0  0  0  0  0  0  0  0  0
    3.3781   -4.9414   26.8187 H   0  0  0  0  0  0  0  0  0  0  0  0
    4.8868   -4.8108   27.7290 H   0  0  0  0  0  0  0  0  0  0  0  0
    3.1344   -2.6794   27.4801 H   0  0  0  0  0  0  0  0  0  0  0  0
    4.1902   -2.9044   28.8803 H   0  0  0  0  0  0  0  0  0  0  0  0
    1.9665   -2.7819   29.8418 H   0  0  0  0  0  0  0  0  0  0  0  0
    1.3105   -3.8521   28.5803 H   0  0  0  0  0  0  0  0  0  0  0  0
    0.2251   -4.8103   34.1469 H   0  0  0  0  0  0  0  0  0  0  0  0
    2.4681   -6.6893   33.3477 H   0  0  0  0  0  0  0  0  0  0  0  0
    2.6810   -5.0697   33.9977 H   0  0  0  0  0  0  0  0  0  0  0  0
    1.5921   -5.7250   36.1247 H   0  0  0  0  0  0  0  0  0  0  0  0
    2.9121   -6.8385   35.7438 H   0  0  0  0  0  0  0  0  0  0  0  0
   -0.9289   -8.1122   35.1939 H   0  0  0  0  0  0  0  0  0  0  0  0
   -0.6713   -6.4586   35.7394 H   0  0  0  0  0  0  0  0  0  0  0  0
   -1.3416   -6.5069   33.3167 H   0  0  0  0  0  0  0  0  0  0  0  0
    0.0086   -7.5861   32.9418 H   0  0  0  0  0  0  0  0  0  0  0  0
   -0.0762   -0.4988   31.7874 H   0  0  0  0  0  0  0  0  0  0  0  0
    0.4210    1.4077   30.7407 H   0  0  0  0  0  0  0  0  0  0  0  0
    0.4126    2.8621   28.7752 H   0  0  0  0  0  0  0  0  0  0  0  0
   -0.8548    2.2073   26.7492 H   0  0  0  0  0  0  0  0  0  0  0  0
   -2.0405    0.0278   26.6914 H   0  0  0  0  0  0  0  0  0  0  0  0
   -2.0839   -1.4306   28.6339 H   0  0  0  0  0  0  0  0  0  0  0  0
   -1.9956    0.6941   32.2891 H   0  0  0  0  0  0  0  0  0  0  0  0
   -3.0733   -0.1467   31.2300 H   0  0  0  0  0  0  0  0  0  0  0  0
  1  2  1  0
  2  3  2  0
  2  4  1  0
  4  5  1  0
  5  6  1  0
  6  7  1  0
  7  8  2  0
  7  9  1  0
  9 10  2  0
 10 11  2  0
 10 12  1  0
 12 13  1  0
 13 14  1  0
 14 15  1  0
 15 16  1  0
 16 17  1  0
 10 18  1  0
 18 19  1  0
 19 20  1  0
 20 21  1  0
 21 22  1  0
 22 23  1  0
  6 24  1  0
 24 25  1  0
 25 26  2  0
 26 27  1  0
 27 28  2  0
 28 29  1  0
 29 30  2  0
 24 31  1  0
 31  4  1  0
 17 13  1  0
 23 18  1  0
 30 25  1  0
  1 32  1  0
  1 33  1  0
  1 34  1  0
  5 35  1  0
  5 36  1  0
  6 37  1  0
 12 38  1  0
 13 39  1  0
 14 40  1  0
 14 41  1  0
 15 42  1  0
 15 43  1  0
 16 44  1  0
 16 45  1  0
 17 46  1  0
 17 47  1  0
 18 48  1  0
 19 49  1  0
 19 50  1  0
 20 51  1  0
 20 52  1  0
 22 53  1  0
 22 54  1  0
 23 55  1  0
 23 56  1  0
 24 57  1  0
 26 58  1  0
 27 59  1  0
 28 60  1  0
 29 61  1  0
 30 62  1  0
 31 63  1  0
 31 64  1  0
M  END
>  <Energy>  (778) 
-45.066380063323805

>  <compound_id>  (778) 
1031

>  <target_id>  (778) 
1

>  <reference_id>  (778) 
130

>  <inspiration_ids>  (778) 
[78, 130]

>  <energy_score>  (778) 
22.61688328968785

>  <distance_score>  (778) 
1.8371738761963214

>  <path>  (778) 
/opt/xchem-fragalysis-2/maxwin/BulkDock/SCRATCH/505733/C1031-P130/C1031-P130.minimised.mol

>  <scratch_subdir>  (778) 
/opt/xchem-fragalysis-2/maxwin/BulkDock/SCRATCH/505733/C1031-P130

>  <fragmenstein_runtime>  (778) 
8.665924549102783

>  <fragmenstein_outcome>  (778) 
too moved

>  <fragmenstein_mode>  (778) 
expansion

>  <fragmenstein_error>  (778) 


$$$$
C1032-P78
     RDKit          3D

 24 25  0  0  0  0  0  0  0  0999 V2000
   -1.9553   -2.7330   30.0208 N   0  0  0  0  0  0  0  0  0  0  0  0
   -0.7099   -1.9793   30.0928 C   0  0  0  0  0  0  0  0  0  0  0  0
   -0.7425   -0.6439   29.3618 C   0  0  0  0  0  0  0  0  0  0  0  0
    0.0228    0.4153   29.8843 C   0  0  0  0  0  0  0  0  0  0  0  0
    0.0724    1.6534   29.2441 C   0  0  0  0  0  0  0  0  0  0  0  0
   -0.6573    1.8618   28.0779 C   0  0  0  0  0  0  0  0  0  0  0  0
   -1.4166    0.8254   27.5413 C   0  0  0  0  0  0  0  0  0  0  0  0
   -1.4493   -0.4243   28.1680 C   0  0  0  0  0  0  0  0  0  0  0  0
    0.4632   -2.8601   29.7420 C   0  0  0  0  0  0  0  0  0  0  0  0
    1.0008   -3.7897   30.5225 N   0  0  0  0  0  0  0  0  0  0  0  0
    2.0635   -4.3041   29.8246 C   0  0  0  0  0  0  0  0  0  0  0  0
    2.1653   -3.6816   28.6154 C   0  0  0  0  0  0  0  0  0  0  0  0
    3.2551   -3.8369   27.3337 Cl  0  0  0  0  0  0  0  0  0  0  0  0
    1.1483   -2.7812   28.5473 N   0  0  0  0  0  0  0  0  0  0  0  0
   -2.1388   -2.9776   29.0432 H   0  0  0  0  0  0  0  0  0  0  0  0
   -2.6894   -2.1038   30.3231 H   0  0  0  0  0  0  0  0  0  0  0  0
   -0.5922   -1.7426   31.1600 H   0  0  0  0  0  0  0  0  0  0  0  0
    0.6029    0.2762   30.7959 H   0  0  0  0  0  0  0  0  0  0  0  0
    0.6675    2.4628   29.6603 H   0  0  0  0  0  0  0  0  0  0  0  0
   -0.6436    2.8342   27.5906 H   0  0  0  0  0  0  0  0  0  0  0  0
   -1.9878    0.9855   26.6292 H   0  0  0  0  0  0  0  0  0  0  0  0
   -2.0296   -1.2174   27.6991 H   0  0  0  0  0  0  0  0  0  0  0  0
    2.6925   -5.0804   30.2379 H   0  0  0  0  0  0  0  0  0  0  0  0
    0.9441   -2.1470   27.7853 H   0  0  0  0  0  0  0  0  0  0  0  0
  1  2  1  0
  2  3  1  0
  3  4  2  0
  4  5  1  0
  5  6  2  0
  6  7  1  0
  7  8  2  0
  2  9  1  0
  9 10  2  0
 10 11  1  0
 11 12  2  0
 12 13  1  0
 12 14  1  0
  8  3  1  0
 14  9  1  0
  1 15  1  0
  1 16  1  0
  2 17  1  0
  4 18  1  0
  5 19  1  0
  6 20  1  0
  7 21  1  0
  8 22  1  0
 11 23  1  0
 14 24  1  0
M  END
>  <Energy>  (779) 
31.931192682101074

>  <compound_id>  (779) 
1032

>  <target_id>  (779) 
1

>  <reference_id>  (779) 
78

>  <inspiration_ids>  (779) 
[78, 131]

>  <energy_score>  (779) 
-10.685099577153437

>  <distance_score>  (779) 
1.1776474638952033

>  <path>  (779) 
/opt/xchem-fragalysis-2/maxwin/BulkDock/SCRATCH/505733/C1032-P78/C1032-P78.minimised.mol

>  <scratch_subdir>  (779) 
/opt/xchem-fragalysis-2/maxwin/BulkDock/SCRATCH/505733/C1032-P78

>  <fragmenstein_runtime>  (779) 
5.246562719345093

>  <fragmenstein_outcome>  (779) 
too moved

>  <fragmenstein_mode>  (779) 
expansion

>  <fragmenstein_error>  (779) 


$$$$
C1032-P131
     RDKit          3D

 24 25  0  0  0  0  0  0  0  0999 V2000
   -1.9881   -2.5249   29.5904 N   0  0  0  0  0  0  0  0  0  0  0  0
   -0.7782   -1.7350   29.7884 C   0  0  0  0  0  0  0  0  0  0  0  0
   -0.8182   -0.3432   29.1934 C   0  0  0  0  0  0  0  0  0  0  0  0
   -0.0776    0.6727   29.8258 C   0  0  0  0  0  0  0  0  0  0  0  0
   -0.0258    1.9597   29.2937 C   0  0  0  0  0  0  0  0  0  0  0  0
   -0.7370    2.2612   28.1368 C   0  0  0  0  0  0  0  0  0  0  0  0
   -1.4741    1.2692   27.4967 C   0  0  0  0  0  0  0  0  0  0  0  0
   -1.4985   -0.0300   28.0087 C   0  0  0  0  0  0  0  0  0  0  0  0
    0.4224   -2.5626   29.3857 C   0  0  0  0  0  0  0  0  0  0  0  0
    0.6810   -3.7951   29.8091 N   0  0  0  0  0  0  0  0  0  0  0  0
    1.8903   -4.1346   29.2514 C   0  0  0  0  0  0  0  0  0  0  0  0
    2.3477   -3.1080   28.4779 C   0  0  0  0  0  0  0  0  0  0  0  0
    3.7473   -2.8824   27.5591 Cl  0  0  0  0  0  0  0  0  0  0  0  0
    1.4104   -2.1259   28.5304 N   0  0  0  0  0  0  0  0  0  0  0  0
   -1.7350   -3.4501   29.9397 H   0  0  0  0  0  0  0  0  0  0  0  0
   -2.1108   -2.6946   28.5846 H   0  0  0  0  0  0  0  0  0  0  0  0
   -0.7018   -1.6072   30.8775 H   0  0  0  0  0  0  0  0  0  0  0  0
    0.4759    0.4638   30.7397 H   0  0  0  0  0  0  0  0  0  0  0  0
    0.5454    2.7391   29.7926 H   0  0  0  0  0  0  0  0  0  0  0  0
   -0.7319    3.2745   27.7413 H   0  0  0  0  0  0  0  0  0  0  0  0
   -2.0411    1.5064   26.5994 H   0  0  0  0  0  0  0  0  0  0  0  0
   -2.0623   -0.7887   27.4699 H   0  0  0  0  0  0  0  0  0  0  0  0
    2.3584   -5.0899   29.4451 H   0  0  0  0  0  0  0  0  0  0  0  0
    1.4318   -1.2402   28.0410 H   0  0  0  0  0  0  0  0  0  0  0  0
  1  2  1  0
  2  3  1  0
  3  4  2  0
  4  5  1  0
  5  6  2  0
  6  7  1  0
  7  8  2  0
  2  9  1  0
  9 10  2  0
 10 11  1  0
 11 12  2  0
 12 13  1  0
 12 14  1  0
  8  3  1  0
 14  9  1  0
  1 15  1  0
  1 16  1  0
  2 17  1  0
  4 18  1  0
  5 19  1  0
  6 20  1  0
  7 21  1  0
  8 22  1  0
 11 23  1  0
 14 24  1  0
M  END
>  <Energy>  (780) 
27.878873349609986

>  <compound_id>  (780) 
1032

>  <target_id>  (780) 
1

>  <reference_id>  (780) 
131

>  <inspiration_ids>  (780) 
[78, 131]

>  <energy_score>  (780) 
-14.737418909644703

>  <distance_score>  (780) 
1.2154588429323132

>  <path>  (780) 
/opt/xchem-fragalysis-2/maxwin/BulkDock/SCRATCH/505733/C1032-P131/C1032-P131.minimised.mol

>  <scratch_subdir>  (780) 
/opt/xchem-fragalysis-2/maxwin/BulkDock/SCRATCH/505733/C1032-P131

>  <fragmenstein_runtime>  (780) 
4.6769421100616455

>  <fragmenstein_outcome>  (780) 
too moved

>  <fragmenstein_mode>  (780) 
expansion

>  <fragmenstein_error>  (780) 


$$$$
C1043-P78
     RDKit          3D

 35 36  0  0  0  0  0  0  0  0999 V2000
   -1.0913   -2.1950   32.4973 C   0  0  0  0  0  0  0  0  0  0  0  0
   -0.6204   -2.6859   31.1447 C   0  0  0  0  0  0  0  0  0  0  0  0
   -0.4982   -1.9761   30.2168 O   0  0  0  0  0  0  0  0  0  0  0  0
   -0.3862   -4.1758   31.2757 N   0  0  0  0  0  0  0  0  0  0  0  0
   -0.0264   -5.2094   30.2357 C   0  0  0  0  0  0  0  0  0  0  0  0
   -0.2787   -6.6789   30.7239 C   0  0  0  0  0  0  0  0  0  0  0  0
    0.4408   -6.8587   31.9961 N   0  0  0  0  0  0  0  0  0  0  0  0
   -0.3009   -7.0478   33.1399 C   0  0  0  0  0  0  0  0  0  0  0  0
   -0.1081   -6.4197   34.3050 C   0  0  0  0  0  0  0  0  0  0  0  0
   -1.0224   -6.5305   35.4686 C   0  0  0  0  0  0  0  0  0  0  0  0
   -0.3705   -6.7787   36.7820 C   0  0  0  0  0  0  0  0  0  0  0  0
   -0.3996   -5.9592   37.8098 N   0  0  0  0  0  0  0  0  0  0  0  0
    0.1492   -6.6507   38.8541 C   0  0  0  0  0  0  0  0  0  0  0  0
    0.1649   -6.0431   40.4322 Cl  0  0  0  0  0  0  0  0  0  0  0  0
    0.5915   -7.8847   38.4407 C   0  0  0  0  0  0  0  0  0  0  0  0
    0.2458   -7.9616   37.1216 N   0  0  0  0  0  0  0  0  0  0  0  0
    1.5629   -5.9187   32.0095 C   0  0  0  0  0  0  0  0  0  0  0  0
    1.0608   -4.4760   31.6965 C   0  0  0  0  0  0  0  0  0  0  0  0
   -0.3061   -1.5809   32.9461 H   0  0  0  0  0  0  0  0  0  0  0  0
   -1.9966   -1.5963   32.3622 H   0  0  0  0  0  0  0  0  0  0  0  0
   -1.3276   -3.0206   33.1747 H   0  0  0  0  0  0  0  0  0  0  0  0
   -0.7595   -5.0124   29.4474 H   0  0  0  0  0  0  0  0  0  0  0  0
    0.9034   -5.0565   29.6555 H   0  0  0  0  0  0  0  0  0  0  0  0
   -1.3512   -6.8642   30.8438 H   0  0  0  0  0  0  0  0  0  0  0  0
    0.1043   -7.4007   29.9999 H   0  0  0  0  0  0  0  0  0  0  0  0
   -1.1494   -7.7179   33.0041 H   0  0  0  0  0  0  0  0  0  0  0  0
    0.6947   -5.7050   34.4491 H   0  0  0  0  0  0  0  0  0  0  0  0
   -1.7685   -7.3148   35.2947 H   0  0  0  0  0  0  0  0  0  0  0  0
   -1.5742   -5.5873   35.5476 H   0  0  0  0  0  0  0  0  0  0  0  0
    1.0552   -8.7053   38.9682 H   0  0  0  0  0  0  0  0  0  0  0  0
    0.3394   -8.7670   36.5146 H   0  0  0  0  0  0  0  0  0  0  0  0
    2.1645   -5.9567   32.9250 H   0  0  0  0  0  0  0  0  0  0  0  0
    2.2627   -6.1968   31.2141 H   0  0  0  0  0  0  0  0  0  0  0  0
    1.1367   -3.9433   32.6576 H   0  0  0  0  0  0  0  0  0  0  0  0
    1.7798   -3.9086   31.0788 H   0  0  0  0  0  0  0  0  0  0  0  0
  1  2  1  0
  2  3  2  0
  2  4  1  0
  4  5  1  0
  5  6  1  0
  6  7  1  0
  7  8  1  0
  8  9  2  3
  9 10  1  0
 10 11  1  0
 11 12  2  0
 12 13  1  0
 13 14  1  0
 13 15  2  0
 15 16  1  0
  7 17  1  0
 17 18  1  0
 18  4  1  0
 16 11  1  0
  1 19  1  0
  1 20  1  0
  1 21  1  0
  5 22  1  0
  5 23  1  0
  6 24  1  0
  6 25  1  0
  8 26  1  0
  9 27  1  0
 10 28  1  0
 10 29  1  0
 15 30  1  0
 16 31  1  0
 17 32  1  0
 17 33  1  0
 18 34  1  0
 18 35  1  0
M  END
>  <Energy>  (781) 
148.84992601699014

>  <compound_id>  (781) 
1043

>  <target_id>  (781) 
1

>  <reference_id>  (781) 
78

>  <inspiration_ids>  (781) 
[78, 158]

>  <energy_score>  (781) 
51.02453515309128

>  <distance_score>  (781) 
3.2736167902265265

>  <path>  (781) 
/opt/xchem-fragalysis-2/maxwin/BulkDock/SCRATCH/505733/C1043-P78/C1043-P78.minimised.mol

>  <scratch_subdir>  (781) 
/opt/xchem-fragalysis-2/maxwin/BulkDock/SCRATCH/505733/C1043-P78

>  <fragmenstein_runtime>  (781) 
5.09461236000061

>  <fragmenstein_outcome>  (781) 
too moved

>  <fragmenstein_mode>  (781) 
expansion

>  <fragmenstein_error>  (781) 


$$$$
C1043-P158
     RDKit          3D

 35 36  0  0  0  0  0  0  0  0999 V2000
    2.7892   -1.8260   31.8335 C   0  0  0  0  0  0  0  0  0  0  0  0
    2.3236   -3.2330   31.5219 C   0  0  0  0  0  0  0  0  0  0  0  0
    2.9965   -4.1764   31.8421 O   0  0  0  0  0  0  0  0  0  0  0  0
    1.0741   -3.1752   30.8377 N   0  0  0  0  0  0  0  0  0  0  0  0
    0.2491   -4.2665   30.1965 C   0  0  0  0  0  0  0  0  0  0  0  0
    0.2421   -5.6652   30.8584 C   0  0  0  0  0  0  0  0  0  0  0  0
   -0.4199   -5.6417   32.1718 N   0  0  0  0  0  0  0  0  0  0  0  0
   -0.6105   -6.8380   32.8486 C   0  0  0  0  0  0  0  0  0  0  0  0
   -0.8254   -7.1655   34.1308 C   0  0  0  0  0  0  0  0  0  0  0  0
   -0.9820   -6.3182   35.3585 C   0  0  0  0  0  0  0  0  0  0  0  0
   -0.1239   -6.6101   36.5474 C   0  0  0  0  0  0  0  0  0  0  0  0
    0.5335   -5.7091   37.2539 N   0  0  0  0  0  0  0  0  0  0  0  0
    0.9970   -6.3641   38.3638 C   0  0  0  0  0  0  0  0  0  0  0  0
    1.8167   -5.5830   39.6258 Cl  0  0  0  0  0  0  0  0  0  0  0  0
    0.6631   -7.6923   38.3098 C   0  0  0  0  0  0  0  0  0  0  0  0
   -0.0502   -7.8435   37.1510 N   0  0  0  0  0  0  0  0  0  0  0  0
   -0.1808   -4.3679   32.8544 C   0  0  0  0  0  0  0  0  0  0  0  0
   -0.0772   -3.1981   31.8413 C   0  0  0  0  0  0  0  0  0  0  0  0
    2.1697   -1.0711   31.3405 H   0  0  0  0  0  0  0  0  0  0  0  0
    3.8177   -1.7057   31.4815 H   0  0  0  0  0  0  0  0  0  0  0  0
    2.7481   -1.6679   32.9146 H   0  0  0  0  0  0  0  0  0  0  0  0
   -0.7303   -3.9344   29.8167 H   0  0  0  0  0  0  0  0  0  0  0  0
    0.8078   -4.4273   29.2618 H   0  0  0  0  0  0  0  0  0  0  0  0
   -0.2731   -6.3701   30.1964 H   0  0  0  0  0  0  0  0  0  0  0  0
    1.2697   -6.0191   30.9804 H   0  0  0  0  0  0  0  0  0  0  0  0
   -0.5846   -7.6755   32.1490 H   0  0  0  0  0  0  0  0  0  0  0  0
   -0.9809   -8.2246   34.3292 H   0  0  0  0  0  0  0  0  0  0  0  0
   -2.0132   -6.4477   35.6963 H   0  0  0  0  0  0  0  0  0  0  0  0
   -0.8714   -5.2575   35.1449 H   0  0  0  0  0  0  0  0  0  0  0  0
    0.8308   -8.5158   38.9870 H   0  0  0  0  0  0  0  0  0  0  0  0
   -0.5120   -8.6996   36.8513 H   0  0  0  0  0  0  0  0  0  0  0  0
   -1.0285   -4.1276   33.5000 H   0  0  0  0  0  0  0  0  0  0  0  0
    0.7267   -4.4289   33.4656 H   0  0  0  0  0  0  0  0  0  0  0  0
   -1.0529   -2.9210   31.4049 H   0  0  0  0  0  0  0  0  0  0  0  0
    0.1297   -2.3198   32.4740 H   0  0  0  0  0  0  0  0  0  0  0  0
  1  2  1  0
  2  3  2  0
  2  4  1  0
  4  5  1  0
  5  6  1  0
  6  7  1  0
  7  8  1  0
  8  9  2  3
  9 10  1  0
 10 11  1  0
 11 12  2  0
 12 13  1  0
 13 14  1  0
 13 15  2  0
 15 16  1  0
  7 17  1  0
 17 18  1  0
 18  4  1  0
 16 11  1  0
  1 19  1  0
  1 20  1  0
  1 21  1  0
  5 22  1  0
  5 23  1  0
  6 24  1  0
  6 25  1  0
  8 26  1  0
  9 27  1  0
 10 28  1  0
 10 29  1  0
 15 30  1  0
 16 31  1  0
 17 32  1  0
 17 33  1  0
 18 34  1  0
 18 35  1  0
M  END
>  <Energy>  (782) 
128.42094268825184

>  <compound_id>  (782) 
1043

>  <target_id>  (782) 
1

>  <reference_id>  (782) 
158

>  <inspiration_ids>  (782) 
[78, 158]

>  <energy_score>  (782) 
34.26599128826871

>  <distance_score>  (782) 
3.371809591896411

>  <path>  (782) 
/opt/xchem-fragalysis-2/maxwin/BulkDock/SCRATCH/505733/C1043-P158/C1043-P158.minimised.mol

>  <scratch_subdir>  (782) 
/opt/xchem-fragalysis-2/maxwin/BulkDock/SCRATCH/505733/C1043-P158

>  <fragmenstein_runtime>  (782) 
5.658273220062256

>  <fragmenstein_outcome>  (782) 
too moved

>  <fragmenstein_mode>  (782) 
expansion

>  <fragmenstein_error>  (782) 


$$$$
C1044-P78
     RDKit          3D

 25 26  0  0  0  0  0  0  0  0999 V2000
    0.5996   -7.4337   38.7090 C   0  0  0  0  0  0  0  0  0  0  0  0
    0.4095   -5.9439   38.4429 C   0  0  0  0  0  0  0  0  0  0  0  0
    1.0174   -5.1759   39.5425 N   0  0  0  0  0  0  0  0  0  0  0  0
    0.9699   -5.5649   37.1133 C   0  0  0  0  0  0  0  0  0  0  0  0
    1.7947   -6.2104   36.3191 N   0  0  0  0  0  0  0  0  0  0  0  0
    1.7322   -5.4464   35.1854 C   0  0  0  0  0  0  0  0  0  0  0  0
    2.0266   -6.0115   33.8572 C   0  0  0  0  0  0  0  0  0  0  0  0
    0.8121   -6.7083   33.3558 C   0  0  0  0  0  0  0  0  0  0  0  0
   -0.1031   -7.3184   34.0922 N   0  0  0  0  0  0  0  0  0  0  0  0
   -1.0489   -7.7740   33.2237 C   0  0  0  0  0  0  0  0  0  0  0  0
   -0.6603   -7.4763   31.9578 C   0  0  0  0  0  0  0  0  0  0  0  0
   -1.2570   -7.8216   30.4461 Cl  0  0  0  0  0  0  0  0  0  0  0  0
    0.4850   -6.7638   32.0312 N   0  0  0  0  0  0  0  0  0  0  0  0
    1.0939   -4.2790   35.3139 N   0  0  0  0  0  0  0  0  0  0  0  0
    0.5158   -4.3925   36.5818 O   0  0  0  0  0  0  0  0  0  0  0  0
    0.1562   -8.0358   37.9076 H   0  0  0  0  0  0  0  0  0  0  0  0
    0.1216   -7.7295   39.6497 H   0  0  0  0  0  0  0  0  0  0  0  0
    1.6608   -7.7032   38.7721 H   0  0  0  0  0  0  0  0  0  0  0  0
   -0.6671   -5.7332   38.4353 H   0  0  0  0  0  0  0  0  0  0  0  0
    0.5641   -5.4309   40.4183 H   0  0  0  0  0  0  0  0  0  0  0  0
    0.8261   -4.1848   39.3982 H   0  0  0  0  0  0  0  0  0  0  0  0
    2.8530   -6.7243   33.9353 H   0  0  0  0  0  0  0  0  0  0  0  0
    2.3393   -5.2221   33.1641 H   0  0  0  0  0  0  0  0  0  0  0  0
   -1.9200   -8.3157   33.5590 H   0  0  0  0  0  0  0  0  0  0  0  0
    0.9967   -6.3697   31.2547 H   0  0  0  0  0  0  0  0  0  0  0  0
  1  2  1  0
  2  3  1  0
  2  4  1  0
  4  5  2  0
  5  6  1  0
  6  7  1  0
  7  8  1  0
  8  9  2  0
  9 10  1  0
 10 11  2  0
 11 12  1  0
 11 13  1  0
  6 14  2  0
 14 15  1  0
 15  4  1  0
 13  8  1  0
  1 16  1  0
  1 17  1  0
  1 18  1  0
  2 19  1  0
  3 20  1  0
  3 21  1  0
  7 22  1  0
  7 23  1  0
 10 24  1  0
 13 25  1  0
M  END
>  <Energy>  (783) 
58.373729815185342

>  <compound_id>  (783) 
1044

>  <target_id>  (783) 
1

>  <reference_id>  (783) 
78

>  <inspiration_ids>  (783) 
[78, 159]

>  <energy_score>  (783) 
-22.97492989989786

>  <distance_score>  (783) 
1.5507520199471165

>  <path>  (783) 
/opt/xchem-fragalysis-2/maxwin/BulkDock/SCRATCH/505733/C1044-P78/C1044-P78.minimised.mol

>  <scratch_subdir>  (783) 
/opt/xchem-fragalysis-2/maxwin/BulkDock/SCRATCH/505733/C1044-P78

>  <fragmenstein_runtime>  (783) 
1.0416746139526367

>  <fragmenstein_outcome>  (783) 
too moved

>  <fragmenstein_mode>  (783) 
expansion

>  <fragmenstein_error>  (783) 


$$$$
C1044-P159
     RDKit          3D

 25 26  0  0  0  0  0  0  0  0999 V2000
    0.6864   -7.6306   38.7715 C   0  0  0  0  0  0  0  0  0  0  0  0
    0.3659   -6.1450   38.6486 C   0  0  0  0  0  0  0  0  0  0  0  0
    0.9687   -5.4234   39.7822 N   0  0  0  0  0  0  0  0  0  0  0  0
    0.8264   -5.6141   37.3351 C   0  0  0  0  0  0  0  0  0  0  0  0
    1.6497   -6.1303   36.4501 N   0  0  0  0  0  0  0  0  0  0  0  0
    1.4866   -5.2703   35.4012 C   0  0  0  0  0  0  0  0  0  0  0  0
    1.7861   -5.6747   34.0238 C   0  0  0  0  0  0  0  0  0  0  0  0
    0.6351   -6.4444   33.4833 C   0  0  0  0  0  0  0  0  0  0  0  0
   -0.1937   -7.2299   34.1557 N   0  0  0  0  0  0  0  0  0  0  0  0
   -1.0604   -7.7509   33.2365 C   0  0  0  0  0  0  0  0  0  0  0  0
   -0.6727   -7.3316   32.0041 C   0  0  0  0  0  0  0  0  0  0  0  0
   -1.0469   -7.7555   30.4446 Cl  0  0  0  0  0  0  0  0  0  0  0  0
    0.3136   -6.4239   32.1587 N   0  0  0  0  0  0  0  0  0  0  0  0
    0.7764   -4.1699   35.6593 N   0  0  0  0  0  0  0  0  0  0  0  0
    0.2680   -4.4357   36.9330 O   0  0  0  0  0  0  0  0  0  0  0  0
    0.2616   -8.1962   37.9344 H   0  0  0  0  0  0  0  0  0  0  0  0
    0.2739   -8.0475   39.6972 H   0  0  0  0  0  0  0  0  0  0  0  0
    1.7676   -7.8149   38.7733 H   0  0  0  0  0  0  0  0  0  0  0  0
   -0.7222   -6.0235   38.7085 H   0  0  0  0  0  0  0  0  0  0  0  0
    0.6045   -5.8108   40.6515 H   0  0  0  0  0  0  0  0  0  0  0  0
    0.6622   -4.4514   39.7528 H   0  0  0  0  0  0  0  0  0  0  0  0
    2.6809   -6.3011   34.0232 H   0  0  0  0  0  0  0  0  0  0  0  0
    1.9994   -4.7987   33.4004 H   0  0  0  0  0  0  0  0  0  0  0  0
   -1.8377   -8.4510   33.5119 H   0  0  0  0  0  0  0  0  0  0  0  0
    0.7846   -5.9180   31.4214 H   0  0  0  0  0  0  0  0  0  0  0  0
  1  2  1  0
  2  3  1  0
  2  4  1  0
  4  5  2  0
  5  6  1  0
  6  7  1  0
  7  8  1  0
  8  9  2  0
  9 10  1  0
 10 11  2  0
 11 12  1  0
 11 13  1  0
  6 14  2  0
 14 15  1  0
 15  4  1  0
 13  8  1  0
  1 16  1  0
  1 17  1  0
  1 18  1  0
  2 19  1  0
  3 20  1  0
  3 21  1  0
  7 22  1  0
  7 23  1  0
 10 24  1  0
 13 25  1  0
M  END
>  <Energy>  (784) 
59.15209451252062

>  <compound_id>  (784) 
1044

>  <target_id>  (784) 
1

>  <reference_id>  (784) 
159

>  <inspiration_ids>  (784) 
[78, 159]

>  <energy_score>  (784) 
-22.196565202562624

>  <distance_score>  (784) 
1.632409197162432

>  <path>  (784) 
/opt/xchem-fragalysis-2/maxwin/BulkDock/SCRATCH/505733/C1044-P159/C1044-P159.minimised.mol

>  <scratch_subdir>  (784) 
/opt/xchem-fragalysis-2/maxwin/BulkDock/SCRATCH/505733/C1044-P159

>  <fragmenstein_runtime>  (784) 
1.137495517730713

>  <fragmenstein_outcome>  (784) 
too moved

>  <fragmenstein_mode>  (784) 
expansion

>  <fragmenstein_error>  (784) 


$$$$
C1045-P78
     RDKit          3D

 22 22  0  0  0  0  0  0  0  0999 V2000
   -1.0318   -8.0219   35.3085 C   0  0  0  0  0  0  0  0  0  0  0  0
   -1.5869   -7.6870   34.0036 N   0  0  0  0  0  0  0  0  0  0  0  0
   -0.6324   -7.0797   33.1350 N   0  0  0  0  0  0  0  0  0  0  0  0
   -0.5119   -7.4247   31.8149 C   0  0  0  0  0  0  0  0  0  0  0  0
    0.3559   -6.6751   31.1853 N   0  0  0  0  0  0  0  0  0  0  0  0
    0.8148   -5.8074   32.1348 C   0  0  0  0  0  0  0  0  0  0  0  0
    0.2354   -6.0341   33.3722 C   0  0  0  0  0  0  0  0  0  0  0  0
    0.4589   -5.3171   34.6466 C   0  0  0  0  0  0  0  0  0  0  0  0
   -0.7882   -4.7431   35.2825 C   0  0  0  0  0  0  0  0  0  0  0  0
    1.1871   -6.1484   35.5196 O   0  0  0  0  0  0  0  0  0  0  0  0
    1.3569   -4.2525   34.3667 O   0  0  0  0  0  0  0  0  0  0  0  0
   -1.7515   -8.6422   35.8507 H   0  0  0  0  0  0  0  0  0  0  0  0
   -0.9032   -7.1822   35.9846 H   0  0  0  0  0  0  0  0  0  0  0  0
   -0.0790   -8.5542   35.2455 H   0  0  0  0  0  0  0  0  0  0  0  0
   -1.8944   -8.5819   33.6174 H   0  0  0  0  0  0  0  0  0  0  0  0
   -1.0791   -8.2298   31.3746 H   0  0  0  0  0  0  0  0  0  0  0  0
    1.5478   -5.0480   31.8873 H   0  0  0  0  0  0  0  0  0  0  0  0
   -0.5519   -4.3289   36.2705 H   0  0  0  0  0  0  0  0  0  0  0  0
   -1.1705   -3.9104   34.6806 H   0  0  0  0  0  0  0  0  0  0  0  0
   -1.6058   -5.4410   35.4353 H   0  0  0  0  0  0  0  0  0  0  0  0
    2.0195   -6.3019   35.0424 H   0  0  0  0  0  0  0  0  0  0  0  0
    1.2574   -3.6140   35.0918 H   0  0  0  0  0  0  0  0  0  0  0  0
  1  2  1  0
  2  3  1  0
  3  4  1  0
  4  5  2  0
  5  6  1  0
  6  7  2  0
  7  8  1  0
  8  9  1  0
  8 10  1  0
  8 11  1  0
  7  3  1  0
  1 12  1  0
  1 13  1  0
  1 14  1  0
  2 15  1  0
  4 16  1  0
  6 17  1  0
  9 18  1  0
  9 19  1  0
  9 20  1  0
 10 21  1  0
 11 22  1  0
M  END
>  <Energy>  (785) 
-58.381525253241691

>  <compound_id>  (785) 
1045

>  <target_id>  (785) 
1

>  <reference_id>  (785) 
78

>  <inspiration_ids>  (785) 
[78, 162]

>  <energy_score>  (785) 
-20.456638979720793

>  <distance_score>  (785) 
2.1201898772614918

>  <path>  (785) 
/opt/xchem-fragalysis-2/maxwin/BulkDock/SCRATCH/505733/C1045-P78/C1045-P78.minimised.mol

>  <scratch_subdir>  (785) 
/opt/xchem-fragalysis-2/maxwin/BulkDock/SCRATCH/505733/C1045-P78

>  <fragmenstein_runtime>  (785) 
2.52533221244812

>  <fragmenstein_outcome>  (785) 
too moved

>  <fragmenstein_mode>  (785) 
expansion

>  <fragmenstein_error>  (785) 


$$$$
C1045-P162
     RDKit          3D

 22 22  0  0  0  0  0  0  0  0999 V2000
   -1.5021   -8.4741   32.2415 C   0  0  0  0  0  0  0  0  0  0  0  0
   -1.4619   -7.0811   32.5749 N   0  0  0  0  0  0  0  0  0  0  0  0
   -0.1670   -6.5826   32.6291 N   0  0  0  0  0  0  0  0  0  0  0  0
    0.5926   -6.2956   31.5330 C   0  0  0  0  0  0  0  0  0  0  0  0
    1.7169   -5.7182   31.8712 N   0  0  0  0  0  0  0  0  0  0  0  0
    1.6464   -5.5870   33.2328 C   0  0  0  0  0  0  0  0  0  0  0  0
    0.4853   -6.1364   33.7461 C   0  0  0  0  0  0  0  0  0  0  0  0
    0.0192   -6.2172   35.1505 C   0  0  0  0  0  0  0  0  0  0  0  0
   -0.7918   -7.4386   35.5383 C   0  0  0  0  0  0  0  0  0  0  0  0
    1.2008   -6.1970   35.9379 O   0  0  0  0  0  0  0  0  0  0  0  0
   -0.6724   -5.0258   35.4481 O   0  0  0  0  0  0  0  0  0  0  0  0
   -0.9313   -8.7205   31.3429 H   0  0  0  0  0  0  0  0  0  0  0  0
   -2.5334   -8.7595   32.0506 H   0  0  0  0  0  0  0  0  0  0  0  0
   -1.1503   -9.0374   33.0903 H   0  0  0  0  0  0  0  0  0  0  0  0
   -2.0229   -6.5666   31.9101 H   0  0  0  0  0  0  0  0  0  0  0  0
    0.2819   -6.5242   30.5236 H   0  0  0  0  0  0  0  0  0  0  0  0
    2.4390   -5.1075   33.7955 H   0  0  0  0  0  0  0  0  0  0  0  0
   -0.2769   -8.3621   35.2634 H   0  0  0  0  0  0  0  0  0  0  0  0
   -0.9213   -7.4673   36.6259 H   0  0  0  0  0  0  0  0  0  0  0  0
   -1.7965   -7.4390   35.1109 H   0  0  0  0  0  0  0  0  0  0  0  0
    0.8716   -6.0021   36.8312 H   0  0  0  0  0  0  0  0  0  0  0  0
   -1.4770   -4.9997   34.8925 H   0  0  0  0  0  0  0  0  0  0  0  0
  1  2  1  0
  2  3  1  0
  3  4  1  0
  4  5  2  0
  5  6  1  0
  6  7  2  0
  7  8  1  0
  8  9  1  0
  8 10  1  0
  8 11  1  0
  7  3  1  0
  1 12  1  0
  1 13  1  0
  1 14  1  0
  2 15  1  0
  4 16  1  0
  6 17  1  0
  9 18  1  0
  9 19  1  0
  9 20  1  0
 10 21  1  0
 11 22  1  0
M  END
>  <Energy>  (786) 
-60.999013256569768

>  <compound_id>  (786) 
1045

>  <target_id>  (786) 
1

>  <reference_id>  (786) 
162

>  <inspiration_ids>  (786) 
[78, 162]

>  <energy_score>  (786) 
-23.074126983048714

>  <distance_score>  (786) 
1.6983000192817792

>  <path>  (786) 
/opt/xchem-fragalysis-2/maxwin/BulkDock/SCRATCH/505733/C1045-P162/C1045-P162.minimised.mol

>  <scratch_subdir>  (786) 
/opt/xchem-fragalysis-2/maxwin/BulkDock/SCRATCH/505733/C1045-P162

>  <fragmenstein_runtime>  (786) 
2.614570140838623

>  <fragmenstein_outcome>  (786) 
too moved

>  <fragmenstein_mode>  (786) 
expansion

>  <fragmenstein_error>  (786) 


$$$$
C1047-P78
     RDKit          3D

 26 27  0  0  0  0  0  0  0  0999 V2000
    0.1838   -7.5011   36.0860 O   0  0  0  0  0  0  0  0  0  0  0  0
   -0.1318   -6.5730   36.8374 C   0  0  0  0  0  0  0  0  0  0  0  0
   -0.6339   -5.2765   36.2509 C   0  0  0  0  0  0  0  0  0  0  0  0
    0.5205   -4.5360   35.7003 C   0  0  0  0  0  0  0  0  0  0  0  0
    0.8180   -3.1947   35.6825 C   0  0  0  0  0  0  0  0  0  0  0  0
    2.0261   -2.9722   35.0732 N   0  0  0  0  0  0  0  0  0  0  0  0
    2.4621   -4.1590   34.7200 C   0  0  0  0  0  0  0  0  0  0  0  0
    1.5806   -5.1389   35.0645 N   0  0  0  0  0  0  0  0  0  0  0  0
   -0.0232   -6.6506   38.3542 C   0  0  0  0  0  0  0  0  0  0  0  0
    0.7034   -7.9243   38.7897 C   0  0  0  0  0  0  0  0  0  0  0  0
    0.6029   -8.1300   40.2087 O   0  0  0  0  0  0  0  0  0  0  0  0
    0.4482   -6.9059   40.9408 C   0  0  0  0  0  0  0  0  0  0  0  0
    1.1111   -5.7231   40.2331 C   0  0  0  0  0  0  0  0  0  0  0  0
    0.5858   -5.4881   38.9173 O   0  0  0  0  0  0  0  0  0  0  0  0
   -1.1644   -4.6978   37.0134 H   0  0  0  0  0  0  0  0  0  0  0  0
   -1.3540   -5.5141   35.4619 H   0  0  0  0  0  0  0  0  0  0  0  0
    0.2329   -2.3748   36.0800 H   0  0  0  0  0  0  0  0  0  0  0  0
    3.3960   -4.3661   34.2150 H   0  0  0  0  0  0  0  0  0  0  0  0
    1.6915   -6.1327   34.9001 H   0  0  0  0  0  0  0  0  0  0  0  0
   -1.0458   -6.6592   38.7334 H   0  0  0  0  0  0  0  0  0  0  0  0
    1.7697   -7.8699   38.5395 H   0  0  0  0  0  0  0  0  0  0  0  0
    0.2950   -8.8170   38.3054 H   0  0  0  0  0  0  0  0  0  0  0  0
    0.8795   -7.0530   41.9354 H   0  0  0  0  0  0  0  0  0  0  0  0
   -0.6261   -6.7278   41.0637 H   0  0  0  0  0  0  0  0  0  0  0  0
    2.1859   -5.9055   40.1215 H   0  0  0  0  0  0  0  0  0  0  0  0
    0.9847   -4.8040   40.8130 H   0  0  0  0  0  0  0  0  0  0  0  0
  1  2  2  0
  2  3  1  0
  3  4  1  0
  4  5  2  0
  5  6  1  0
  6  7  2  0
  7  8  1  0
  2  9  1  0
  9 10  1  0
 10 11  1  0
 11 12  1  0
 12 13  1  0
 13 14  1  0
  8  4  1  0
 14  9  1  0
  3 15  1  0
  3 16  1  0
  5 17  1  0
  7 18  1  0
  8 19  1  0
  9 20  1  0
 10 21  1  0
 10 22  1  0
 12 23  1  0
 12 24  1  0
 13 25  1  0
 13 26  1  0
M  END
>  <Energy>  (787) 
90.570792681815277

>  <compound_id>  (787) 
1047

>  <target_id>  (787) 
1

>  <reference_id>  (787) 
78

>  <inspiration_ids>  (787) 
[78, 164]

>  <energy_score>  (787) 
-25.364877771405304

>  <distance_score>  (787) 
1.1576403381837352

>  <path>  (787) 
/opt/xchem-fragalysis-2/maxwin/BulkDock/SCRATCH/505733/C1047-P78/C1047-P78.minimised.mol

>  <scratch_subdir>  (787) 
/opt/xchem-fragalysis-2/maxwin/BulkDock/SCRATCH/505733/C1047-P78

>  <fragmenstein_runtime>  (787) 
2.6586506366729736

>  <fragmenstein_outcome>  (787) 
too moved

>  <fragmenstein_mode>  (787) 
expansion

>  <fragmenstein_error>  (787) 


$$$$
C1047-P164
     RDKit          3D

 26 27  0  0  0  0  0  0  0  0999 V2000
    0.4187   -7.5629   36.1642 O   0  0  0  0  0  0  0  0  0  0  0  0
   -0.0146   -6.6307   36.8496 C   0  0  0  0  0  0  0  0  0  0  0  0
   -0.6305   -5.4351   36.1651 C   0  0  0  0  0  0  0  0  0  0  0  0
    0.4556   -4.6024   35.6051 C   0  0  0  0  0  0  0  0  0  0  0  0
    0.5780   -3.2408   35.4653 C   0  0  0  0  0  0  0  0  0  0  0  0
    1.7850   -2.9161   34.9004 N   0  0  0  0  0  0  0  0  0  0  0  0
    2.3948   -4.0611   34.6994 C   0  0  0  0  0  0  0  0  0  0  0  0
    1.6257   -5.1138   35.0946 N   0  0  0  0  0  0  0  0  0  0  0  0
    0.0584   -6.5902   38.3713 C   0  0  0  0  0  0  0  0  0  0  0  0
    0.8790   -7.7517   38.9274 C   0  0  0  0  0  0  0  0  0  0  0  0
    0.7628   -7.8475   40.3563 O   0  0  0  0  0  0  0  0  0  0  0  0
    0.4484   -6.5982   40.9797 C   0  0  0  0  0  0  0  0  0  0  0  0
    1.0274   -5.4150   40.2043 C   0  0  0  0  0  0  0  0  0  0  0  0
    0.5479   -5.3365   38.8523 O   0  0  0  0  0  0  0  0  0  0  0  0
   -1.2526   -4.8749   36.8699 H   0  0  0  0  0  0  0  0  0  0  0  0
   -1.2854   -5.8018   35.3686 H   0  0  0  0  0  0  0  0  0  0  0  0
   -0.1348   -2.4744   35.7430 H   0  0  0  0  0  0  0  0  0  0  0  0
    3.3806   -4.1869   34.2725 H   0  0  0  0  0  0  0  0  0  0  0  0
    1.8765   -6.0940   35.0415 H   0  0  0  0  0  0  0  0  0  0  0  0
   -0.9694   -6.6615   38.7269 H   0  0  0  0  0  0  0  0  0  0  0  0
    1.9423   -7.6271   38.6913 H   0  0  0  0  0  0  0  0  0  0  0  0
    0.5566   -8.7054   38.5106 H   0  0  0  0  0  0  0  0  0  0  0  0
    0.8430   -6.6221   41.9999 H   0  0  0  0  0  0  0  0  0  0  0  0
   -0.6429   -6.5219   41.0443 H   0  0  0  0  0  0  0  0  0  0  0  0
    2.1188   -5.4977   40.1518 H   0  0  0  0  0  0  0  0  0  0  0  0
    0.7853   -4.4704   40.7002 H   0  0  0  0  0  0  0  0  0  0  0  0
  1  2  2  0
  2  3  1  0
  3  4  1  0
  4  5  2  0
  5  6  1  0
  6  7  2  0
  7  8  1  0
  2  9  1  0
  9 10  1  0
 10 11  1  0
 11 12  1  0
 12 13  1  0
 13 14  1  0
  8  4  1  0
 14  9  1  0
  3 15  1  0
  3 16  1  0
  5 17  1  0
  7 18  1  0
  8 19  1  0
  9 20  1  0
 10 21  1  0
 10 22  1  0
 12 23  1  0
 12 24  1  0
 13 25  1  0
 13 26  1  0
M  END
>  <Energy>  (788) 
90.957386299013493

>  <compound_id>  (788) 
1047

>  <target_id>  (788) 
1

>  <reference_id>  (788) 
164

>  <inspiration_ids>  (788) 
[78, 164]

>  <energy_score>  (788) 
-24.978284154206914

>  <distance_score>  (788) 
1.2019797592052923

>  <path>  (788) 
/opt/xchem-fragalysis-2/maxwin/BulkDock/SCRATCH/505733/C1047-P164/C1047-P164.minimised.mol

>  <scratch_subdir>  (788) 
/opt/xchem-fragalysis-2/maxwin/BulkDock/SCRATCH/505733/C1047-P164

>  <fragmenstein_runtime>  (788) 
2.059880256652832

>  <fragmenstein_outcome>  (788) 
too moved

>  <fragmenstein_mode>  (788) 
expansion

>  <fragmenstein_error>  (788) 


$$$$
C1052-P78
     RDKit          3D

 27 27  0  0  0  0  0  0  0  0999 V2000
    1.6440   -0.9137   29.5103 C   0  0  0  0  0  0  0  0  0  0  0  0
    0.7860   -1.9442   28.9754 N   0  0  0  0  0  0  0  0  0  0  0  0
   -0.4349   -1.5595   28.2965 C   0  0  0  0  0  0  0  0  0  0  0  0
    1.1241   -3.2752   29.1091 C   0  0  0  0  0  0  0  0  0  0  0  0
    1.7970   -3.8848   28.2833 O   0  0  0  0  0  0  0  0  0  0  0  0
    0.5115   -3.9100   30.3387 C   0  0  0  0  0  0  0  0  0  0  0  0
    1.0705   -5.3037   30.5903 C   0  0  0  0  0  0  0  0  0  0  0  0
    0.5060   -5.9031   31.8279 C   0  0  0  0  0  0  0  0  0  0  0  0
    1.0040   -5.5376   33.0636 N   0  0  0  0  0  0  0  0  0  0  0  0
    0.2615   -6.1823   33.9405 C   0  0  0  0  0  0  0  0  0  0  0  0
   -0.6721   -6.9716   33.3315 N   0  0  0  0  0  0  0  0  0  0  0  0
   -1.6463   -7.7634   33.9678 N   0  0  0  0  0  0  0  0  0  0  0  0
   -0.5162   -6.8124   31.9869 C   0  0  0  0  0  0  0  0  0  0  0  0
   -1.2347   -7.4052   31.0268 F   0  0  0  0  0  0  0  0  0  0  0  0
    2.5219   -1.3578   29.9887 H   0  0  0  0  0  0  0  0  0  0  0  0
    1.0845   -0.3322   30.2483 H   0  0  0  0  0  0  0  0  0  0  0  0
    1.9678   -0.2616   28.6944 H   0  0  0  0  0  0  0  0  0  0  0  0
   -1.0732   -1.0190   29.0013 H   0  0  0  0  0  0  0  0  0  0  0  0
   -0.9666   -2.4447   27.9425 H   0  0  0  0  0  0  0  0  0  0  0  0
   -0.1863   -0.9068   27.4570 H   0  0  0  0  0  0  0  0  0  0  0  0
   -0.5750   -3.9562   30.1968 H   0  0  0  0  0  0  0  0  0  0  0  0
    0.7073   -3.2627   31.2025 H   0  0  0  0  0  0  0  0  0  0  0  0
    0.8648   -5.9604   29.7417 H   0  0  0  0  0  0  0  0  0  0  0  0
    2.1630   -5.2576   30.6830 H   0  0  0  0  0  0  0  0  0  0  0  0
    0.3490   -6.1104   35.0159 H   0  0  0  0  0  0  0  0  0  0  0  0
   -1.3171   -8.7119   34.1816 H   0  0  0  0  0  0  0  0  0  0  0  0
   -1.9224   -7.3805   34.8730 H   0  0  0  0  0  0  0  0  0  0  0  0
  1  2  1  0
  2  3  1  0
  2  4  1  0
  4  5  2  0
  4  6  1  0
  6  7  1  0
  7  8  1  0
  8  9  1  0
  9 10  2  0
 10 11  1  0
 11 12  1  0
 11 13  1  0
 13 14  1  0
 13  8  2  0
  1 15  1  0
  1 16  1  0
  1 17  1  0
  3 18  1  0
  3 19  1  0
  3 20  1  0
  6 21  1  0
  6 22  1  0
  7 23  1  0
  7 24  1  0
 10 25  1  0
 12 26  1  0
 12 27  1  0
M  END
>  <Energy>  (789) 
10.552301872030256

>  <compound_id>  (789) 
1052

>  <target_id>  (789) 
1

>  <reference_id>  (789) 
78

>  <inspiration_ids>  (789) 
[78, 188]

>  <energy_score>  (789) 
-7.268663009605433

>  <distance_score>  (789) 
2.476703844347335

>  <path>  (789) 
/opt/xchem-fragalysis-2/maxwin/BulkDock/SCRATCH/505733/C1052-P78/C1052-P78.minimised.mol

>  <scratch_subdir>  (789) 
/opt/xchem-fragalysis-2/maxwin/BulkDock/SCRATCH/505733/C1052-P78

>  <fragmenstein_runtime>  (789) 
4.316255569458008

>  <fragmenstein_outcome>  (789) 
too moved

>  <fragmenstein_mode>  (789) 
expansion

>  <fragmenstein_error>  (789) 


$$$$
C1052-P188
     RDKit          3D

 27 27  0  0  0  0  0  0  0  0999 V2000
    1.5276   -0.7521   29.5964 C   0  0  0  0  0  0  0  0  0  0  0  0
    0.6534   -1.7702   29.0643 N   0  0  0  0  0  0  0  0  0  0  0  0
   -0.6039   -1.3732   28.4629 C   0  0  0  0  0  0  0  0  0  0  0  0
    1.0140   -3.1009   29.1295 C   0  0  0  0  0  0  0  0  0  0  0  0
    1.6516   -3.6738   28.2515 O   0  0  0  0  0  0  0  0  0  0  0  0
    0.4459   -3.7955   30.3451 C   0  0  0  0  0  0  0  0  0  0  0  0
    1.0526   -5.1793   30.5375 C   0  0  0  0  0  0  0  0  0  0  0  0
    0.4763   -5.8484   31.7317 C   0  0  0  0  0  0  0  0  0  0  0  0
    0.8709   -5.4750   33.0028 N   0  0  0  0  0  0  0  0  0  0  0  0
    0.1025   -6.1675   33.8213 C   0  0  0  0  0  0  0  0  0  0  0  0
   -0.7264   -7.0090   33.1392 N   0  0  0  0  0  0  0  0  0  0  0  0
   -1.6961   -7.8596   33.6814 N   0  0  0  0  0  0  0  0  0  0  0  0
   -0.4919   -6.8215   31.8127 C   0  0  0  0  0  0  0  0  0  0  0  0
   -1.1199   -7.4424   30.8087 F   0  0  0  0  0  0  0  0  0  0  0  0
    1.8042   -0.0651   28.7919 H   0  0  0  0  0  0  0  0  0  0  0  0
    2.4324   -1.2045   30.0130 H   0  0  0  0  0  0  0  0  0  0  0  0
    1.0004   -0.2062   30.3837 H   0  0  0  0  0  0  0  0  0  0  0  0
   -1.2050   -0.8570   29.2172 H   0  0  0  0  0  0  0  0  0  0  0  0
   -1.1535   -2.2495   28.1130 H   0  0  0  0  0  0  0  0  0  0  0  0
   -0.4049   -0.6933   27.6321 H   0  0  0  0  0  0  0  0  0  0  0  0
   -0.6411   -3.8710   30.2181 H   0  0  0  0  0  0  0  0  0  0  0  0
    0.6352   -3.1733   31.2288 H   0  0  0  0  0  0  0  0  0  0  0  0
    0.8865   -5.8007   29.6520 H   0  0  0  0  0  0  0  0  0  0  0  0
    2.1399   -5.0984   30.6582 H   0  0  0  0  0  0  0  0  0  0  0  0
    0.0921   -6.0954   34.9002 H   0  0  0  0  0  0  0  0  0  0  0  0
   -2.1719   -8.4051   32.9622 H   0  0  0  0  0  0  0  0  0  0  0  0
   -1.3192   -8.5722   34.3173 H   0  0  0  0  0  0  0  0  0  0  0  0
  1  2  1  0
  2  3  1  0
  2  4  1  0
  4  5  2  0
  4  6  1  0
  6  7  1  0
  7  8  1  0
  8  9  1  0
  9 10  2  0
 10 11  1  0
 11 12  1  0
 11 13  1  0
 13 14  1  0
 13  8  2  0
  1 15  1  0
  1 16  1  0
  1 17  1  0
  3 18  1  0
  3 19  1  0
  3 20  1  0
  6 21  1  0
  6 22  1  0
  7 23  1  0
  7 24  1  0
 10 25  1  0
 12 26  1  0
 12 27  1  0
M  END
>  <Energy>  (790) 
8.8655530840899743

>  <compound_id>  (790) 
1052

>  <target_id>  (790) 
1

>  <reference_id>  (790) 
188

>  <inspiration_ids>  (790) 
[78, 188]

>  <energy_score>  (790) 
-8.955411797545992

>  <distance_score>  (790) 
2.3347466617543033

>  <path>  (790) 
/opt/xchem-fragalysis-2/maxwin/BulkDock/SCRATCH/505733/C1052-P188/C1052-P188.minimised.mol

>  <scratch_subdir>  (790) 
/opt/xchem-fragalysis-2/maxwin/BulkDock/SCRATCH/505733/C1052-P188

>  <fragmenstein_runtime>  (790) 
3.798215389251709

>  <fragmenstein_outcome>  (790) 
too moved

>  <fragmenstein_mode>  (790) 
expansion

>  <fragmenstein_error>  (790) 


$$$$
C1055-P78
     RDKit          3D

 26 27  0  0  0  0  0  0  0  0999 V2000
   -0.1102   -5.3413   36.7376 C   0  0  0  0  0  0  0  0  0  0  0  0
    0.3857   -4.2717   35.7606 C   0  0  0  0  0  0  0  0  0  0  0  0
    0.8312   -4.7893   34.4722 N   0  0  0  0  0  0  0  0  0  0  0  0
   -0.0511   -4.8744   33.3564 N   0  0  0  0  0  0  0  0  0  0  0  0
    0.0695   -6.2441   32.8637 C   0  0  0  0  0  0  0  0  0  0  0  0
    1.4452   -6.7026   33.3497 C   0  0  0  0  0  0  0  0  0  0  0  0
    1.8103   -5.7605   34.4349 C   0  0  0  0  0  0  0  0  0  0  0  0
    2.7815   -5.8970   35.1583 O   0  0  0  0  0  0  0  0  0  0  0  0
   -1.0458   -6.9472   33.5014 N   0  0  0  0  0  0  0  0  0  0  0  0
   -1.2590   -8.1174   32.6968 C   0  0  0  0  0  0  0  0  0  0  0  0
   -1.0218   -7.7756   31.3125 N   0  0  0  0  0  0  0  0  0  0  0  0
   -0.1245   -6.6355   31.3594 C   0  0  0  0  0  0  0  0  0  0  0  0
   -0.6336   -5.6589   30.5976 F   0  0  0  0  0  0  0  0  0  0  0  0
    1.0300   -7.0114   30.7652 F   0  0  0  0  0  0  0  0  0  0  0  0
    0.6625   -6.0858   36.9508 H   0  0  0  0  0  0  0  0  0  0  0  0
   -0.4050   -4.8767   37.6837 H   0  0  0  0  0  0  0  0  0  0  0  0
   -0.9817   -5.8634   36.3319 H   0  0  0  0  0  0  0  0  0  0  0  0
   -0.3955   -3.5241   35.5839 H   0  0  0  0  0  0  0  0  0  0  0  0
    1.2421   -3.7575   36.2121 H   0  0  0  0  0  0  0  0  0  0  0  0
    0.2643   -4.2142   32.6415 H   0  0  0  0  0  0  0  0  0  0  0  0
    1.4106   -7.7005   33.7860 H   0  0  0  0  0  0  0  0  0  0  0  0
    2.2233   -6.6117   32.5892 H   0  0  0  0  0  0  0  0  0  0  0  0
   -0.8415   -7.1855   34.4663 H   0  0  0  0  0  0  0  0  0  0  0  0
   -2.2584   -8.5270   32.8341 H   0  0  0  0  0  0  0  0  0  0  0  0
   -0.5341   -8.8614   32.9930 H   0  0  0  0  0  0  0  0  0  0  0  0
   -0.4958   -8.5216   30.8620 H   0  0  0  0  0  0  0  0  0  0  0  0
  1  2  1  0
  2  3  1  0
  3  4  1  0
  4  5  1  0
  5  6  1  0
  6  7  1  0
  7  8  2  0
  5  9  1  0
  9 10  1  0
 10 11  1  0
 11 12  1  0
 12 13  1  0
 12 14  1  0
  7  3  1  0
 12  5  1  0
  1 15  1  0
  1 16  1  0
  1 17  1  0
  2 18  1  0
  2 19  1  0
  4 20  1  0
  6 21  1  0
  6 22  1  0
  9 23  1  0
 10 24  1  0
 10 25  1  0
 11 26  1  0
M  END
>  <Energy>  (791) 
20.912036439373622

>  <compound_id>  (791) 
1055

>  <target_id>  (791) 
1

>  <reference_id>  (791) 
78

>  <inspiration_ids>  (791) 
[78, 194]

>  <energy_score>  (791) 
-20.213776254317764

>  <distance_score>  (791) 
1.7983809106195343

>  <path>  (791) 
/opt/xchem-fragalysis-2/maxwin/BulkDock/SCRATCH/505733/C1055-P78/C1055-P78.minimised.mol

>  <scratch_subdir>  (791) 
/opt/xchem-fragalysis-2/maxwin/BulkDock/SCRATCH/505733/C1055-P78

>  <fragmenstein_runtime>  (791) 
1.7752094268798828

>  <fragmenstein_outcome>  (791) 
too moved

>  <fragmenstein_mode>  (791) 
expansion

>  <fragmenstein_error>  (791) 


$$$$
C1055-P194
     RDKit          3D

 26 27  0  0  0  0  0  0  0  0999 V2000
    0.2676   -6.2018   36.9837 C   0  0  0  0  0  0  0  0  0  0  0  0
    0.3606   -4.9082   36.1880 C   0  0  0  0  0  0  0  0  0  0  0  0
    0.6841   -5.1106   34.7837 N   0  0  0  0  0  0  0  0  0  0  0  0
   -0.3256   -5.3301   33.8125 N   0  0  0  0  0  0  0  0  0  0  0  0
    0.3064   -6.2290   32.8301 C   0  0  0  0  0  0  0  0  0  0  0  0
    1.7667   -5.8400   32.8839 C   0  0  0  0  0  0  0  0  0  0  0  0
    1.9448   -5.4492   34.3128 C   0  0  0  0  0  0  0  0  0  0  0  0
    3.0120   -5.4372   34.8999 O   0  0  0  0  0  0  0  0  0  0  0  0
   -0.0074   -7.5587   33.3496 N   0  0  0  0  0  0  0  0  0  0  0  0
   -1.0925   -8.0584   32.5123 C   0  0  0  0  0  0  0  0  0  0  0  0
   -1.4788   -7.0329   31.5684 N   0  0  0  0  0  0  0  0  0  0  0  0
   -0.2710   -6.2585   31.4064 C   0  0  0  0  0  0  0  0  0  0  0  0
    0.5240   -6.8651   30.5001 F   0  0  0  0  0  0  0  0  0  0  0  0
   -0.5727   -5.0243   30.9592 F   0  0  0  0  0  0  0  0  0  0  0  0
    0.0328   -5.9898   38.0312 H   0  0  0  0  0  0  0  0  0  0  0  0
   -0.5162   -6.8507   36.5811 H   0  0  0  0  0  0  0  0  0  0  0  0
    1.2105   -6.7567   36.9470 H   0  0  0  0  0  0  0  0  0  0  0  0
   -0.5820   -4.3531   36.2498 H   0  0  0  0  0  0  0  0  0  0  0  0
    1.1491   -4.2822   36.6207 H   0  0  0  0  0  0  0  0  0  0  0  0
   -0.5261   -4.4258   33.3697 H   0  0  0  0  0  0  0  0  0  0  0  0
    2.4276   -6.6641   32.6468 H   0  0  0  0  0  0  0  0  0  0  0  0
    1.9986   -4.9780   32.2492 H   0  0  0  0  0  0  0  0  0  0  0  0
   -0.3774   -7.4058   34.2893 H   0  0  0  0  0  0  0  0  0  0  0  0
   -1.9504   -8.3605   33.1173 H   0  0  0  0  0  0  0  0  0  0  0  0
   -0.7657   -8.9260   31.9394 H   0  0  0  0  0  0  0  0  0  0  0  0
   -2.1153   -6.4199   32.0711 H   0  0  0  0  0  0  0  0  0  0  0  0
  1  2  1  0
  2  3  1  0
  3  4  1  0
  4  5  1  0
  5  6  1  0
  6  7  1  0
  7  8  2  0
  5  9  1  0
  9 10  1  0
 10 11  1  0
 11 12  1  0
 12 13  1  0
 12 14  1  0
  7  3  1  0
 12  5  1  0
  1 15  1  0
  1 16  1  0
  1 17  1  0
  2 18  1  0
  2 19  1  0
  4 20  1  0
  6 21  1  0
  6 22  1  0
  9 23  1  0
 10 24  1  0
 10 25  1  0
 11 26  1  0
M  END
>  <Energy>  (792) 
8.1897886047904791

>  <compound_id>  (792) 
1055

>  <target_id>  (792) 
1

>  <reference_id>  (792) 
194

>  <inspiration_ids>  (792) 
[78, 194]

>  <energy_score>  (792) 
-32.93602408890144

>  <distance_score>  (792) 
1.7160071748725916

>  <path>  (792) 
/opt/xchem-fragalysis-2/maxwin/BulkDock/SCRATCH/505733/C1055-P194/C1055-P194.minimised.mol

>  <scratch_subdir>  (792) 
/opt/xchem-fragalysis-2/maxwin/BulkDock/SCRATCH/505733/C1055-P194

>  <fragmenstein_runtime>  (792) 
1.7837393283843994

>  <fragmenstein_outcome>  (792) 
too moved

>  <fragmenstein_mode>  (792) 
expansion

>  <fragmenstein_error>  (792) 


$$$$
C722-P80
     RDKit          3D

 40 42  0  0  0  0  0  0  0  0999 V2000
   16.8363    1.9421   13.9832 O   0  0  0  0  0  0  0  0  0  0  0  0
   16.3361    1.2506   14.7815 C   0  0  0  0  0  0  0  0  0  0  0  0
   16.4558    1.4934   16.2932 C   0  0  0  0  0  0  0  0  0  0  0  0
   15.2166    2.1809   16.7785 C   0  0  0  0  0  0  0  0  0  0  0  0
   14.9479    3.4900   17.1155 C   0  0  0  0  0  0  0  0  0  0  0  0
   13.5747    3.5051   17.4318 C   0  0  0  0  0  0  0  0  0  0  0  0
   13.0100    2.3042   17.2886 N   0  0  0  0  0  0  0  0  0  0  0  0
   14.0326    1.5184   16.9449 N   0  0  0  0  0  0  0  0  0  0  0  0
   15.3809    0.0353   14.6053 N   0  0  0  0  0  0  0  0  0  0  0  0
   14.7735   -0.5141   13.4175 C   0  0  0  0  0  0  0  0  0  0  0  0
   14.0000    0.5767   12.6731 C   0  0  0  0  0  0  0  0  0  0  0  0
   12.8352    1.1102   13.5030 C   0  0  0  0  0  0  0  0  0  0  0  0
   11.9069   -0.0021   13.9777 C   0  0  0  0  0  0  0  0  0  0  0  0
   12.5952   -1.2263   14.6231 C   0  0  0  0  0  0  0  0  0  0  0  0
   11.5747   -2.3650   14.8023 C   0  0  0  0  0  0  0  0  0  0  0  0
   11.8383   -2.9116   16.1301 N   0  0  0  0  0  0  0  0  0  0  0  0
   13.0340   -2.2850   16.6203 C   0  0  0  0  0  0  0  0  0  0  0  0
   12.9945   -0.9544   16.0369 N   0  0  0  0  0  0  0  0  0  0  0  0
   13.8302   -1.6711   13.7955 C   0  0  0  0  0  0  0  0  0  0  0  0
   17.3392    2.1161   16.4738 H   0  0  0  0  0  0  0  0  0  0  0  0
   16.6172    0.5447   16.8166 H   0  0  0  0  0  0  0  0  0  0  0  0
   15.6374    4.3222   17.1161 H   0  0  0  0  0  0  0  0  0  0  0  0
   12.9595    4.3381   17.7481 H   0  0  0  0  0  0  0  0  0  0  0  0
   13.8273    0.5377   16.7727 H   0  0  0  0  0  0  0  0  0  0  0  0
   15.0695   -0.2849   15.5134 H   0  0  0  0  0  0  0  0  0  0  0  0
   15.5869   -0.8789   12.7812 H   0  0  0  0  0  0  0  0  0  0  0  0
   14.6620    1.4094   12.4091 H   0  0  0  0  0  0  0  0  0  0  0  0
   13.6225    0.1734   11.7273 H   0  0  0  0  0  0  0  0  0  0  0  0
   12.2618    1.8253   12.9008 H   0  0  0  0  0  0  0  0  0  0  0  0
   13.2121    1.6738   14.3597 H   0  0  0  0  0  0  0  0  0  0  0  0
   11.1592    0.4241   14.6597 H   0  0  0  0  0  0  0  0  0  0  0  0
   11.3441   -0.3370   13.1038 H   0  0  0  0  0  0  0  0  0  0  0  0
   10.5448   -1.9975   14.8180 H   0  0  0  0  0  0  0  0  0  0  0  0
   11.6628   -3.1344   14.0292 H   0  0  0  0  0  0  0  0  0  0  0  0
   11.9446   -3.9241   16.0923 H   0  0  0  0  0  0  0  0  0  0  0  0
   13.0471   -2.2416   17.7098 H   0  0  0  0  0  0  0  0  0  0  0  0
   13.9343   -2.8346   16.3263 H   0  0  0  0  0  0  0  0  0  0  0  0
   12.1648   -0.5243   16.4648 H   0  0  0  0  0  0  0  0  0  0  0  0
   13.4815   -2.1406   12.8664 H   0  0  0  0  0  0  0  0  0  0  0  0
   14.4221   -2.4271   14.3178 H   0  0  0  0  0  0  0  0  0  0  0  0
  1  2  2  0
  2  3  1  0
  3  4  1  0
  4  5  2  0
  5  6  1  0
  6  7  2  0
  7  8  1  0
  2  9  1  0
  9 10  1  0
 10 11  1  0
 11 12  1  0
 12 13  1  0
 13 14  1  0
 14 15  1  0
 15 16  1  0
 16 17  1  0
 17 18  1  0
 14 19  1  0
  8  4  1  0
 19 10  1  0
 18 14  1  0
  3 20  1  0
  3 21  1  0
  5 22  1  0
  6 23  1  0
  8 24  1  0
  9 25  1  0
 10 26  1  0
 11 27  1  0
 11 28  1  0
 12 29  1  0
 12 30  1  0
 13 31  1  0
 13 32  1  0
 15 33  1  0
 15 34  1  0
 16 35  1  0
 17 36  1  0
 17 37  1  0
 18 38  1  0
 19 39  1  0
 19 40  1  0
M  END
>  <Energy>  (793) 
11.973677265586943

>  <compound_id>  (793) 
722

>  <target_id>  (793) 
1

>  <reference_id>  (793) 
80

>  <inspiration_ids>  (793) 
[80, 5]

>  <energy_score>  (793) 
-18.640448883568837

>  <distance_score>  (793) 
2.953989212836588

>  <path>  (793) 
/opt/xchem-fragalysis-2/maxwin/BulkDock/SCRATCH/505733/C722-P80/C722-P80.minimised.mol

>  <scratch_subdir>  (793) 
/opt/xchem-fragalysis-2/maxwin/BulkDock/SCRATCH/505733/C722-P80

>  <fragmenstein_runtime>  (793) 
6.446276426315308

>  <fragmenstein_outcome>  (793) 
too moved

>  <fragmenstein_mode>  (793) 
expansion

>  <fragmenstein_error>  (793) 


$$$$
C722-P5
     RDKit          3D

 40 42  0  0  0  0  0  0  0  0999 V2000
   11.9730    2.6522   13.6794 O   0  0  0  0  0  0  0  0  0  0  0  0
   11.7660    2.2789   14.7679 C   0  0  0  0  0  0  0  0  0  0  0  0
   11.9404    3.1806   15.9941 C   0  0  0  0  0  0  0  0  0  0  0  0
   13.2100    2.9072   16.7258 C   0  0  0  0  0  0  0  0  0  0  0  0
   14.1242    3.7549   17.3159 C   0  0  0  0  0  0  0  0  0  0  0  0
   15.0614    2.9069   17.9299 C   0  0  0  0  0  0  0  0  0  0  0  0
   14.7836    1.6186   17.7269 N   0  0  0  0  0  0  0  0  0  0  0  0
   13.6794    1.6477   16.9720 N   0  0  0  0  0  0  0  0  0  0  0  0
   11.2553    0.8999   15.2813 N   0  0  0  0  0  0  0  0  0  0  0  0
   10.9871   -0.3295   14.5641 C   0  0  0  0  0  0  0  0  0  0  0  0
   10.4715   -1.4576   15.4483 C   0  0  0  0  0  0  0  0  0  0  0  0
   11.5773   -2.2281   16.1735 C   0  0  0  0  0  0  0  0  0  0  0  0
   12.6798   -2.7046   15.2635 C   0  0  0  0  0  0  0  0  0  0  0  0
   13.2853   -1.5274   14.5384 C   0  0  0  0  0  0  0  0  0  0  0  0
   14.4175   -1.9405   13.6220 C   0  0  0  0  0  0  0  0  0  0  0  0
   15.1223   -0.6840   13.4004 N   0  0  0  0  0  0  0  0  0  0  0  0
   14.9265    0.1033   14.6047 C   0  0  0  0  0  0  0  0  0  0  0  0
   13.9817   -0.6196   15.4576 N   0  0  0  0  0  0  0  0  0  0  0  0
   12.1795   -0.8177   13.7548 C   0  0  0  0  0  0  0  0  0  0  0  0
   11.0791    3.0635   16.6606 H   0  0  0  0  0  0  0  0  0  0  0  0
   11.9238    4.2206   15.6460 H   0  0  0  0  0  0  0  0  0  0  0  0
   14.0956    4.8350   17.3348 H   0  0  0  0  0  0  0  0  0  0  0  0
   15.9295    3.1730   18.5188 H   0  0  0  0  0  0  0  0  0  0  0  0
   13.3409    0.7598   16.5984 H   0  0  0  0  0  0  0  0  0  0  0  0
   11.1100    0.9440   16.2788 H   0  0  0  0  0  0  0  0  0  0  0  0
   10.1976   -0.0311   13.8673 H   0  0  0  0  0  0  0  0  0  0  0  0
    9.7283   -1.0606   16.1408 H   0  0  0  0  0  0  0  0  0  0  0  0
    9.9381   -2.1859   14.8290 H   0  0  0  0  0  0  0  0  0  0  0  0
   11.1773   -3.1358   16.6163 H   0  0  0  0  0  0  0  0  0  0  0  0
   12.0063   -1.6084   16.9644 H   0  0  0  0  0  0  0  0  0  0  0  0
   13.4303   -3.2518   15.8475 H   0  0  0  0  0  0  0  0  0  0  0  0
   12.2519   -3.4099   14.5427 H   0  0  0  0  0  0  0  0  0  0  0  0
   15.1135   -2.6359   14.1056 H   0  0  0  0  0  0  0  0  0  0  0  0
   14.0861   -2.3784   12.6757 H   0  0  0  0  0  0  0  0  0  0  0  0
   14.6852   -0.1820   12.6288 H   0  0  0  0  0  0  0  0  0  0  0  0
   15.8785    0.2500   15.1255 H   0  0  0  0  0  0  0  0  0  0  0  0
   14.5374    1.0930   14.3444 H   0  0  0  0  0  0  0  0  0  0  0  0
   14.5708   -1.1817   16.0792 H   0  0  0  0  0  0  0  0  0  0  0  0
   11.7997   -1.5605   13.0502 H   0  0  0  0  0  0  0  0  0  0  0  0
   12.5623    0.0087   13.1454 H   0  0  0  0  0  0  0  0  0  0  0  0
  1  2  2  0
  2  3  1  0
  3  4  1  0
  4  5  2  0
  5  6  1  0
  6  7  2  0
  7  8  1  0
  2  9  1  0
  9 10  1  0
 10 11  1  0
 11 12  1  0
 12 13  1  0
 13 14  1  0
 14 15  1  0
 15 16  1  0
 16 17  1  0
 17 18  1  0
 14 19  1  0
  8  4  1  0
 19 10  1  0
 18 14  1  0
  3 20  1  0
  3 21  1  0
  5 22  1  0
  6 23  1  0
  8 24  1  0
  9 25  1  0
 10 26  1  0
 11 27  1  0
 11 28  1  0
 12 29  1  0
 12 30  1  0
 13 31  1  0
 13 32  1  0
 15 33  1  0
 15 34  1  0
 16 35  1  0
 17 36  1  0
 17 37  1  0
 18 38  1  0
 19 39  1  0
 19 40  1  0
M  END
>  <Energy>  (794) 
14.753411538807956

>  <compound_id>  (794) 
722

>  <target_id>  (794) 
1

>  <reference_id>  (794) 
5

>  <inspiration_ids>  (794) 
[80, 5]

>  <energy_score>  (794) 
-15.860714610347628

>  <distance_score>  (794) 
2.4310982169495237

>  <path>  (794) 
/opt/xchem-fragalysis-2/maxwin/BulkDock/SCRATCH/505733/C722-P5/C722-P5.minimised.mol

>  <scratch_subdir>  (794) 
/opt/xchem-fragalysis-2/maxwin/BulkDock/SCRATCH/505733/C722-P5

>  <fragmenstein_runtime>  (794) 
5.138274192810059

>  <fragmenstein_outcome>  (794) 
too moved

>  <fragmenstein_mode>  (794) 
expansion

>  <fragmenstein_error>  (794) 


$$$$
C1065-P80
     RDKit          3D

 37 40  0  0  0  0  0  0  0  0999 V2000
   16.1717    1.8030   18.3394 C   0  0  0  0  0  0  0  0  0  0  0  0
   14.9263    2.1468   17.6730 N   0  0  0  0  0  0  0  0  0  0  0  0
   15.1264    3.0534   16.5624 N   0  0  0  0  0  0  0  0  0  0  0  0
   13.9050    2.9282   15.7586 C   0  0  0  0  0  0  0  0  0  0  0  0
   14.1360    2.7116   14.2349 C   0  0  0  0  0  0  0  0  0  0  0  0
   12.8986    3.1233   13.5341 N   0  0  0  0  0  0  0  0  0  0  0  0
   12.1351    3.9468   14.4971 C   0  0  0  0  0  0  0  0  0  0  0  0
   13.0330    4.2094   15.7103 C   0  0  0  0  0  0  0  0  0  0  0  0
   13.9849    5.7179   15.4511 Cl  0  0  0  0  0  0  0  0  0  0  0  0
   13.1541    1.7766   16.3482 N   0  0  0  0  0  0  0  0  0  0  0  0
   14.1217    1.0505   17.1644 C   0  0  0  0  0  0  0  0  0  0  0  0
   14.9980   -0.2069   16.1800 S   0  0  0  0  0  0  0  0  0  0  0  0
   13.9747   -1.5879   16.3414 C   0  0  0  0  0  0  0  0  0  0  0  0
   14.4044   -2.6642   17.0320 C   0  0  0  0  0  0  0  0  0  0  0  0
   13.5538   -3.8355   17.1428 C   0  0  0  0  0  0  0  0  0  0  0  0
   12.3402   -3.8704   16.5690 C   0  0  0  0  0  0  0  0  0  0  0  0
   11.8558   -2.7272   15.8925 C   0  0  0  0  0  0  0  0  0  0  0  0
   10.6751   -2.4247   15.4114 N   0  0  0  0  0  0  0  0  0  0  0  0
   10.7396   -1.1450   14.9304 N   0  0  0  0  0  0  0  0  0  0  0  0
   11.9838   -0.7487   15.0179 C   0  0  0  0  0  0  0  0  0  0  0  0
   12.7033   -1.6399   15.7603 N   0  0  0  0  0  0  0  0  0  0  0  0
   15.9892    1.0880   19.1492 H   0  0  0  0  0  0  0  0  0  0  0  0
   16.9252    1.3806   17.6656 H   0  0  0  0  0  0  0  0  0  0  0  0
   16.6082    2.6962   18.8010 H   0  0  0  0  0  0  0  0  0  0  0  0
   15.9167    2.7601   15.9817 H   0  0  0  0  0  0  0  0  0  0  0  0
   14.9557    3.3460   13.8750 H   0  0  0  0  0  0  0  0  0  0  0  0
   14.3999    1.6828   13.9734 H   0  0  0  0  0  0  0  0  0  0  0  0
   12.3435    2.2935   13.3129 H   0  0  0  0  0  0  0  0  0  0  0  0
   11.2525    3.3775   14.8146 H   0  0  0  0  0  0  0  0  0  0  0  0
   11.7731    4.8633   14.0203 H   0  0  0  0  0  0  0  0  0  0  0  0
   12.4519    4.3673   16.6246 H   0  0  0  0  0  0  0  0  0  0  0  0
   12.5417    2.2006   17.0456 H   0  0  0  0  0  0  0  0  0  0  0  0
   13.6180    0.5497   17.9974 H   0  0  0  0  0  0  0  0  0  0  0  0
   15.3826   -2.7058   17.5024 H   0  0  0  0  0  0  0  0  0  0  0  0
   13.9292   -4.6826   17.7027 H   0  0  0  0  0  0  0  0  0  0  0  0
   11.6993   -4.7371   16.6340 H   0  0  0  0  0  0  0  0  0  0  0  0
   12.3794    0.1630   14.6047 H   0  0  0  0  0  0  0  0  0  0  0  0
  1  2  1  0
  2  3  1  0
  3  4  1  0
  4  5  1  0
  5  6  1  0
  6  7  1  0
  7  8  1  0
  8  9  1  0
  4 10  1  0
 10 11  1  0
 11 12  1  0
 12 13  1  0
 13 14  2  0
 14 15  1  0
 15 16  2  0
 16 17  1  0
 17 18  2  0
 18 19  1  0
 19 20  2  0
 20 21  1  0
 11  2  1  0
 21 13  1  0
  8  4  1  0
 21 17  1  0
  1 22  1  0
  1 23  1  0
  1 24  1  0
  3 25  1  0
  5 26  1  0
  5 27  1  0
  6 28  1  0
  7 29  1  0
  7 30  1  0
  8 31  1  0
 10 32  1  0
 11 33  1  0
 14 34  1  0
 15 35  1  0
 16 36  1  0
 20 37  1  0
M  END
>  <Energy>  (795) 
95.096620669139483

>  <compound_id>  (795) 
1065

>  <target_id>  (795) 
1

>  <reference_id>  (795) 
80

>  <inspiration_ids>  (795) 
[80, 6]

>  <energy_score>  (795) 
-71.13255842733747

>  <distance_score>  (795) 
0.8821979497071216

>  <path>  (795) 
/opt/xchem-fragalysis-2/maxwin/BulkDock/SCRATCH/505733/C1065-P80/C1065-P80.minimised.mol

>  <scratch_subdir>  (795) 
/opt/xchem-fragalysis-2/maxwin/BulkDock/SCRATCH/505733/C1065-P80

>  <fragmenstein_runtime>  (795) 
5.127125024795532

>  <fragmenstein_outcome>  (795) 
acceptable

>  <fragmenstein_mode>  (795) 
expansion

>  <fragmenstein_error>  (795) 


$$$$
C1065-P6
     RDKit          3D

 37 40  0  0  0  0  0  0  0  0999 V2000
   15.3415    2.2996   18.4389 C   0  0  0  0  0  0  0  0  0  0  0  0
   14.3131    2.3800   17.4146 N   0  0  0  0  0  0  0  0  0  0  0  0
   14.7433    3.1277   16.2585 N   0  0  0  0  0  0  0  0  0  0  0  0
   13.7996    2.7442   15.2025 C   0  0  0  0  0  0  0  0  0  0  0  0
   14.4584    2.3893   13.8417 C   0  0  0  0  0  0  0  0  0  0  0  0
   13.4070    2.4937   12.8052 N   0  0  0  0  0  0  0  0  0  0  0  0
   12.3512    3.3570   13.3809 C   0  0  0  0  0  0  0  0  0  0  0  0
   12.8458    3.8753   14.7368 C   0  0  0  0  0  0  0  0  0  0  0  0
   13.6659    5.4653   14.5217 Cl  0  0  0  0  0  0  0  0  0  0  0  0
   13.0411    1.5704   15.7367 N   0  0  0  0  0  0  0  0  0  0  0  0
   13.7753    1.1296   16.9160 C   0  0  0  0  0  0  0  0  0  0  0  0
   14.9613   -0.1789   16.4842 S   0  0  0  0  0  0  0  0  0  0  0  0
   13.9426   -1.5751   16.5555 C   0  0  0  0  0  0  0  0  0  0  0  0
   14.0257   -2.4191   17.6023 C   0  0  0  0  0  0  0  0  0  0  0  0
   13.1608   -3.5823   17.6498 C   0  0  0  0  0  0  0  0  0  0  0  0
   12.2985   -3.8630   16.6581 C   0  0  0  0  0  0  0  0  0  0  0  0
   12.1972   -2.9821   15.5590 C   0  0  0  0  0  0  0  0  0  0  0  0
   11.4489   -3.0003   14.4843 N   0  0  0  0  0  0  0  0  0  0  0  0
   11.8380   -1.9434   13.7010 N   0  0  0  0  0  0  0  0  0  0  0  0
   12.7775   -1.2878   14.3311 C   0  0  0  0  0  0  0  0  0  0  0  0
   13.0383   -1.8797   15.5315 N   0  0  0  0  0  0  0  0  0  0  0  0
   14.9930    1.6993   19.2865 H   0  0  0  0  0  0  0  0  0  0  0  0
   16.2847    1.8760   18.0765 H   0  0  0  0  0  0  0  0  0  0  0  0
   15.5595    3.2999   18.8306 H   0  0  0  0  0  0  0  0  0  0  0  0
   15.6813    2.8448   15.9614 H   0  0  0  0  0  0  0  0  0  0  0  0
   15.2520    3.1060   13.5956 H   0  0  0  0  0  0  0  0  0  0  0  0
   14.9205    1.3973   13.8283 H   0  0  0  0  0  0  0  0  0  0  0  0
   13.0010    1.5678   12.6490 H   0  0  0  0  0  0  0  0  0  0  0  0
   11.4515    2.7470   13.5310 H   0  0  0  0  0  0  0  0  0  0  0  0
   12.0841    4.1569   12.6828 H   0  0  0  0  0  0  0  0  0  0  0  0
   12.0202    4.0511   15.4339 H   0  0  0  0  0  0  0  0  0  0  0  0
   12.1805    1.9577   16.1167 H   0  0  0  0  0  0  0  0  0  0  0  0
   13.0887    0.7186   17.6577 H   0  0  0  0  0  0  0  0  0  0  0  0
   14.7122   -2.2648   18.4298 H   0  0  0  0  0  0  0  0  0  0  0  0
   13.2042   -4.2052   18.5357 H   0  0  0  0  0  0  0  0  0  0  0  0
   11.6578   -4.7347   16.6827 H   0  0  0  0  0  0  0  0  0  0  0  0
   13.2966   -0.4225   13.9564 H   0  0  0  0  0  0  0  0  0  0  0  0
  1  2  1  0
  2  3  1  0
  3  4  1  0
  4  5  1  0
  5  6  1  0
  6  7  1  0
  7  8  1  0
  8  9  1  0
  4 10  1  0
 10 11  1  0
 11 12  1  0
 12 13  1  0
 13 14  2  0
 14 15  1  0
 15 16  2  0
 16 17  1  0
 17 18  2  0
 18 19  1  0
 19 20  2  0
 20 21  1  0
 11  2  1  0
 21 13  1  0
  8  4  1  0
 21 17  1  0
  1 22  1  0
  1 23  1  0
  1 24  1  0
  3 25  1  0
  5 26  1  0
  5 27  1  0
  6 28  1  0
  7 29  1  0
  7 30  1  0
  8 31  1  0
 10 32  1  0
 11 33  1  0
 14 34  1  0
 15 35  1  0
 16 36  1  0
 20 37  1  0
M  END
>  <Energy>  (796) 
93.020211978861383

>  <compound_id>  (796) 
1065

>  <target_id>  (796) 
1

>  <reference_id>  (796) 
6

>  <inspiration_ids>  (796) 
[80, 6]

>  <energy_score>  (796) 
-73.2089671176127

>  <distance_score>  (796) 
0.9197685309109466

>  <path>  (796) 
/opt/xchem-fragalysis-2/maxwin/BulkDock/SCRATCH/505733/C1065-P6/C1065-P6.minimised.mol

>  <scratch_subdir>  (796) 
/opt/xchem-fragalysis-2/maxwin/BulkDock/SCRATCH/505733/C1065-P6

>  <fragmenstein_runtime>  (796) 
4.923776865005493

>  <fragmenstein_outcome>  (796) 
acceptable

>  <fragmenstein_mode>  (796) 
expansion

>  <fragmenstein_error>  (796) 


$$$$
C1069-P80
     RDKit          3D

 40 41  0  0  0  0  0  0  0  0999 V2000
   16.6416   -1.7831   12.7049 C   0  0  0  0  0  0  0  0  0  0  0  0
   18.0754   -2.6676   13.4487 N   0  0  0  0  0  0  0  0  0  0  0  0
   17.3564   -2.1924   12.2661 C   0  0  0  0  0  0  0  0  0  0  0  0
   17.9281   -2.5807   14.8189 C   0  0  0  0  0  0  0  0  0  0  0  0
   18.4033   -1.6836   15.5083 O   0  0  0  0  0  0  0  0  0  0  0  0
   17.1302   -3.7423   15.4363 C   0  0  0  0  0  0  0  0  0  0  0  0
   15.7422   -3.4516   15.5562 O   0  0  0  0  0  0  0  0  0  0  0  0
   15.2214   -3.4495   16.8962 C   0  0  0  0  0  0  0  0  0  0  0  0
   13.6953   -3.6094   16.7528 C   0  0  0  0  0  0  0  0  0  0  0  0
   13.0765   -2.4453   15.9751 C   0  0  0  0  0  0  0  0  0  0  0  0
   13.4154   -1.0941   16.5925 C   0  0  0  0  0  0  0  0  0  0  0  0
   14.8939   -0.9271   16.9346 C   0  0  0  0  0  0  0  0  0  0  0  0
   15.5539   -0.7186   15.7585 F   0  0  0  0  0  0  0  0  0  0  0  0
   15.5136   -2.1404   17.6847 C   0  0  0  0  0  0  0  0  0  0  0  0
   15.0146   -2.2546   19.1285 C   0  0  0  0  0  0  0  0  0  0  0  0
   15.8483   -1.2448   19.8784 C   0  0  0  0  0  0  0  0  0  0  0  0
   17.1356   -1.2768   19.1965 N   0  0  0  0  0  0  0  0  0  0  0  0
   16.9538   -1.9462   17.9312 N   0  0  0  0  0  0  0  0  0  0  0  0
   16.1993   -1.5553   13.7585 H   0  0  0  0  0  0  0  0  0  0  0  0
   16.6275   -0.5743   12.6401 H   0  0  0  0  0  0  0  0  0  0  0  0
   15.5760   -2.3421   12.5762 H   0  0  0  0  0  0  0  0  0  0  0  0
   18.2521   -2.7115   11.7163 H   0  0  0  0  0  0  0  0  0  0  0  0
   16.9032   -3.0867   11.5329 H   0  0  0  0  0  0  0  0  0  0  0  0
   17.9840   -1.3102   11.6473 H   0  0  0  0  0  0  0  0  0  0  0  0
   17.5928   -4.0238   16.3887 H   0  0  0  0  0  0  0  0  0  0  0  0
   17.2292   -4.6165   14.7848 H   0  0  0  0  0  0  0  0  0  0  0  0
   15.6068   -4.3289   17.4290 H   0  0  0  0  0  0  0  0  0  0  0  0
   13.4709   -4.5430   16.2305 H   0  0  0  0  0  0  0  0  0  0  0  0
   13.2194   -3.6927   17.7364 H   0  0  0  0  0  0  0  0  0  0  0  0
   11.9881   -2.5690   15.9330 H   0  0  0  0  0  0  0  0  0  0  0  0
   13.4296   -2.4547   14.9380 H   0  0  0  0  0  0  0  0  0  0  0  0
   13.1116   -0.3036   15.8962 H   0  0  0  0  0  0  0  0  0  0  0  0
   12.8233   -0.9571   17.4938 H   0  0  0  0  0  0  0  0  0  0  0  0
   15.0162   -0.0029   17.5095 H   0  0  0  0  0  0  0  0  0  0  0  0
   15.2092   -3.2580   19.5322 H   0  0  0  0  0  0  0  0  0  0  0  0
   13.9530   -2.0558   19.2485 H   0  0  0  0  0  0  0  0  0  0  0  0
   15.4055   -0.2448   19.8090 H   0  0  0  0  0  0  0  0  0  0  0  0
   15.9485   -1.4993   20.9376 H   0  0  0  0  0  0  0  0  0  0  0  0
   17.5268   -0.3356   19.1024 H   0  0  0  0  0  0  0  0  0  0  0  0
   17.4154   -1.4801   17.1305 H   0  0  0  0  0  0  0  0  0  0  0  0
  1  2  1  0
  2  3  1  0
  2  4  1  0
  4  5  2  0
  4  6  1  0
  6  7  1  0
  7  8  1  0
  8  9  1  0
  9 10  1  0
 10 11  1  0
 11 12  1  0
 12 13  1  0
 12 14  1  0
 14 15  1  0
 15 16  1  0
 16 17  1  0
 17 18  1  0
 14  8  1  0
 18 14  1  0
  1 19  1  0
  1 20  1  0
  1 21  1  0
  3 22  1  0
  3 23  1  0
  3 24  1  0
  6 25  1  0
  6 26  1  0
  8 27  1  0
  9 28  1  0
  9 29  1  0
 10 30  1  0
 10 31  1  0
 11 32  1  0
 11 33  1  0
 12 34  1  0
 15 35  1  0
 15 36  1  0
 16 37  1  0
 16 38  1  0
 17 39  1  0
 18 40  1  0
M  END
>  <Energy>  (797) 
650.74049085435479

>  <compound_id>  (797) 
1069

>  <target_id>  (797) 
1

>  <reference_id>  (797) 
80

>  <inspiration_ids>  (797) 
[80, 15]

>  <energy_score>  (797) 
485.57196361562626

>  <distance_score>  (797) 
3.816614286988594

>  <path>  (797) 
/opt/xchem-fragalysis-2/maxwin/BulkDock/SCRATCH/505733/C1069-P80/C1069-P80.minimised.mol

>  <scratch_subdir>  (797) 
/opt/xchem-fragalysis-2/maxwin/BulkDock/SCRATCH/505733/C1069-P80

>  <fragmenstein_runtime>  (797) 
5.981495380401611

>  <fragmenstein_outcome>  (797) 
too moved

>  <fragmenstein_mode>  (797) 
expansion

>  <fragmenstein_error>  (797) 


$$$$
C1069-P15
     RDKit          3D

 40 41  0  0  0  0  0  0  0  0999 V2000
   17.0855    0.2195   14.0867 C   0  0  0  0  0  0  0  0  0  0  0  0
   16.7582   -0.8995   13.2322 N   0  0  0  0  0  0  0  0  0  0  0  0
   16.6311    0.9122   13.6534 C   0  0  0  0  0  0  0  0  0  0  0  0
   17.4190   -2.0173   13.7516 C   0  0  0  0  0  0  0  0  0  0  0  0
   18.5435   -2.3849   13.4259 O   0  0  0  0  0  0  0  0  0  0  0  0
   16.5504   -2.8421   14.7180 C   0  0  0  0  0  0  0  0  0  0  0  0
   16.9263   -2.6178   16.0680 O   0  0  0  0  0  0  0  0  0  0  0  0
   16.0657   -3.0939   17.1198 C   0  0  0  0  0  0  0  0  0  0  0  0
   15.2314   -4.3527   16.8252 C   0  0  0  0  0  0  0  0  0  0  0  0
   13.7166   -4.1723   16.9553 C   0  0  0  0  0  0  0  0  0  0  0  0
   13.2051   -2.8495   16.4128 C   0  0  0  0  0  0  0  0  0  0  0  0
   13.9873   -1.6254   16.8842 C   0  0  0  0  0  0  0  0  0  0  0  0
   14.3552   -0.9461   15.7532 F   0  0  0  0  0  0  0  0  0  0  0  0
   15.2334   -1.9370   17.7461 C   0  0  0  0  0  0  0  0  0  0  0  0
   14.8398   -2.2720   19.2008 C   0  0  0  0  0  0  0  0  0  0  0  0
   15.0870   -0.9874   19.9553 C   0  0  0  0  0  0  0  0  0  0  0  0
   16.2725   -0.4753   19.2840 N   0  0  0  0  0  0  0  0  0  0  0  0
   16.0469   -0.6955   17.8787 N   0  0  0  0  0  0  0  0  0  0  0  0
   17.7747    0.1756   15.0645 H   0  0  0  0  0  0  0  0  0  0  0  0
   18.2570    0.0946   13.7805 H   0  0  0  0  0  0  0  0  0  0  0  0
   16.4923   -0.3040   14.9974 H   0  0  0  0  0  0  0  0  0  0  0  0
   17.3712    1.7314   13.1575 H   0  0  0  0  0  0  0  0  0  0  0  0
   15.6982    1.3458   14.2903 H   0  0  0  0  0  0  0  0  0  0  0  0
   15.9538    1.0703   12.7081 H   0  0  0  0  0  0  0  0  0  0  0  0
   16.7232   -3.8908   14.4604 H   0  0  0  0  0  0  0  0  0  0  0  0
   15.4978   -2.6055   14.5504 H   0  0  0  0  0  0  0  0  0  0  0  0
   16.8012   -3.3965   17.8782 H   0  0  0  0  0  0  0  0  0  0  0  0
   15.4611   -4.7896   15.8527 H   0  0  0  0  0  0  0  0  0  0  0  0
   15.5271   -5.1199   17.5524 H   0  0  0  0  0  0  0  0  0  0  0  0
   13.4281   -4.2765   18.0069 H   0  0  0  0  0  0  0  0  0  0  0  0
   13.2040   -4.9940   16.4451 H   0  0  0  0  0  0  0  0  0  0  0  0
   13.2088   -2.8800   15.3176 H   0  0  0  0  0  0  0  0  0  0  0  0
   12.1529   -2.7374   16.6969 H   0  0  0  0  0  0  0  0  0  0  0  0
   13.3156   -0.9462   17.4200 H   0  0  0  0  0  0  0  0  0  0  0  0
   15.4831   -3.0571   19.6191 H   0  0  0  0  0  0  0  0  0  0  0  0
   13.8070   -2.6006   19.3237 H   0  0  0  0  0  0  0  0  0  0  0  0
   14.2477   -0.2909   19.8484 H   0  0  0  0  0  0  0  0  0  0  0  0
   15.2648   -1.1613   21.0203 H   0  0  0  0  0  0  0  0  0  0  0  0
   16.3955    0.5180   19.5015 H   0  0  0  0  0  0  0  0  0  0  0  0
   16.9304   -0.8530   17.3732 H   0  0  0  0  0  0  0  0  0  0  0  0
  1  2  1  0
  2  3  1  0
  2  4  1  0
  4  5  2  0
  4  6  1  0
  6  7  1  0
  7  8  1  0
  8  9  1  0
  9 10  1  0
 10 11  1  0
 11 12  1  0
 12 13  1  0
 12 14  1  0
 14 15  1  0
 15 16  1  0
 16 17  1  0
 17 18  1  0
 14  8  1  0
 18 14  1  0
  1 19  1  0
  1 20  1  0
  1 21  1  0
  3 22  1  0
  3 23  1  0
  3 24  1  0
  6 25  1  0
  6 26  1  0
  8 27  1  0
  9 28  1  0
  9 29  1  0
 10 30  1  0
 10 31  1  0
 11 32  1  0
 11 33  1  0
 12 34  1  0
 15 35  1  0
 15 36  1  0
 16 37  1  0
 16 38  1  0
 17 39  1  0
 18 40  1  0
M  END
>  <Energy>  (798) 
678.85730433072456

>  <compound_id>  (798) 
1069

>  <target_id>  (798) 
1

>  <reference_id>  (798) 
15

>  <inspiration_ids>  (798) 
[80, 15]

>  <energy_score>  (798) 
513.6887770919939

>  <distance_score>  (798) 
3.5104003156650285

>  <path>  (798) 
/opt/xchem-fragalysis-2/maxwin/BulkDock/SCRATCH/505733/C1069-P15/C1069-P15.minimised.mol

>  <scratch_subdir>  (798) 
/opt/xchem-fragalysis-2/maxwin/BulkDock/SCRATCH/505733/C1069-P15

>  <fragmenstein_runtime>  (798) 
6.169945955276489

>  <fragmenstein_outcome>  (798) 
too moved

>  <fragmenstein_mode>  (798) 
expansion

>  <fragmenstein_error>  (798) 


$$$$
C1072-P80
     RDKit          3D

 32 34  0  0  0  0  0  0  0  0999 V2000
   11.9335    3.2918   11.4147 O   0  0  0  0  0  0  0  0  0  0  0  0
   12.5802    2.4138   12.3647 C   0  0  0  0  0  0  0  0  0  0  0  0
   13.5705    3.0572   13.3524 C   0  0  0  0  0  0  0  0  0  0  0  0
   14.5683    2.0194   13.0319 N   0  0  0  0  0  0  0  0  0  0  0  0
   14.7105    0.9693   14.0826 C   0  0  0  0  0  0  0  0  0  0  0  0
   13.4927    0.1057   14.4182 C   0  0  0  0  0  0  0  0  0  0  0  0
   12.4944    0.5264   15.3117 C   0  0  0  0  0  0  0  0  0  0  0  0
   11.3806   -0.2698   15.5604 C   0  0  0  0  0  0  0  0  0  0  0  0
   11.2735   -1.5250   14.9806 C   0  0  0  0  0  0  0  0  0  0  0  0
   12.2653   -1.9783   14.1231 C   0  0  0  0  0  0  0  0  0  0  0  0
   13.3629   -1.1685   13.8331 C   0  0  0  0  0  0  0  0  0  0  0  0
   15.3303    1.5524   15.3144 N   0  0  0  0  0  0  0  0  0  0  0  0
   15.5923    2.8914   15.4219 N   0  0  0  0  0  0  0  0  0  0  0  0
   16.1358    3.0318   16.6286 C   0  0  0  0  0  0  0  0  0  0  0  0
   16.2503    1.8134   17.3075 C   0  0  0  0  0  0  0  0  0  0  0  0
   15.7388    0.8770   16.4434 C   0  0  0  0  0  0  0  0  0  0  0  0
   15.6502   -1.1449   16.8964 I   0  0  0  0  0  0  0  0  0  0  0  0
   13.7955    1.6031   11.8548 C   0  0  0  0  0  0  0  0  0  0  0  0
   12.6505    3.8548   11.0705 H   0  0  0  0  0  0  0  0  0  0  0  0
   11.8223    1.7879   12.8472 H   0  0  0  0  0  0  0  0  0  0  0  0
   13.2003    3.1326   14.3778 H   0  0  0  0  0  0  0  0  0  0  0  0
   13.8970    4.0617   13.0542 H   0  0  0  0  0  0  0  0  0  0  0  0
   15.5055    0.3003   13.7229 H   0  0  0  0  0  0  0  0  0  0  0  0
   12.5565    1.4981   15.7988 H   0  0  0  0  0  0  0  0  0  0  0  0
   10.5746    0.1071   16.1773 H   0  0  0  0  0  0  0  0  0  0  0  0
   10.3907   -2.1370   15.1402 H   0  0  0  0  0  0  0  0  0  0  0  0
   12.1457   -2.9415   13.6357 H   0  0  0  0  0  0  0  0  0  0  0  0
   14.1150   -1.5412   13.1399 H   0  0  0  0  0  0  0  0  0  0  0  0
   16.4283    4.0197   16.9607 H   0  0  0  0  0  0  0  0  0  0  0  0
   16.6567    1.6459   18.2950 H   0  0  0  0  0  0  0  0  0  0  0  0
   13.6335    0.5336   11.7032 H   0  0  0  0  0  0  0  0  0  0  0  0
   14.2136    1.9928   10.9176 H   0  0  0  0  0  0  0  0  0  0  0  0
  1  2  1  0
  2  3  1  0
  3  4  1  0
  4  5  1  0
  5  6  1  0
  6  7  2  0
  7  8  1  0
  8  9  2  0
  9 10  1  0
 10 11  2  0
  5 12  1  0
 12 13  1  0
 13 14  2  0
 14 15  1  0
 15 16  2  0
 16 17  1  0
  4 18  1  0
 18  2  1  0
 11  6  1  0
 16 12  1  0
  1 19  1  0
  2 20  1  0
  3 21  1  0
  3 22  1  0
  5 23  1  0
  7 24  1  0
  8 25  1  0
  9 26  1  0
 10 27  1  0
 11 28  1  0
 14 29  1  0
 15 30  1  0
 18 31  1  0
 18 32  1  0
M  END
>  <Energy>  (799) 
126.99344426815499

>  <compound_id>  (799) 
1072

>  <target_id>  (799) 
1

>  <reference_id>  (799) 
80

>  <inspiration_ids>  (799) 
[80, 26]

>  <energy_score>  (799) 
-29.781887294104763

>  <distance_score>  (799) 
1.9225076004207624

>  <path>  (799) 
/opt/xchem-fragalysis-2/maxwin/BulkDock/SCRATCH/505733/C1072-P80/C1072-P80.minimised.mol

>  <scratch_subdir>  (799) 
/opt/xchem-fragalysis-2/maxwin/BulkDock/SCRATCH/505733/C1072-P80

>  <fragmenstein_runtime>  (799) 
48.81579852104187

>  <fragmenstein_outcome>  (799) 
too moved

>  <fragmenstein_mode>  (799) 
expansion

>  <fragmenstein_error>  (799) 


$$$$
C1072-P26
     RDKit          3D

 32 34  0  0  0  0  0  0  0  0999 V2000
   12.0163    3.2828   11.3445 O   0  0  0  0  0  0  0  0  0  0  0  0
   12.6272    2.4045   12.3178 C   0  0  0  0  0  0  0  0  0  0  0  0
   13.6058    3.0431   13.3199 C   0  0  0  0  0  0  0  0  0  0  0  0
   14.5963    1.9909   13.0268 N   0  0  0  0  0  0  0  0  0  0  0  0
   14.7078    0.9491   14.0895 C   0  0  0  0  0  0  0  0  0  0  0  0
   13.4716    0.1095   14.4197 C   0  0  0  0  0  0  0  0  0  0  0  0
   12.4719    0.5547   15.2993 C   0  0  0  0  0  0  0  0  0  0  0  0
   11.3427   -0.2208   15.5453 C   0  0  0  0  0  0  0  0  0  0  0  0
   11.2203   -1.4797   14.9763 C   0  0  0  0  0  0  0  0  0  0  0  0
   12.2132   -1.9580   14.1341 C   0  0  0  0  0  0  0  0  0  0  0  0
   13.3265   -1.1685   13.8465 C   0  0  0  0  0  0  0  0  0  0  0  0
   15.3210    1.5355   15.3227 N   0  0  0  0  0  0  0  0  0  0  0  0
   15.5811    2.8751   15.4306 N   0  0  0  0  0  0  0  0  0  0  0  0
   16.1202    3.0161   16.6393 C   0  0  0  0  0  0  0  0  0  0  0  0
   16.2298    1.7985   17.3205 C   0  0  0  0  0  0  0  0  0  0  0  0
   15.7201    0.8618   16.4558 C   0  0  0  0  0  0  0  0  0  0  0  0
   15.6191   -1.1586   16.9107 I   0  0  0  0  0  0  0  0  0  0  0  0
   13.8396    1.5697   11.8415 C   0  0  0  0  0  0  0  0  0  0  0  0
   12.7495    3.8331   11.0144 H   0  0  0  0  0  0  0  0  0  0  0  0
   11.8493    1.7956   12.7904 H   0  0  0  0  0  0  0  0  0  0  0  0
   13.2162    3.1311   14.3370 H   0  0  0  0  0  0  0  0  0  0  0  0
   13.9506    4.0411   13.0209 H   0  0  0  0  0  0  0  0  0  0  0  0
   15.4960    0.2635   13.7464 H   0  0  0  0  0  0  0  0  0  0  0  0
   12.5459    1.5292   15.7792 H   0  0  0  0  0  0  0  0  0  0  0  0
   10.5390    0.1741   16.1548 H   0  0  0  0  0  0  0  0  0  0  0  0
   10.3276   -2.0767   15.1370 H   0  0  0  0  0  0  0  0  0  0  0  0
   12.0871   -2.9275   13.6615 H   0  0  0  0  0  0  0  0  0  0  0  0
   14.0813   -1.5618   13.1673 H   0  0  0  0  0  0  0  0  0  0  0  0
   16.4125    4.0040   16.9715 H   0  0  0  0  0  0  0  0  0  0  0  0
   16.6307    1.6314   18.3103 H   0  0  0  0  0  0  0  0  0  0  0  0
   13.6641    0.5007   11.7008 H   0  0  0  0  0  0  0  0  0  0  0  0
   14.2806    1.9405   10.9071 H   0  0  0  0  0  0  0  0  0  0  0  0
  1  2  1  0
  2  3  1  0
  3  4  1  0
  4  5  1  0
  5  6  1  0
  6  7  2  0
  7  8  1  0
  8  9  2  0
  9 10  1  0
 10 11  2  0
  5 12  1  0
 12 13  1  0
 13 14  2  0
 14 15  1  0
 15 16  2  0
 16 17  1  0
  4 18  1  0
 18  2  1  0
 11  6  1  0
 16 12  1  0
  1 19  1  0
  2 20  1  0
  3 21  1  0
  3 22  1  0
  5 23  1  0
  7 24  1  0
  8 25  1  0
  9 26  1  0
 10 27  1  0
 11 28  1  0
 14 29  1  0
 15 30  1  0
 18 31  1  0
 18 32  1  0
M  END
>  <Energy>  (800) 
126.69693836489739

>  <compound_id>  (800) 
1072

>  <target_id>  (800) 
1

>  <reference_id>  (800) 
26

>  <inspiration_ids>  (800) 
[80, 26]

>  <energy_score>  (800) 
-30.078393197362175

>  <distance_score>  (800) 
1.9336313978293505

>  <path>  (800) 
/opt/xchem-fragalysis-2/maxwin/BulkDock/SCRATCH/505733/C1072-P26/C1072-P26.minimised.mol

>  <scratch_subdir>  (800) 
/opt/xchem-fragalysis-2/maxwin/BulkDock/SCRATCH/505733/C1072-P26

>  <fragmenstein_runtime>  (800) 
48.91960144042969

>  <fragmenstein_outcome>  (800) 
too moved

>  <fragmenstein_mode>  (800) 
expansion

>  <fragmenstein_error>  (800) 


$$$$
C1077-P80
     RDKit          3D

 38 39  0  0  0  0  0  0  0  0999 V2000
   15.8127    4.8114   19.2298 C   0  0  0  0  0  0  0  0  0  0  0  0
   17.0441    4.0258   18.7939 C   0  0  0  0  0  0  0  0  0  0  0  0
   17.5157    3.0113   19.8424 C   0  0  0  0  0  0  0  0  0  0  0  0
   16.3806    2.1079   20.2997 C   0  0  0  0  0  0  0  0  0  0  0  0
   15.9268    2.1527   21.3718 O   0  0  0  0  0  0  0  0  0  0  0  0
   15.9559    1.2799   19.0667 N   0  0  0  0  0  0  0  0  0  0  0  0
   14.8285    0.4081   18.8701 C   0  0  0  0  0  0  0  0  0  0  0  0
   14.4524    0.3109   17.3728 C   0  0  0  0  0  0  0  0  0  0  0  0
   15.2968   -0.6479   16.6575 N   0  0  0  0  0  0  0  0  0  0  0  0
   14.4166   -1.1780   15.6029 C   0  0  0  0  0  0  0  0  0  0  0  0
   13.0507   -1.2375   16.2973 C   0  0  0  0  0  0  0  0  0  0  0  0
   12.9004   -2.4333   17.1169 N   0  0  0  0  0  0  0  0  0  0  0  0
   12.4126   -3.4838   16.2228 C   0  0  0  0  0  0  0  0  0  0  0  0
   11.7523   -2.7696   15.0379 C   0  0  0  0  0  0  0  0  0  0  0  0
   11.7795   -1.3136   15.4539 C   0  0  0  0  0  0  0  0  0  0  0  0
   11.6509    0.1382   13.9688 I   0  0  0  0  0  0  0  0  0  0  0  0
   13.0718   -0.0976   17.1849 N   0  0  0  0  0  0  0  0  0  0  0  0
   15.5866    5.5895   18.4935 H   0  0  0  0  0  0  0  0  0  0  0  0
   15.9802    5.2986   20.1956 H   0  0  0  0  0  0  0  0  0  0  0  0
   14.9302    4.1697   19.3120 H   0  0  0  0  0  0  0  0  0  0  0  0
   16.8287    3.5306   17.8406 H   0  0  0  0  0  0  0  0  0  0  0  0
   17.8637    4.7275   18.5986 H   0  0  0  0  0  0  0  0  0  0  0  0
   17.9051    3.5379   20.7218 H   0  0  0  0  0  0  0  0  0  0  0  0
   18.3337    2.3980   19.4485 H   0  0  0  0  0  0  0  0  0  0  0  0
   16.6234    1.4225   18.3165 H   0  0  0  0  0  0  0  0  0  0  0  0
   15.0630   -0.5672   19.3103 H   0  0  0  0  0  0  0  0  0  0  0  0
   14.0101    0.8364   19.4553 H   0  0  0  0  0  0  0  0  0  0  0  0
   14.5889    1.2952   16.9049 H   0  0  0  0  0  0  0  0  0  0  0  0
   15.5090   -1.4076   17.3021 H   0  0  0  0  0  0  0  0  0  0  0  0
   14.4513   -0.4881   14.7552 H   0  0  0  0  0  0  0  0  0  0  0  0
   14.7779   -2.1510   15.2533 H   0  0  0  0  0  0  0  0  0  0  0  0
   13.7719   -2.6971   17.5640 H   0  0  0  0  0  0  0  0  0  0  0  0
   11.7034   -4.1303   16.7438 H   0  0  0  0  0  0  0  0  0  0  0  0
   13.2493   -4.1080   15.9106 H   0  0  0  0  0  0  0  0  0  0  0  0
   12.3166   -2.9278   14.1146 H   0  0  0  0  0  0  0  0  0  0  0  0
   10.7309   -3.1250   14.8709 H   0  0  0  0  0  0  0  0  0  0  0  0
   10.9074   -1.1566   16.1040 H   0  0  0  0  0  0  0  0  0  0  0  0
   12.6052    0.6803   16.7186 H   0  0  0  0  0  0  0  0  0  0  0  0
  1  2  1  0
  2  3  1  0
  3  4  1  0
  4  5  2  0
  4  6  1  0
  6  7  1  0
  7  8  1  0
  8  9  1  0
  9 10  1  0
 10 11  1  0
 11 12  1  0
 12 13  1  0
 13 14  1  0
 14 15  1  0
 15 16  1  0
 11 17  1  0
 17  8  1  0
 15 11  1  0
  1 18  1  0
  1 19  1  0
  1 20  1  0
  2 21  1  0
  2 22  1  0
  3 23  1  0
  3 24  1  0
  6 25  1  0
  7 26  1  0
  7 27  1  0
  8 28  1  0
  9 29  1  0
 10 30  1  0
 10 31  1  0
 12 32  1  0
 13 33  1  0
 13 34  1  0
 14 35  1  0
 14 36  1  0
 15 37  1  0
 17 38  1  0
M  END
>  <Energy>  (801) 
6.1701777357218734

>  <compound_id>  (801) 
1077

>  <target_id>  (801) 
1

>  <reference_id>  (801) 
80

>  <inspiration_ids>  (801) 
[80, 55]

>  <energy_score>  (801) 
-5.445048344332008

>  <distance_score>  (801) 
2.3811281851051582

>  <path>  (801) 
/opt/xchem-fragalysis-2/maxwin/BulkDock/SCRATCH/505733/C1077-P80/C1077-P80.minimised.mol

>  <scratch_subdir>  (801) 
/opt/xchem-fragalysis-2/maxwin/BulkDock/SCRATCH/505733/C1077-P80

>  <fragmenstein_runtime>  (801) 
1.8534128665924072

>  <fragmenstein_outcome>  (801) 
too moved

>  <fragmenstein_mode>  (801) 
expansion

>  <fragmenstein_error>  (801) 


$$$$
C1077-P55
     RDKit          3D

 38 39  0  0  0  0  0  0  0  0999 V2000
   15.9625    4.6338   19.7378 C   0  0  0  0  0  0  0  0  0  0  0  0
   17.1023    4.7675   18.7348 C   0  0  0  0  0  0  0  0  0  0  0  0
   17.6295    3.4482   18.1783 C   0  0  0  0  0  0  0  0  0  0  0  0
   16.5043    2.7168   17.4733 C   0  0  0  0  0  0  0  0  0  0  0  0
   16.1956    2.9388   16.3707 O   0  0  0  0  0  0  0  0  0  0  0  0
   15.8649    1.7756   18.5244 N   0  0  0  0  0  0  0  0  0  0  0  0
   14.6642    0.9903   18.4648 C   0  0  0  0  0  0  0  0  0  0  0  0
   14.3581    0.4011   17.0757 C   0  0  0  0  0  0  0  0  0  0  0  0
   15.2251   -0.7107   16.6960 N   0  0  0  0  0  0  0  0  0  0  0  0
   14.4336   -1.3665   15.6396 C   0  0  0  0  0  0  0  0  0  0  0  0
   13.0165   -1.3247   16.2332 C   0  0  0  0  0  0  0  0  0  0  0  0
   12.7785   -2.4881   17.0798 N   0  0  0  0  0  0  0  0  0  0  0  0
   12.3552   -3.5561   16.1718 C   0  0  0  0  0  0  0  0  0  0  0  0
   11.7585   -2.8591   14.9427 C   0  0  0  0  0  0  0  0  0  0  0  0
   11.7907   -1.3974   15.3296 C   0  0  0  0  0  0  0  0  0  0  0  0
   11.7731    0.0430   13.8376 I   0  0  0  0  0  0  0  0  0  0  0  0
   13.0109   -0.1496   17.0777 N   0  0  0  0  0  0  0  0  0  0  0  0
   16.2311    3.9540   20.5522 H   0  0  0  0  0  0  0  0  0  0  0  0
   15.0445    4.2753   19.2632 H   0  0  0  0  0  0  0  0  0  0  0  0
   15.7390    5.6116   20.1772 H   0  0  0  0  0  0  0  0  0  0  0  0
   16.7643    5.4063   17.9093 H   0  0  0  0  0  0  0  0  0  0  0  0
   17.9338    5.2947   19.2176 H   0  0  0  0  0  0  0  0  0  0  0  0
   18.0795    2.8382   18.9680 H   0  0  0  0  0  0  0  0  0  0  0  0
   18.4219    3.6371   17.4447 H   0  0  0  0  0  0  0  0  0  0  0  0
   16.4377    1.7613   19.3583 H   0  0  0  0  0  0  0  0  0  0  0  0
   14.7358    0.2090   19.2302 H   0  0  0  0  0  0  0  0  0  0  0  0
   13.8579    1.6703   18.7621 H   0  0  0  0  0  0  0  0  0  0  0  0
   14.4234    1.1834   16.3105 H   0  0  0  0  0  0  0  0  0  0  0  0
   15.2744   -1.3305   17.5005 H   0  0  0  0  0  0  0  0  0  0  0  0
   14.5407   -0.7977   14.7110 H   0  0  0  0  0  0  0  0  0  0  0  0
   14.8138   -2.3762   15.4531 H   0  0  0  0  0  0  0  0  0  0  0  0
   13.6145   -2.7502   17.5927 H   0  0  0  0  0  0  0  0  0  0  0  0
   11.6259   -4.2066   16.6574 H   0  0  0  0  0  0  0  0  0  0  0  0
   13.2171   -4.1711   15.9117 H   0  0  0  0  0  0  0  0  0  0  0  0
   12.3569   -3.0489   14.0473 H   0  0  0  0  0  0  0  0  0  0  0  0
   10.7384   -3.2000   14.7451 H   0  0  0  0  0  0  0  0  0  0  0  0
   10.8889   -1.2169   15.9355 H   0  0  0  0  0  0  0  0  0  0  0  0
   12.4255    0.5636   16.6429 H   0  0  0  0  0  0  0  0  0  0  0  0
  1  2  1  0
  2  3  1  0
  3  4  1  0
  4  5  2  0
  4  6  1  0
  6  7  1  0
  7  8  1  0
  8  9  1  0
  9 10  1  0
 10 11  1  0
 11 12  1  0
 12 13  1  0
 13 14  1  0
 14 15  1  0
 15 16  1  0
 11 17  1  0
 17  8  1  0
 15 11  1  0
  1 18  1  0
  1 19  1  0
  1 20  1  0
  2 21  1  0
  2 22  1  0
  3 23  1  0
  3 24  1  0
  6 25  1  0
  7 26  1  0
  7 27  1  0
  8 28  1  0
  9 29  1  0
 10 30  1  0
 10 31  1  0
 12 32  1  0
 13 33  1  0
 13 34  1  0
 14 35  1  0
 14 36  1  0
 15 37  1  0
 17 38  1  0
M  END
>  <Energy>  (802) 
7.2252147871249885

>  <compound_id>  (802) 
1077

>  <target_id>  (802) 
1

>  <reference_id>  (802) 
55

>  <inspiration_ids>  (802) 
[80, 55]

>  <energy_score>  (802) 
-4.390011292929614

>  <distance_score>  (802) 
1.526619436225614

>  <path>  (802) 
/opt/xchem-fragalysis-2/maxwin/BulkDock/SCRATCH/505733/C1077-P55/C1077-P55.minimised.mol

>  <scratch_subdir>  (802) 
/opt/xchem-fragalysis-2/maxwin/BulkDock/SCRATCH/505733/C1077-P55

>  <fragmenstein_runtime>  (802) 
2.4071052074432373

>  <fragmenstein_outcome>  (802) 
too moved

>  <fragmenstein_mode>  (802) 
expansion

>  <fragmenstein_error>  (802) 


$$$$
C1078-P80
     RDKit          3D

 16 16  0  0  0  0  0  0  0  0999 V2000
   14.9532   -0.4506   17.8667 C   0  0  0  0  0  0  0  0  0  0  0  0
   13.8837   -0.7227   16.9557 N   0  0  0  0  0  0  0  0  0  0  0  0
   13.3450    0.2135   16.1112 C   0  0  0  0  0  0  0  0  0  0  0  0
   12.4308   -0.4208   15.3142 C   0  0  0  0  0  0  0  0  0  0  0  0
   12.4319   -1.7616   15.7270 C   0  0  0  0  0  0  0  0  0  0  0  0
   11.2368   -3.1290   14.9150 I   0  0  0  0  0  0  0  0  0  0  0  0
   13.3133   -1.9611   16.7675 C   0  0  0  0  0  0  0  0  0  0  0  0
   13.6010   -3.1687   17.5105 C   0  0  0  0  0  0  0  0  0  0  0  0
   13.4803   -4.3357   17.1701 O   0  0  0  0  0  0  0  0  0  0  0  0
   14.0261   -2.8946   18.7626 O   0  0  0  0  0  0  0  0  0  0  0  0
   15.4088    0.5134   17.6208 H   0  0  0  0  0  0  0  0  0  0  0  0
   15.7218   -1.2230   17.7783 H   0  0  0  0  0  0  0  0  0  0  0  0
   14.5531   -0.4015   18.8825 H   0  0  0  0  0  0  0  0  0  0  0  0
   13.6683    1.2468   16.1336 H   0  0  0  0  0  0  0  0  0  0  0  0
   11.8379    0.0345   14.5300 H   0  0  0  0  0  0  0  0  0  0  0  0
   14.0499   -3.7793   19.1813 H   0  0  0  0  0  0  0  0  0  0  0  0
  1  2  1  0
  2  3  1  0
  3  4  2  0
  4  5  1  0
  5  6  1  0
  5  7  2  0
  7  8  1  0
  8  9  2  0
  8 10  1  0
  7  2  1  0
  1 11  1  0
  1 12  1  0
  1 13  1  0
  3 14  1  0
  4 15  1  0
 10 16  1  0
M  END
>  <Energy>  (803) 
-24.226481586718968

>  <compound_id>  (803) 
1078

>  <target_id>  (803) 
1

>  <reference_id>  (803) 
80

>  <inspiration_ids>  (803) 
[80, 60]

>  <energy_score>  (803) 
-18.267942800230166

>  <distance_score>  (803) 
2.015617097538858

>  <path>  (803) 
/opt/xchem-fragalysis-2/maxwin/BulkDock/SCRATCH/505733/C1078-P80/C1078-P80.minimised.mol

>  <scratch_subdir>  (803) 
/opt/xchem-fragalysis-2/maxwin/BulkDock/SCRATCH/505733/C1078-P80

>  <fragmenstein_runtime>  (803) 
1.0990684032440186

>  <fragmenstein_outcome>  (803) 
too moved

>  <fragmenstein_mode>  (803) 
expansion

>  <fragmenstein_error>  (803) 


$$$$
C1078-P60
     RDKit          3D

 16 16  0  0  0  0  0  0  0  0999 V2000
   14.8638   -0.6185   17.9549 C   0  0  0  0  0  0  0  0  0  0  0  0
   13.8127   -0.8168   17.0031 N   0  0  0  0  0  0  0  0  0  0  0  0
   13.3342    0.1639   16.1735 C   0  0  0  0  0  0  0  0  0  0  0  0
   12.4437   -0.4182   15.3112 C   0  0  0  0  0  0  0  0  0  0  0  0
   12.3947   -1.7743   15.6689 C   0  0  0  0  0  0  0  0  0  0  0  0
   11.2302   -3.0910   14.7310 I   0  0  0  0  0  0  0  0  0  0  0  0
   13.2103   -2.0277   16.7500 C   0  0  0  0  0  0  0  0  0  0  0  0
   13.4209   -3.2593   17.4752 C   0  0  0  0  0  0  0  0  0  0  0  0
   13.3310   -4.4122   17.0843 O   0  0  0  0  0  0  0  0  0  0  0  0
   13.7115   -3.0229   18.7721 O   0  0  0  0  0  0  0  0  0  0  0  0
   14.4313   -0.5553   18.9563 H   0  0  0  0  0  0  0  0  0  0  0  0
   15.3848    0.3182   17.7345 H   0  0  0  0  0  0  0  0  0  0  0  0
   15.5866   -1.4358   17.8866 H   0  0  0  0  0  0  0  0  0  0  0  0
   13.6847    1.1859   16.2465 H   0  0  0  0  0  0  0  0  0  0  0  0
   11.9042    0.0805   14.5151 H   0  0  0  0  0  0  0  0  0  0  0  0
   13.6318   -3.9108   19.1777 H   0  0  0  0  0  0  0  0  0  0  0  0
  1  2  1  0
  2  3  1  0
  3  4  2  0
  4  5  1  0
  5  6  1  0
  5  7  2  0
  7  8  1  0
  8  9  2  0
  8 10  1  0
  7  2  1  0
  1 11  1  0
  1 12  1  0
  1 13  1  0
  3 14  1  0
  4 15  1  0
 10 16  1  0
M  END
>  <Energy>  (804) 
-24.015747319712069

>  <compound_id>  (804) 
1078

>  <target_id>  (804) 
1

>  <reference_id>  (804) 
60

>  <inspiration_ids>  (804) 
[80, 60]

>  <energy_score>  (804) 
-18.057208533222898

>  <distance_score>  (804) 
1.9204883510095843

>  <path>  (804) 
/opt/xchem-fragalysis-2/maxwin/BulkDock/SCRATCH/505733/C1078-P60/C1078-P60.minimised.mol

>  <scratch_subdir>  (804) 
/opt/xchem-fragalysis-2/maxwin/BulkDock/SCRATCH/505733/C1078-P60

>  <fragmenstein_runtime>  (804) 
1.0849597454071045

>  <fragmenstein_outcome>  (804) 
too moved

>  <fragmenstein_mode>  (804) 
expansion

>  <fragmenstein_error>  (804) 


$$$$
C1080-P80
     RDKit          3D

 27 27  0  0  0  0  0  0  0  0999 V2000
   16.3455    1.7377   18.0153 C   0  0  0  0  0  0  0  0  0  0  0  0
   15.1346    0.8037   17.7836 C   0  0  0  0  0  0  0  0  0  0  0  0
   15.0496   -0.1371   18.9986 C   0  0  0  0  0  0  0  0  0  0  0  0
   13.8587    1.6897   17.6852 C   0  0  0  0  0  0  0  0  0  0  0  0
   13.6430    2.4310   18.8831 O   0  0  0  0  0  0  0  0  0  0  0  0
   15.4264    0.1378   16.5000 N   0  0  0  0  0  0  0  0  0  0  0  0
   15.0022   -1.2379   16.2973 C   0  0  0  0  0  0  0  0  0  0  0  0
   13.5961   -1.3177   15.9246 N   0  0  0  0  0  0  0  0  0  0  0  0
   13.0134   -0.3531   15.1634 N   0  0  0  0  0  0  0  0  0  0  0  0
   11.8592   -0.9165   14.7938 C   0  0  0  0  0  0  0  0  0  0  0  0
   11.6738   -2.2016   15.3410 C   0  0  0  0  0  0  0  0  0  0  0  0
   12.8000   -2.4142   16.0925 C   0  0  0  0  0  0  0  0  0  0  0  0
   13.2679   -4.0977   17.1835 I   0  0  0  0  0  0  0  0  0  0  0  0
   17.2832    1.1701   18.0615 H   0  0  0  0  0  0  0  0  0  0  0  0
   16.4431    2.4761   17.2102 H   0  0  0  0  0  0  0  0  0  0  0  0
   16.2552    2.2900   18.9578 H   0  0  0  0  0  0  0  0  0  0  0  0
   14.1867   -0.8042   18.9304 H   0  0  0  0  0  0  0  0  0  0  0  0
   14.9504    0.4242   19.9348 H   0  0  0  0  0  0  0  0  0  0  0  0
   15.9514   -0.7535   19.0911 H   0  0  0  0  0  0  0  0  0  0  0  0
   12.9809    1.0682   17.5049 H   0  0  0  0  0  0  0  0  0  0  0  0
   13.9418    2.4071   16.8609 H   0  0  0  0  0  0  0  0  0  0  0  0
   12.7779    2.8825   18.8109 H   0  0  0  0  0  0  0  0  0  0  0  0
   15.0317    0.6863   15.7290 H   0  0  0  0  0  0  0  0  0  0  0  0
   15.2199   -1.8747   17.1541 H   0  0  0  0  0  0  0  0  0  0  0  0
   15.5510   -1.6489   15.4416 H   0  0  0  0  0  0  0  0  0  0  0  0
   11.1982   -0.3757   14.1276 H   0  0  0  0  0  0  0  0  0  0  0  0
   10.8428   -2.8731   15.1772 H   0  0  0  0  0  0  0  0  0  0  0  0
  1  2  1  0
  2  3  1  0
  2  4  1  0
  4  5  1  0
  2  6  1  0
  6  7  1  0
  7  8  1  0
  8  9  1  0
  9 10  2  0
 10 11  1  0
 11 12  2  0
 12 13  1  0
 12  8  1  0
  1 14  1  0
  1 15  1  0
  1 16  1  0
  3 17  1  0
  3 18  1  0
  3 19  1  0
  4 20  1  0
  4 21  1  0
  5 22  1  0
  6 23  1  0
  7 24  1  0
  7 25  1  0
 10 26  1  0
 11 27  1  0
M  END
>  <Energy>  (805) 
68.1078977146326

>  <compound_id>  (805) 
1080

>  <target_id>  (805) 
1

>  <reference_id>  (805) 
80

>  <inspiration_ids>  (805) 
[80, 66]

>  <energy_score>  (805) 
-25.15141996655489

>  <distance_score>  (805) 
1.7621638095992174

>  <path>  (805) 
/opt/xchem-fragalysis-2/maxwin/BulkDock/SCRATCH/505733/C1080-P80/C1080-P80.minimised.mol

>  <scratch_subdir>  (805) 
/opt/xchem-fragalysis-2/maxwin/BulkDock/SCRATCH/505733/C1080-P80

>  <fragmenstein_runtime>  (805) 
0.9483873844146729

>  <fragmenstein_outcome>  (805) 
too moved

>  <fragmenstein_mode>  (805) 
expansion

>  <fragmenstein_error>  (805) 


$$$$
C1080-P66
     RDKit          3D

 27 27  0  0  0  0  0  0  0  0999 V2000
   18.0857   -0.9014   17.3945 C   0  0  0  0  0  0  0  0  0  0  0  0
   16.6284   -0.5709   17.7881 C   0  0  0  0  0  0  0  0  0  0  0  0
   16.2944   -1.3760   19.0599 C   0  0  0  0  0  0  0  0  0  0  0  0
   16.5600    0.9588   18.0764 C   0  0  0  0  0  0  0  0  0  0  0  0
   15.3105    1.3440   18.6455 O   0  0  0  0  0  0  0  0  0  0  0  0
   15.8068   -1.0363   16.6489 N   0  0  0  0  0  0  0  0  0  0  0  0
   14.4230   -0.6165   16.7583 C   0  0  0  0  0  0  0  0  0  0  0  0
   13.6370   -1.2434   15.7031 N   0  0  0  0  0  0  0  0  0  0  0  0
   13.1021   -0.4485   14.7447 N   0  0  0  0  0  0  0  0  0  0  0  0
   12.1234   -1.2002   14.2392 C   0  0  0  0  0  0  0  0  0  0  0  0
   12.0382   -2.4717   14.8358 C   0  0  0  0  0  0  0  0  0  0  0  0
   13.0478   -2.4778   15.7649 C   0  0  0  0  0  0  0  0  0  0  0  0
   13.5386   -4.0214   17.0528 I   0  0  0  0  0  0  0  0  0  0  0  0
   18.7820   -0.6409   18.2004 H   0  0  0  0  0  0  0  0  0  0  0  0
   18.2135   -1.9707   17.1861 H   0  0  0  0  0  0  0  0  0  0  0  0
   18.3953   -0.3468   16.5005 H   0  0  0  0  0  0  0  0  0  0  0  0
   16.9902   -1.1268   19.8699 H   0  0  0  0  0  0  0  0  0  0  0  0
   16.3778   -2.4543   18.8808 H   0  0  0  0  0  0  0  0  0  0  0  0
   15.2850   -1.1781   19.4333 H   0  0  0  0  0  0  0  0  0  0  0  0
   17.3448    1.2451   18.7861 H   0  0  0  0  0  0  0  0  0  0  0  0
   16.7117    1.5336   17.1556 H   0  0  0  0  0  0  0  0  0  0  0  0
   15.3833    2.2888   18.8700 H   0  0  0  0  0  0  0  0  0  0  0  0
   16.1698   -0.6585   15.7729 H   0  0  0  0  0  0  0  0  0  0  0  0
   14.3104    0.4645   16.6305 H   0  0  0  0  0  0  0  0  0  0  0  0
   13.9818   -0.9258   17.7032 H   0  0  0  0  0  0  0  0  0  0  0  0
   11.5008   -0.7822   13.4616 H   0  0  0  0  0  0  0  0  0  0  0  0
   11.3339   -3.2577   14.6065 H   0  0  0  0  0  0  0  0  0  0  0  0
  1  2  1  0
  2  3  1  0
  2  4  1  0
  4  5  1  0
  2  6  1  0
  6  7  1  0
  7  8  1  0
  8  9  1  0
  9 10  2  0
 10 11  1  0
 11 12  2  0
 12 13  1  0
 12  8  1  0
  1 14  1  0
  1 15  1  0
  1 16  1  0
  3 17  1  0
  3 18  1  0
  3 19  1  0
  4 20  1  0
  4 21  1  0
  5 22  1  0
  6 23  1  0
  7 24  1  0
  7 25  1  0
 10 26  1  0
 11 27  1  0
M  END
>  <Energy>  (806) 
65.408279674330586

>  <compound_id>  (806) 
1080

>  <target_id>  (806) 
1

>  <reference_id>  (806) 
66

>  <inspiration_ids>  (806) 
[80, 66]

>  <energy_score>  (806) 
-27.851038006857095

>  <distance_score>  (806) 
1.95961743852489

>  <path>  (806) 
/opt/xchem-fragalysis-2/maxwin/BulkDock/SCRATCH/505733/C1080-P66/C1080-P66.minimised.mol

>  <scratch_subdir>  (806) 
/opt/xchem-fragalysis-2/maxwin/BulkDock/SCRATCH/505733/C1080-P66

>  <fragmenstein_runtime>  (806) 
1.0736632347106934

>  <fragmenstein_outcome>  (806) 
too moved

>  <fragmenstein_mode>  (806) 
expansion

>  <fragmenstein_error>  (806) 


$$$$
C1089-P80
     RDKit          3D

 16 16  0  0  0  0  0  0  0  0999 V2000
   11.5526    1.3205   12.0990 O   0  0  0  0  0  0  0  0  0  0  0  0
   11.4122    1.1368   13.2988 C   0  0  0  0  0  0  0  0  0  0  0  0
   10.6049    1.9251   14.0534 O   0  0  0  0  0  0  0  0  0  0  0  0
   12.1168    0.0575   14.1057 C   0  0  0  0  0  0  0  0  0  0  0  0
   11.8474    0.3052   15.4926 O   0  0  0  0  0  0  0  0  0  0  0  0
   12.9763   -0.0201   16.2190 N   0  0  0  0  0  0  0  0  0  0  0  0
   13.8217    0.8681   16.7998 C   0  0  0  0  0  0  0  0  0  0  0  0
   14.6984    0.1016   17.5345 C   0  0  0  0  0  0  0  0  0  0  0  0
   14.2536   -1.2206   17.3373 C   0  0  0  0  0  0  0  0  0  0  0  0
   15.1179   -2.8828   18.1897 I   0  0  0  0  0  0  0  0  0  0  0  0
   13.1769   -1.2896   16.5528 N   0  0  0  0  0  0  0  0  0  0  0  0
   10.6098    1.5911   14.9768 H   0  0  0  0  0  0  0  0  0  0  0  0
   13.1870    0.1204   13.8742 H   0  0  0  0  0  0  0  0  0  0  0  0
   11.7142   -0.9213   13.8355 H   0  0  0  0  0  0  0  0  0  0  0  0
   13.7287    1.9336   16.6514 H   0  0  0  0  0  0  0  0  0  0  0  0
   15.5259    0.4510   18.1364 H   0  0  0  0  0  0  0  0  0  0  0  0
  1  2  2  0
  2  3  1  0
  2  4  1  0
  4  5  1  0
  5  6  1  0
  6  7  1  0
  7  8  2  0
  8  9  1  0
  9 10  1  0
  9 11  2  0
 11  6  1  0
  3 12  1  0
  4 13  1  0
  4 14  1  0
  7 15  1  0
  8 16  1  0
M  END
>  <Energy>  (807) 
-29.633939508504746

>  <compound_id>  (807) 
1089

>  <target_id>  (807) 
1

>  <reference_id>  (807) 
80

>  <inspiration_ids>  (807) 
[80, 106]

>  <energy_score>  (807) 
-20.71421154099852

>  <distance_score>  (807) 
2.4694208588240034

>  <path>  (807) 
/opt/xchem-fragalysis-2/maxwin/BulkDock/SCRATCH/505733/C1089-P80/C1089-P80.minimised.mol

>  <scratch_subdir>  (807) 
/opt/xchem-fragalysis-2/maxwin/BulkDock/SCRATCH/505733/C1089-P80

>  <fragmenstein_runtime>  (807) 
0.8430190086364746

>  <fragmenstein_outcome>  (807) 
too moved

>  <fragmenstein_mode>  (807) 
expansion

>  <fragmenstein_error>  (807) 


$$$$
C1089-P106
     RDKit          3D

 16 16  0  0  0  0  0  0  0  0999 V2000
   11.9393    1.8656   12.9274 O   0  0  0  0  0  0  0  0  0  0  0  0
   11.4170    0.8376   13.3380 C   0  0  0  0  0  0  0  0  0  0  0  0
   10.1046    0.5855   13.1525 O   0  0  0  0  0  0  0  0  0  0  0  0
   12.1502   -0.2278   14.1170 C   0  0  0  0  0  0  0  0  0  0  0  0
   11.7747   -0.0734   15.4801 O   0  0  0  0  0  0  0  0  0  0  0  0
   12.9084   -0.2089   16.2512 N   0  0  0  0  0  0  0  0  0  0  0  0
   13.6204    0.7982   16.8179 C   0  0  0  0  0  0  0  0  0  0  0  0
   14.5840    0.1732   17.5781 C   0  0  0  0  0  0  0  0  0  0  0  0
   14.3304   -1.2011   17.3992 C   0  0  0  0  0  0  0  0  0  0  0  0
   15.3844   -2.7205   18.3001 I   0  0  0  0  0  0  0  0  0  0  0  0
   13.2953   -1.4337   16.5921 N   0  0  0  0  0  0  0  0  0  0  0  0
    9.8244   -0.3363   13.4001 H   0  0  0  0  0  0  0  0  0  0  0  0
   13.2252   -0.0956   13.9338 H   0  0  0  0  0  0  0  0  0  0  0  0
   11.8679   -1.2226   13.7592 H   0  0  0  0  0  0  0  0  0  0  0  0
   13.3797    1.8368   16.6439 H   0  0  0  0  0  0  0  0  0  0  0  0
   15.3437    0.6453   18.1853 H   0  0  0  0  0  0  0  0  0  0  0  0
  1  2  2  0
  2  3  1  0
  2  4  1  0
  4  5  1  0
  5  6  1  0
  6  7  1  0
  7  8  2  0
  8  9  1  0
  9 10  1  0
  9 11  2  0
 11  6  1  0
  3 12  1  0
  4 13  1  0
  4 14  1  0
  7 15  1  0
  8 16  1  0
M  END
>  <Energy>  (808) 
-23.910555677545801

>  <compound_id>  (808) 
1089

>  <target_id>  (808) 
1

>  <reference_id>  (808) 
106

>  <inspiration_ids>  (808) 
[80, 106]

>  <energy_score>  (808) 
-14.990827710039582

>  <distance_score>  (808) 
2.3050375594360584

>  <path>  (808) 
/opt/xchem-fragalysis-2/maxwin/BulkDock/SCRATCH/505733/C1089-P106/C1089-P106.minimised.mol

>  <scratch_subdir>  (808) 
/opt/xchem-fragalysis-2/maxwin/BulkDock/SCRATCH/505733/C1089-P106

>  <fragmenstein_runtime>  (808) 
0.825995683670044

>  <fragmenstein_outcome>  (808) 
too moved

>  <fragmenstein_mode>  (808) 
expansion

>  <fragmenstein_error>  (808) 


$$$$
C1094-P80
     RDKit          3D

 26 26  0  0  0  0  0  0  0  0999 V2000
   18.3005    1.1906   13.1586 C   0  0  0  0  0  0  0  0  0  0  0  0
   16.9749    1.4859   13.8246 C   0  0  0  0  0  0  0  0  0  0  0  0
   16.8775    1.8635   14.9233 O   0  0  0  0  0  0  0  0  0  0  0  0
   15.8853    1.2049   12.7596 N   0  0  0  0  0  0  0  0  0  0  0  0
   14.4313    1.2409   12.8606 C   0  0  0  0  0  0  0  0  0  0  0  0
   13.9022    0.3684   14.0202 C   0  0  0  0  0  0  0  0  0  0  0  0
   14.1331    0.9504   15.3453 N   0  0  0  0  0  0  0  0  0  0  0  0
   13.5118    2.2747   15.4783 C   0  0  0  0  0  0  0  0  0  0  0  0
   13.9415    3.2157   14.3608 C   0  0  0  0  0  0  0  0  0  0  0  0
   14.1906    4.4030   14.5818 O   0  0  0  0  0  0  0  0  0  0  0  0
   13.8555    2.6652   12.9427 C   0  0  0  0  0  0  0  0  0  0  0  0
   14.4774    3.6209   11.9258 C   0  0  0  0  0  0  0  0  0  0  0  0
   19.1139    1.4025   13.8587 H   0  0  0  0  0  0  0  0  0  0  0  0
   18.3485    0.1355   12.8758 H   0  0  0  0  0  0  0  0  0  0  0  0
   18.4254    1.8241   12.2762 H   0  0  0  0  0  0  0  0  0  0  0  0
   16.3152    0.8063   11.9318 H   0  0  0  0  0  0  0  0  0  0  0  0
   14.0822    0.7911   11.9219 H   0  0  0  0  0  0  0  0  0  0  0  0
   14.3789   -0.6184   13.9874 H   0  0  0  0  0  0  0  0  0  0  0  0
   12.8262    0.1975   13.8892 H   0  0  0  0  0  0  0  0  0  0  0  0
   15.1463    1.0789   15.4809 H   0  0  0  0  0  0  0  0  0  0  0  0
   13.8072    2.7092   16.4388 H   0  0  0  0  0  0  0  0  0  0  0  0
   12.4199    2.1915   15.4660 H   0  0  0  0  0  0  0  0  0  0  0  0
   12.7798    2.6043   12.7243 H   0  0  0  0  0  0  0  0  0  0  0  0
   13.9413    4.5765   11.9164 H   0  0  0  0  0  0  0  0  0  0  0  0
   14.4284    3.2020   10.9154 H   0  0  0  0  0  0  0  0  0  0  0  0
   15.5244    3.8405   12.1606 H   0  0  0  0  0  0  0  0  0  0  0  0
  1  2  1  0
  2  3  2  0
  2  4  1  0
  4  5  1  0
  5  6  1  0
  6  7  1  0
  7  8  1  0
  8  9  1  0
  9 10  2  0
  9 11  1  0
 11 12  1  0
 11  5  1  0
  1 13  1  0
  1 14  1  0
  1 15  1  0
  4 16  1  0
  5 17  1  0
  6 18  1  0
  6 19  1  0
  7 20  1  0
  8 21  1  0
  8 22  1  0
 11 23  1  0
 12 24  1  0
 12 25  1  0
 12 26  1  0
M  END
>  <Energy>  (809) 
46.334942835147324

>  <compound_id>  (809) 
1094

>  <target_id>  (809) 
1

>  <reference_id>  (809) 
80

>  <inspiration_ids>  (809) 
[80, 120]

>  <energy_score>  (809) 
-9.58252900446223

>  <distance_score>  (809) 
4.482721060818789

>  <path>  (809) 
/opt/xchem-fragalysis-2/maxwin/BulkDock/SCRATCH/505733/C1094-P80/C1094-P80.minimised.mol

>  <scratch_subdir>  (809) 
/opt/xchem-fragalysis-2/maxwin/BulkDock/SCRATCH/505733/C1094-P80

>  <fragmenstein_runtime>  (809) 
1.7804594039916992

>  <fragmenstein_outcome>  (809) 
too moved

>  <fragmenstein_mode>  (809) 
expansion

>  <fragmenstein_error>  (809) 


$$$$
C1094-P120
     RDKit          3D

 26 26  0  0  0  0  0  0  0  0999 V2000
   18.5797    2.2752   13.1211 C   0  0  0  0  0  0  0  0  0  0  0  0
   17.2650    2.1316   13.8556 C   0  0  0  0  0  0  0  0  0  0  0  0
   17.1353    2.3599   14.9913 O   0  0  0  0  0  0  0  0  0  0  0  0
   16.2411    1.6194   12.8112 N   0  0  0  0  0  0  0  0  0  0  0  0
   14.8117    1.3720   12.9317 C   0  0  0  0  0  0  0  0  0  0  0  0
   14.4977    0.4188   14.1158 C   0  0  0  0  0  0  0  0  0  0  0  0
   13.4823    0.9302   15.0433 N   0  0  0  0  0  0  0  0  0  0  0  0
   13.8629    2.2639   15.5405 C   0  0  0  0  0  0  0  0  0  0  0  0
   13.9740    3.2517   14.3871 C   0  0  0  0  0  0  0  0  0  0  0  0
   14.0094    4.4680   14.5888 O   0  0  0  0  0  0  0  0  0  0  0  0
   13.9796    2.6688   12.9798 C   0  0  0  0  0  0  0  0  0  0  0  0
   14.4157    3.7003   11.9402 C   0  0  0  0  0  0  0  0  0  0  0  0
   19.3277    2.7020   13.7956 H   0  0  0  0  0  0  0  0  0  0  0  0
   18.9265    1.2943   12.7852 H   0  0  0  0  0  0  0  0  0  0  0  0
   18.4611    2.9468   12.2663 H   0  0  0  0  0  0  0  0  0  0  0  0
   16.7123    1.4513   11.9285 H   0  0  0  0  0  0  0  0  0  0  0  0
   14.5446    0.8493   12.0034 H   0  0  0  0  0  0  0  0  0  0  0  0
   15.4057    0.1597   14.6738 H   0  0  0  0  0  0  0  0  0  0  0  0
   14.1222   -0.5268   13.7059 H   0  0  0  0  0  0  0  0  0  0  0  0
   13.4188    0.2965   15.8405 H   0  0  0  0  0  0  0  0  0  0  0  0
   14.8066    2.2281   16.0909 H   0  0  0  0  0  0  0  0  0  0  0  0
   13.0750    2.6194   16.2122 H   0  0  0  0  0  0  0  0  0  0  0  0
   12.9331    2.4100   12.7646 H   0  0  0  0  0  0  0  0  0  0  0  0
   13.7113    4.5391   11.9116 H   0  0  0  0  0  0  0  0  0  0  0  0
   14.4467    3.2574   10.9394 H   0  0  0  0  0  0  0  0  0  0  0  0
   15.4030    4.1168   12.1671 H   0  0  0  0  0  0  0  0  0  0  0  0
  1  2  1  0
  2  3  2  0
  2  4  1  0
  4  5  1  0
  5  6  1  0
  6  7  1  0
  7  8  1  0
  8  9  1  0
  9 10  2  0
  9 11  1  0
 11 12  1  0
 11  5  1  0
  1 13  1  0
  1 14  1  0
  1 15  1  0
  4 16  1  0
  5 17  1  0
  6 18  1  0
  6 19  1  0
  7 20  1  0
  8 21  1  0
  8 22  1  0
 11 23  1  0
 12 24  1  0
 12 25  1  0
 12 26  1  0
M  END
>  <Energy>  (810) 
50.389711451164892

>  <compound_id>  (810) 
1094

>  <target_id>  (810) 
1

>  <reference_id>  (810) 
120

>  <inspiration_ids>  (810) 
[80, 120]

>  <energy_score>  (810) 
-5.527760388443426

>  <distance_score>  (810) 
4.754982542968105

>  <path>  (810) 
/opt/xchem-fragalysis-2/maxwin/BulkDock/SCRATCH/505733/C1094-P120/C1094-P120.minimised.mol

>  <scratch_subdir>  (810) 
/opt/xchem-fragalysis-2/maxwin/BulkDock/SCRATCH/505733/C1094-P120

>  <fragmenstein_runtime>  (810) 
1.2433629035949707

>  <fragmenstein_outcome>  (810) 
too moved

>  <fragmenstein_mode>  (810) 
expansion

>  <fragmenstein_error>  (810) 


$$$$
C1095-P80
     RDKit          3D

 49 49  0  0  0  0  0  0  0  0999 V2000
   16.1654   -1.2056   20.8198 C   0  0  0  0  0  0  0  0  0  0  0  0
   15.0473   -2.0599   20.2411 C   0  0  0  0  0  0  0  0  0  0  0  0
   15.2082   -2.2390   18.7279 C   0  0  0  0  0  0  0  0  0  0  0  0
   14.0622   -3.0554   18.0805 C   0  0  0  0  0  0  0  0  0  0  0  0
   14.1361   -4.5159   18.5374 C   0  0  0  0  0  0  0  0  0  0  0  0
   13.9936   -2.9542   16.5198 C   0  0  0  0  0  0  0  0  0  0  0  0
   15.3042   -3.5011   15.9416 C   0  0  0  0  0  0  0  0  0  0  0  0
   13.7568   -1.5225   15.9255 C   0  0  0  0  0  0  0  0  0  0  0  0
   12.8465   -0.6255   16.7676 C   0  0  0  0  0  0  0  0  0  0  0  0
   12.7597    0.7837   16.3678 N   0  0  0  0  0  0  0  0  0  0  0  0
   12.3926    1.0427   14.9676 C   0  0  0  0  0  0  0  0  0  0  0  0
   11.8501    2.4888   14.9291 C   0  0  0  0  0  0  0  0  0  0  0  0
   11.4614    3.0259   13.5476 C   0  0  0  0  0  0  0  0  0  0  0  0
   12.5551    3.0358   12.5839 N   0  0  0  0  0  0  0  0  0  0  0  0
   11.3895    0.0213   14.4211 C   0  0  0  0  0  0  0  0  0  0  0  0
   11.9911   -1.3714   14.1831 C   0  0  0  0  0  0  0  0  0  0  0  0
   11.1838   -2.3741   14.7703 O   0  0  0  0  0  0  0  0  0  0  0  0
   13.3878   -1.5598   14.4995 N   0  0  0  0  0  0  0  0  0  0  0  0
   16.1705   -0.2080   20.3691 H   0  0  0  0  0  0  0  0  0  0  0  0
   16.0324   -1.0891   21.9000 H   0  0  0  0  0  0  0  0  0  0  0  0
   17.1424   -1.6674   20.6453 H   0  0  0  0  0  0  0  0  0  0  0  0
   14.0889   -1.5808   20.4604 H   0  0  0  0  0  0  0  0  0  0  0  0
   15.0519   -3.0313   20.7459 H   0  0  0  0  0  0  0  0  0  0  0  0
   15.2794   -1.2486   18.2669 H   0  0  0  0  0  0  0  0  0  0  0  0
   16.1702   -2.7326   18.5441 H   0  0  0  0  0  0  0  0  0  0  0  0
   13.1060   -2.6972   18.4511 H   0  0  0  0  0  0  0  0  0  0  0  0
   13.8612   -4.6144   19.5924 H   0  0  0  0  0  0  0  0  0  0  0  0
   15.1398   -4.9336   18.4134 H   0  0  0  0  0  0  0  0  0  0  0  0
   13.4358   -5.1231   17.9617 H   0  0  0  0  0  0  0  0  0  0  0  0
   13.1672   -3.5961   16.1870 H   0  0  0  0  0  0  0  0  0  0  0  0
   15.4066   -3.3277   14.8683 H   0  0  0  0  0  0  0  0  0  0  0  0
   16.1818   -3.0210   16.3851 H   0  0  0  0  0  0  0  0  0  0  0  0
   15.3956   -4.5783   16.1089 H   0  0  0  0  0  0  0  0  0  0  0  0
   14.7399   -1.0301   15.9376 H   0  0  0  0  0  0  0  0  0  0  0  0
   13.2337   -0.5795   17.7851 H   0  0  0  0  0  0  0  0  0  0  0  0
   11.8462   -1.0554   16.8398 H   0  0  0  0  0  0  0  0  0  0  0  0
   13.6586    1.2331   16.5481 H   0  0  0  0  0  0  0  0  0  0  0  0
   13.3066    1.0149   14.3616 H   0  0  0  0  0  0  0  0  0  0  0  0
   12.6018    3.1662   15.3586 H   0  0  0  0  0  0  0  0  0  0  0  0
   10.9668    2.5621   15.5787 H   0  0  0  0  0  0  0  0  0  0  0  0
   11.1015    4.0547   13.6631 H   0  0  0  0  0  0  0  0  0  0  0  0
   10.6237    2.4599   13.1335 H   0  0  0  0  0  0  0  0  0  0  0  0
   12.9086    2.0911   12.4375 H   0  0  0  0  0  0  0  0  0  0  0  0
   13.3384    3.5678   12.9639 H   0  0  0  0  0  0  0  0  0  0  0  0
   10.5109   -0.0359   15.0776 H   0  0  0  0  0  0  0  0  0  0  0  0
   11.0139    0.3692   13.4526 H   0  0  0  0  0  0  0  0  0  0  0  0
   11.9458   -1.5538   13.1100 H   0  0  0  0  0  0  0  0  0  0  0  0
   10.3775   -2.3769   14.2090 H   0  0  0  0  0  0  0  0  0  0  0  0
   13.6723   -2.4445   14.0954 H   0  0  0  0  0  0  0  0  0  0  0  0
  1  2  1  0
  2  3  1  0
  3  4  1  0
  4  5  1  0
  4  6  1  0
  6  7  1  0
  6  8  1  0
  8  9  1  0
  9 10  1  0
 10 11  1  0
 11 12  1  0
 12 13  1  0
 13 14  1  0
 11 15  1  0
 15 16  1  0
 16 17  1  0
 16 18  1  0
 18  8  1  0
  1 19  1  0
  1 20  1  0
  1 21  1  0
  2 22  1  0
  2 23  1  0
  3 24  1  0
  3 25  1  0
  4 26  1  0
  5 27  1  0
  5 28  1  0
  5 29  1  0
  6 30  1  0
  7 31  1  0
  7 32  1  0
  7 33  1  0
  8 34  1  0
  9 35  1  0
  9 36  1  0
 10 37  1  0
 11 38  1  0
 12 39  1  0
 12 40  1  0
 13 41  1  0
 13 42  1  0
 14 43  1  0
 14 44  1  0
 15 45  1  0
 15 46  1  0
 16 47  1  0
 17 48  1  0
 18 49  1  0
M  END
>  <Energy>  (811) 
18.991237611924575

>  <compound_id>  (811) 
1095

>  <target_id>  (811) 
1

>  <reference_id>  (811) 
80

>  <inspiration_ids>  (811) 
[80, 122]

>  <energy_score>  (811) 
-72.35156295347832

>  <distance_score>  (811) 
2.04590308516874

>  <path>  (811) 
/opt/xchem-fragalysis-2/maxwin/BulkDock/SCRATCH/505733/C1095-P80/C1095-P80.minimised.mol

>  <scratch_subdir>  (811) 
/opt/xchem-fragalysis-2/maxwin/BulkDock/SCRATCH/505733/C1095-P80

>  <fragmenstein_runtime>  (811) 
1.9269969463348389

>  <fragmenstein_outcome>  (811) 
too moved

>  <fragmenstein_mode>  (811) 
expansion

>  <fragmenstein_error>  (811) 


$$$$
C1095-P122
     RDKit          3D

 49 49  0  0  0  0  0  0  0  0999 V2000
   16.9993   -3.3175   20.0239 C   0  0  0  0  0  0  0  0  0  0  0  0
   15.6650   -3.1115   19.3219 C   0  0  0  0  0  0  0  0  0  0  0  0
   15.5837   -3.9382   18.0327 C   0  0  0  0  0  0  0  0  0  0  0  0
   14.2930   -3.7320   17.1939 C   0  0  0  0  0  0  0  0  0  0  0  0
   13.0990   -4.1669   18.0257 C   0  0  0  0  0  0  0  0  0  0  0  0
   14.0557   -2.2898   16.6465 C   0  0  0  0  0  0  0  0  0  0  0  0
   15.3645   -1.7045   16.1344 C   0  0  0  0  0  0  0  0  0  0  0  0
   12.8751   -2.1918   15.6098 C   0  0  0  0  0  0  0  0  0  0  0  0
   13.2315   -1.6410   14.1956 C   0  0  0  0  0  0  0  0  0  0  0  0
   13.4505   -0.2095   13.9939 N   0  0  0  0  0  0  0  0  0  0  0  0
   12.4907    0.7459   14.5439 C   0  0  0  0  0  0  0  0  0  0  0  0
   12.9537    1.4001   15.8722 C   0  0  0  0  0  0  0  0  0  0  0  0
   14.1388    2.3539   15.6938 C   0  0  0  0  0  0  0  0  0  0  0  0
   14.5066    2.9768   16.9643 N   0  0  0  0  0  0  0  0  0  0  0  0
   11.0281    0.2718   14.6125 C   0  0  0  0  0  0  0  0  0  0  0  0
   10.7516   -1.0509   15.3279 C   0  0  0  0  0  0  0  0  0  0  0  0
    9.5281   -0.9174   16.0561 O   0  0  0  0  0  0  0  0  0  0  0  0
   11.7811   -1.4351   16.2555 N   0  0  0  0  0  0  0  0  0  0  0  0
   17.8307   -3.0010   19.3860 H   0  0  0  0  0  0  0  0  0  0  0  0
   17.0366   -2.7297   20.9465 H   0  0  0  0  0  0  0  0  0  0  0  0
   17.1467   -4.3701   20.2855 H   0  0  0  0  0  0  0  0  0  0  0  0
   15.5386   -2.0449   19.1122 H   0  0  0  0  0  0  0  0  0  0  0  0
   14.8631   -3.4019   20.0092 H   0  0  0  0  0  0  0  0  0  0  0  0
   16.4654   -3.7517   17.4084 H   0  0  0  0  0  0  0  0  0  0  0  0
   15.6567   -4.9991   18.3061 H   0  0  0  0  0  0  0  0  0  0  0  0
   14.3773   -4.4079   16.3341 H   0  0  0  0  0  0  0  0  0  0  0  0
   12.8708   -3.4184   18.7834 H   0  0  0  0  0  0  0  0  0  0  0  0
   13.2980   -5.0906   18.5688 H   0  0  0  0  0  0  0  0  0  0  0  0
   12.2200   -4.3171   17.3952 H   0  0  0  0  0  0  0  0  0  0  0  0
   13.7979   -1.6669   17.5150 H   0  0  0  0  0  0  0  0  0  0  0  0
   15.2546   -0.6585   15.8505 H   0  0  0  0  0  0  0  0  0  0  0  0
   15.7678   -2.2715   15.2899 H   0  0  0  0  0  0  0  0  0  0  0  0
   16.1391   -1.6788   16.9057 H   0  0  0  0  0  0  0  0  0  0  0  0
   12.4944   -3.2061   15.4329 H   0  0  0  0  0  0  0  0  0  0  0  0
   12.4460   -1.9467   13.4922 H   0  0  0  0  0  0  0  0  0  0  0  0
   14.1158   -2.1632   13.8153 H   0  0  0  0  0  0  0  0  0  0  0  0
   14.4058    0.0513   14.2157 H   0  0  0  0  0  0  0  0  0  0  0  0
   12.4743    1.5693   13.8157 H   0  0  0  0  0  0  0  0  0  0  0  0
   13.2188    0.6414   16.6146 H   0  0  0  0  0  0  0  0  0  0  0  0
   12.1175    1.9702   16.2983 H   0  0  0  0  0  0  0  0  0  0  0  0
   13.8846    3.1427   14.9778 H   0  0  0  0  0  0  0  0  0  0  0  0
   15.0137    1.8270   15.3021 H   0  0  0  0  0  0  0  0  0  0  0  0
   14.7434    2.2505   17.6402 H   0  0  0  0  0  0  0  0  0  0  0  0
   13.6928    3.4526   17.3577 H   0  0  0  0  0  0  0  0  0  0  0  0
   10.4209    1.0719   15.0582 H   0  0  0  0  0  0  0  0  0  0  0  0
   10.6569    0.1871   13.5838 H   0  0  0  0  0  0  0  0  0  0  0  0
   10.5766   -1.8744   14.6362 H   0  0  0  0  0  0  0  0  0  0  0  0
    8.8594   -0.8477   15.3430 H   0  0  0  0  0  0  0  0  0  0  0  0
   11.3680   -2.0350   16.9598 H   0  0  0  0  0  0  0  0  0  0  0  0
  1  2  1  0
  2  3  1  0
  3  4  1  0
  4  5  1  0
  4  6  1  0
  6  7  1  0
  6  8  1  0
  8  9  1  0
  9 10  1  0
 10 11  1  0
 11 12  1  0
 12 13  1  0
 13 14  1  0
 11 15  1  0
 15 16  1  0
 16 17  1  0
 16 18  1  0
 18  8  1  0
  1 19  1  0
  1 20  1  0
  1 21  1  0
  2 22  1  0
  2 23  1  0
  3 24  1  0
  3 25  1  0
  4 26  1  0
  5 27  1  0
  5 28  1  0
  5 29  1  0
  6 30  1  0
  7 31  1  0
  7 32  1  0
  7 33  1  0
  8 34  1  0
  9 35  1  0
  9 36  1  0
 10 37  1  0
 11 38  1  0
 12 39  1  0
 12 40  1  0
 13 41  1  0
 13 42  1  0
 14 43  1  0
 14 44  1  0
 15 45  1  0
 15 46  1  0
 16 47  1  0
 17 48  1  0
 18 49  1  0
M  END
>  <Energy>  (812) 
25.435612521724032

>  <compound_id>  (812) 
1095

>  <target_id>  (812) 
1

>  <reference_id>  (812) 
122

>  <inspiration_ids>  (812) 
[80, 122]

>  <energy_score>  (812) 
-65.90718804367927

>  <distance_score>  (812) 
1.9831685878682574

>  <path>  (812) 
/opt/xchem-fragalysis-2/maxwin/BulkDock/SCRATCH/505733/C1095-P122/C1095-P122.minimised.mol

>  <scratch_subdir>  (812) 
/opt/xchem-fragalysis-2/maxwin/BulkDock/SCRATCH/505733/C1095-P122

>  <fragmenstein_runtime>  (812) 
1.5004830360412598

>  <fragmenstein_outcome>  (812) 
too moved

>  <fragmenstein_mode>  (812) 
expansion

>  <fragmenstein_error>  (812) 


$$$$
C1096-P80
     RDKit          3D

 34 35  0  0  0  0  0  0  0  0999 V2000
   16.6721   -0.2848   15.9020 C   0  0  0  0  0  0  0  0  0  0  0  0
   16.5383   -1.7736   15.5678 C   0  0  0  0  0  0  0  0  0  0  0  0
   16.7436   -1.9811   14.1925 O   0  0  0  0  0  0  0  0  0  0  0  0
   17.6060   -2.4718   16.1891 O   0  0  0  0  0  0  0  0  0  0  0  0
   15.1780   -2.3780   15.9603 C   0  0  0  0  0  0  0  0  0  0  0  0
   15.1255   -2.6396   17.4754 C   0  0  0  0  0  0  0  0  0  0  0  0
   13.8018   -2.2531   18.0807 C   0  0  0  0  0  0  0  0  0  0  0  0
   13.4361   -0.8978   17.6201 N   0  0  0  0  0  0  0  0  0  0  0  0
   13.2954   -0.7527   16.2571 C   0  0  0  0  0  0  0  0  0  0  0  0
   14.0470   -1.5165   15.4443 C   0  0  0  0  0  0  0  0  0  0  0  0
   13.5147   -1.7793   14.0758 C   0  0  0  0  0  0  0  0  0  0  0  0
   12.1026   -2.2594   14.3886 C   0  0  0  0  0  0  0  0  0  0  0  0
   11.5921   -2.9775   13.3023 O   0  0  0  0  0  0  0  0  0  0  0  0
   11.2694   -1.0321   14.7971 C   0  0  0  0  0  0  0  0  0  0  0  0
   12.0731   -0.0766   15.6902 C   0  0  0  0  0  0  0  0  0  0  0  0
   16.4897   -0.0843   16.9621 H   0  0  0  0  0  0  0  0  0  0  0  0
   17.6939    0.0562   15.6944 H   0  0  0  0  0  0  0  0  0  0  0  0
   16.0101    0.3386   15.2929 H   0  0  0  0  0  0  0  0  0  0  0  0
   17.4546   -1.3777   13.9237 H   0  0  0  0  0  0  0  0  0  0  0  0
   17.4841   -3.3960   15.9107 H   0  0  0  0  0  0  0  0  0  0  0  0
   15.0900   -3.3663   15.4923 H   0  0  0  0  0  0  0  0  0  0  0  0
   15.3349   -3.6971   17.6802 H   0  0  0  0  0  0  0  0  0  0  0  0
   15.9085   -2.0775   18.0000 H   0  0  0  0  0  0  0  0  0  0  0  0
   13.0184   -2.9693   17.8040 H   0  0  0  0  0  0  0  0  0  0  0  0
   13.8965   -2.2660   19.1718 H   0  0  0  0  0  0  0  0  0  0  0  0
   14.0845   -0.1988   17.9874 H   0  0  0  0  0  0  0  0  0  0  0  0
   14.1051   -2.5054   13.5179 H   0  0  0  0  0  0  0  0  0  0  0  0
   13.5202   -0.8743   13.4551 H   0  0  0  0  0  0  0  0  0  0  0  0
   12.0992   -2.9762   15.2223 H   0  0  0  0  0  0  0  0  0  0  0  0
   10.6380   -2.7715   13.3082 H   0  0  0  0  0  0  0  0  0  0  0  0
   10.9364   -0.4711   13.9172 H   0  0  0  0  0  0  0  0  0  0  0  0
   10.3589   -1.3667   15.3093 H   0  0  0  0  0  0  0  0  0  0  0  0
   12.4004    0.7928   15.1046 H   0  0  0  0  0  0  0  0  0  0  0  0
   11.4115    0.3206   16.4515 H   0  0  0  0  0  0  0  0  0  0  0  0
  1  2  1  0
  2  3  1  0
  2  4  1  0
  2  5  1  0
  5  6  1  0
  6  7  1  0
  7  8  1  0
  8  9  1  0
  9 10  2  0
 10 11  1  0
 11 12  1  0
 12 13  1  0
 12 14  1  0
 14 15  1  0
 10  5  1  0
 15  9  1  0
  1 16  1  0
  1 17  1  0
  1 18  1  0
  3 19  1  0
  4 20  1  0
  5 21  1  0
  6 22  1  0
  6 23  1  0
  7 24  1  0
  7 25  1  0
  8 26  1  0
 11 27  1  0
 11 28  1  0
 12 29  1  0
 13 30  1  0
 14 31  1  0
 14 32  1  0
 15 33  1  0
 15 34  1  0
M  END
>  <Energy>  (813) 
24.060144885669025

>  <compound_id>  (813) 
1096

>  <target_id>  (813) 
1

>  <reference_id>  (813) 
80

>  <inspiration_ids>  (813) 
[80, 124]

>  <energy_score>  (813) 
-9.030523499868195

>  <distance_score>  (813) 
2.1808530745094235

>  <path>  (813) 
/opt/xchem-fragalysis-2/maxwin/BulkDock/SCRATCH/505733/C1096-P80/C1096-P80.minimised.mol

>  <scratch_subdir>  (813) 
/opt/xchem-fragalysis-2/maxwin/BulkDock/SCRATCH/505733/C1096-P80

>  <fragmenstein_runtime>  (813) 
24.19210648536682

>  <fragmenstein_outcome>  (813) 
too moved

>  <fragmenstein_mode>  (813) 
expansion

>  <fragmenstein_error>  (813) 


$$$$
C1096-P124
     RDKit          3D

 34 35  0  0  0  0  0  0  0  0999 V2000
   16.0948   -0.4226   14.5542 C   0  0  0  0  0  0  0  0  0  0  0  0
   15.8079   -0.8309   15.9868 C   0  0  0  0  0  0  0  0  0  0  0  0
   17.0884   -1.0523   16.5675 O   0  0  0  0  0  0  0  0  0  0  0  0
   15.2518    0.2551   16.7107 O   0  0  0  0  0  0  0  0  0  0  0  0
   14.9934   -2.1309   16.1883 C   0  0  0  0  0  0  0  0  0  0  0  0
   14.8931   -2.4030   17.7106 C   0  0  0  0  0  0  0  0  0  0  0  0
   14.2704   -3.7436   18.0009 C   0  0  0  0  0  0  0  0  0  0  0  0
   13.1066   -3.9686   17.1915 N   0  0  0  0  0  0  0  0  0  0  0  0
   12.7862   -3.2131   16.0870 C   0  0  0  0  0  0  0  0  0  0  0  0
   13.6096   -2.2783   15.5761 C   0  0  0  0  0  0  0  0  0  0  0  0
   13.1684   -1.3944   14.4454 C   0  0  0  0  0  0  0  0  0  0  0  0
   11.7432   -1.6194   13.9527 C   0  0  0  0  0  0  0  0  0  0  0  0
   11.2304   -0.3887   13.4580 O   0  0  0  0  0  0  0  0  0  0  0  0
   10.8313   -2.1924   15.0141 C   0  0  0  0  0  0  0  0  0  0  0  0
   11.4330   -3.4552   15.5076 C   0  0  0  0  0  0  0  0  0  0  0  0
   15.2731    0.1199   14.0828 H   0  0  0  0  0  0  0  0  0  0  0  0
   16.9520    0.2625   14.5169 H   0  0  0  0  0  0  0  0  0  0  0  0
   16.3660   -1.2872   13.9390 H   0  0  0  0  0  0  0  0  0  0  0  0
   16.9809   -0.7394   17.4821 H   0  0  0  0  0  0  0  0  0  0  0  0
   15.4055    1.0611   16.1894 H   0  0  0  0  0  0  0  0  0  0  0  0
   15.6016   -2.9394   15.7524 H   0  0  0  0  0  0  0  0  0  0  0  0
   15.8801   -2.3965   18.1865 H   0  0  0  0  0  0  0  0  0  0  0  0
   14.3193   -1.6115   18.2030 H   0  0  0  0  0  0  0  0  0  0  0  0
   15.0238   -4.5056   17.7959 H   0  0  0  0  0  0  0  0  0  0  0  0
   14.0137   -3.8243   19.0627 H   0  0  0  0  0  0  0  0  0  0  0  0
   12.3076   -4.3752   17.6823 H   0  0  0  0  0  0  0  0  0  0  0  0
   13.8382   -1.5315   13.5889 H   0  0  0  0  0  0  0  0  0  0  0  0
   13.2600   -0.3505   14.7651 H   0  0  0  0  0  0  0  0  0  0  0  0
   11.7861   -2.3226   13.1218 H   0  0  0  0  0  0  0  0  0  0  0  0
   10.3071   -0.5860   13.1855 H   0  0  0  0  0  0  0  0  0  0  0  0
   10.7534   -1.5424   15.8543 H   0  0  0  0  0  0  0  0  0  0  0  0
    9.8077   -2.3610   14.6845 H   0  0  0  0  0  0  0  0  0  0  0  0
   11.4562   -4.1001   14.6464 H   0  0  0  0  0  0  0  0  0  0  0  0
   10.8027   -3.9204   16.2486 H   0  0  0  0  0  0  0  0  0  0  0  0
  1  2  1  0
  2  3  1  0
  2  4  1  0
  2  5  1  0
  5  6  1  0
  6  7  1  0
  7  8  1  0
  8  9  1  0
  9 10  2  0
 10 11  1  0
 11 12  1  0
 12 13  1  0
 12 14  1  0
 14 15  1  0
 10  5  1  0
 15  9  1  0
  1 16  1  0
  1 17  1  0
  1 18  1  0
  3 19  1  0
  4 20  1  0
  5 21  1  0
  6 22  1  0
  6 23  1  0
  7 24  1  0
  7 25  1  0
  8 26  1  0
 11 27  1  0
 11 28  1  0
 12 29  1  0
 13 30  1  0
 14 31  1  0
 14 32  1  0
 15 33  1  0
 15 34  1  0
M  END
>  <Energy>  (814) 
9.8887872072525518

>  <compound_id>  (814) 
1096

>  <target_id>  (814) 
1

>  <reference_id>  (814) 
124

>  <inspiration_ids>  (814) 
[80, 124]

>  <energy_score>  (814) 
-23.201881178283173

>  <distance_score>  (814) 
2.4577465539466665

>  <path>  (814) 
/opt/xchem-fragalysis-2/maxwin/BulkDock/SCRATCH/505733/C1096-P124/C1096-P124.minimised.mol

>  <scratch_subdir>  (814) 
/opt/xchem-fragalysis-2/maxwin/BulkDock/SCRATCH/505733/C1096-P124

>  <fragmenstein_runtime>  (814) 
26.11924695968628

>  <fragmenstein_outcome>  (814) 
too moved

>  <fragmenstein_mode>  (814) 
expansion

>  <fragmenstein_error>  (814) 


$$$$
C1098-P80
     RDKit          3D

 37 38  0  0  0  0  0  0  0  0999 V2000
   13.8951   -3.8672   19.4394 C   0  0  0  0  0  0  0  0  0  0  0  0
   14.9846   -4.0199   18.5524 O   0  0  0  0  0  0  0  0  0  0  0  0
   16.1375   -3.2421   18.9069 C   0  0  0  0  0  0  0  0  0  0  0  0
   16.0376   -1.6785   18.7018 C   0  0  0  0  0  0  0  0  0  0  0  0
   15.6088   -1.0991   19.9889 N   0  0  0  0  0  0  0  0  0  0  0  0
   16.1499    0.0209   20.6073 C   0  0  0  0  0  0  0  0  0  0  0  0
   17.3883    0.5837   20.2839 C   0  0  0  0  0  0  0  0  0  0  0  0
   17.9480    1.6770   20.8677 N   0  0  0  0  0  0  0  0  0  0  0  0
   17.2434    2.2586   21.8520 C   0  0  0  0  0  0  0  0  0  0  0  0
   16.0270    1.7808   22.2937 C   0  0  0  0  0  0  0  0  0  0  0  0
   15.4848    0.6360   21.6887 C   0  0  0  0  0  0  0  0  0  0  0  0
   14.1676    0.1365   22.2060 C   0  0  0  0  0  0  0  0  0  0  0  0
   15.1191   -1.3561   17.5058 C   0  0  0  0  0  0  0  0  0  0  0  0
   15.3984   -1.9568   16.2675 C   0  0  0  0  0  0  0  0  0  0  0  0
   14.3929   -2.1830   15.3423 C   0  0  0  0  0  0  0  0  0  0  0  0
   13.1026   -1.8451   15.6836 C   0  0  0  0  0  0  0  0  0  0  0  0
   11.9980   -2.5557   15.1391 C   0  0  0  0  0  0  0  0  0  0  0  0
   11.0781   -3.1720   14.8007 N   0  0  0  0  0  0  0  0  0  0  0  0
   12.8926   -0.9518   16.7226 C   0  0  0  0  0  0  0  0  0  0  0  0
   13.9135   -0.6766   17.6280 C   0  0  0  0  0  0  0  0  0  0  0  0
   14.2040   -4.0504   20.4730 H   0  0  0  0  0  0  0  0  0  0  0  0
   13.1380   -4.6079   19.1728 H   0  0  0  0  0  0  0  0  0  0  0  0
   13.4518   -2.8819   19.3514 H   0  0  0  0  0  0  0  0  0  0  0  0
   16.4540   -3.4918   19.9277 H   0  0  0  0  0  0  0  0  0  0  0  0
   16.9351   -3.6069   18.2479 H   0  0  0  0  0  0  0  0  0  0  0  0
   17.0439   -1.3310   18.4493 H   0  0  0  0  0  0  0  0  0  0  0  0
   14.6562   -1.3247   20.2496 H   0  0  0  0  0  0  0  0  0  0  0  0
   18.0153    0.1666   19.5039 H   0  0  0  0  0  0  0  0  0  0  0  0
   17.6992    3.1372   22.2978 H   0  0  0  0  0  0  0  0  0  0  0  0
   15.5148    2.2867   23.1055 H   0  0  0  0  0  0  0  0  0  0  0  0
   14.2099   -0.9416   22.3885 H   0  0  0  0  0  0  0  0  0  0  0  0
   13.3891    0.3736   21.4788 H   0  0  0  0  0  0  0  0  0  0  0  0
   13.8972    0.6093   23.1564 H   0  0  0  0  0  0  0  0  0  0  0  0
   16.3760   -2.4007   16.0816 H   0  0  0  0  0  0  0  0  0  0  0  0
   14.6368   -2.7279   14.4417 H   0  0  0  0  0  0  0  0  0  0  0  0
   11.8957   -0.5659   16.8801 H   0  0  0  0  0  0  0  0  0  0  0  0
   13.7158   -0.0626   18.5009 H   0  0  0  0  0  0  0  0  0  0  0  0
  1  2  1  0
  2  3  1  0
  3  4  1  0
  4  5  1  0
  5  6  1  0
  6  7  2  0
  7  8  1  0
  8  9  2  0
  9 10  1  0
 10 11  2  0
 11 12  1  0
  4 13  1  0
 13 14  2  0
 14 15  1  0
 15 16  2  0
 16 17  1  0
 17 18  3  0
 16 19  1  0
 19 20  2  0
 11  6  1  0
 20 13  1  0
  1 21  1  0
  1 22  1  0
  1 23  1  0
  3 24  1  0
  3 25  1  0
  4 26  1  0
  5 27  1  0
  7 28  1  0
  9 29  1  0
 10 30  1  0
 12 31  1  0
 12 32  1  0
 12 33  1  0
 14 34  1  0
 15 35  1  0
 19 36  1  0
 20 37  1  0
M  END
>  <Energy>  (815) 
134.17390720503781

>  <compound_id>  (815) 
1098

>  <target_id>  (815) 
1

>  <reference_id>  (815) 
80

>  <inspiration_ids>  (815) 
[80, 184]

>  <energy_score>  (815) 
2.254455484944657

>  <distance_score>  (815) 
1.9472264750334691

>  <path>  (815) 
/opt/xchem-fragalysis-2/maxwin/BulkDock/SCRATCH/505733/C1098-P80/C1098-P80.minimised.mol

>  <scratch_subdir>  (815) 
/opt/xchem-fragalysis-2/maxwin/BulkDock/SCRATCH/505733/C1098-P80

>  <fragmenstein_runtime>  (815) 
21.584183931350708

>  <fragmenstein_outcome>  (815) 
too moved

>  <fragmenstein_mode>  (815) 
expansion

>  <fragmenstein_error>  (815) 


$$$$
C1098-P184
     RDKit          3D

 37 38  0  0  0  0  0  0  0  0999 V2000
   13.9461   -3.9863   19.3144 C   0  0  0  0  0  0  0  0  0  0  0  0
   15.0613   -4.0187   18.4472 O   0  0  0  0  0  0  0  0  0  0  0  0
   16.1457   -3.1744   18.8525 C   0  0  0  0  0  0  0  0  0  0  0  0
   15.9535   -1.6325   18.5844 C   0  0  0  0  0  0  0  0  0  0  0  0
   15.4654   -1.0057   19.8318 N   0  0  0  0  0  0  0  0  0  0  0  0
   16.1159   -0.0342   20.5849 C   0  0  0  0  0  0  0  0  0  0  0  0
   17.2682    0.6462   20.1788 C   0  0  0  0  0  0  0  0  0  0  0  0
   17.8619    1.6806   20.8325 N   0  0  0  0  0  0  0  0  0  0  0  0
   17.2620    2.1046   21.9560 C   0  0  0  0  0  0  0  0  0  0  0  0
   16.1137    1.5301   22.4604 C   0  0  0  0  0  0  0  0  0  0  0  0
   15.5385    0.4430   21.7818 C   0  0  0  0  0  0  0  0  0  0  0  0
   14.2777   -0.1395   22.3538 C   0  0  0  0  0  0  0  0  0  0  0  0
   15.0092   -1.4133   17.3797 C   0  0  0  0  0  0  0  0  0  0  0  0
   15.3103   -2.0172   16.1463 C   0  0  0  0  0  0  0  0  0  0  0  0
   14.3105   -2.2895   15.2233 C   0  0  0  0  0  0  0  0  0  0  0  0
   13.0066   -1.9840   15.5561 C   0  0  0  0  0  0  0  0  0  0  0  0
   11.9513   -2.6591   14.8932 C   0  0  0  0  0  0  0  0  0  0  0  0
   11.1042   -3.2404   14.3620 N   0  0  0  0  0  0  0  0  0  0  0  0
   12.7448   -1.1348   16.6206 C   0  0  0  0  0  0  0  0  0  0  0  0
   13.7595   -0.8202   17.5186 C   0  0  0  0  0  0  0  0  0  0  0  0
   13.5400   -2.9858   19.4028 H   0  0  0  0  0  0  0  0  0  0  0  0
   14.2238   -4.3620   20.3037 H   0  0  0  0  0  0  0  0  0  0  0  0
   13.1733   -4.6375   18.9013 H   0  0  0  0  0  0  0  0  0  0  0  0
   16.4158   -3.3770   19.8965 H   0  0  0  0  0  0  0  0  0  0  0  0
   17.0001   -3.5037   18.2482 H   0  0  0  0  0  0  0  0  0  0  0  0
   16.9305   -1.2249   18.3100 H   0  0  0  0  0  0  0  0  0  0  0  0
   14.8232   -1.5867   20.3600 H   0  0  0  0  0  0  0  0  0  0  0  0
   17.7814    0.3964   19.2569 H   0  0  0  0  0  0  0  0  0  0  0  0
   17.7418    2.9397   22.4570 H   0  0  0  0  0  0  0  0  0  0  0  0
   15.6761    1.9208   23.3734 H   0  0  0  0  0  0  0  0  0  0  0  0
   13.4322    0.1596   21.7368 H   0  0  0  0  0  0  0  0  0  0  0  0
   14.0925    0.2173   23.3729 H   0  0  0  0  0  0  0  0  0  0  0  0
   14.3421   -1.2303   22.4097 H   0  0  0  0  0  0  0  0  0  0  0  0
   16.3077   -2.4162   15.9678 H   0  0  0  0  0  0  0  0  0  0  0  0
   14.5421   -2.8486   14.3217 H   0  0  0  0  0  0  0  0  0  0  0  0
   11.7310   -0.7969   16.7966 H   0  0  0  0  0  0  0  0  0  0  0  0
   13.5485   -0.2305   18.4035 H   0  0  0  0  0  0  0  0  0  0  0  0
  1  2  1  0
  2  3  1  0
  3  4  1  0
  4  5  1  0
  5  6  1  0
  6  7  2  0
  7  8  1  0
  8  9  2  0
  9 10  1  0
 10 11  2  0
 11 12  1  0
  4 13  1  0
 13 14  2  0
 14 15  1  0
 15 16  2  0
 16 17  1  0
 17 18  3  0
 16 19  1  0
 19 20  2  0
 11  6  1  0
 20 13  1  0
  1 21  1  0
  1 22  1  0
  1 23  1  0
  3 24  1  0
  3 25  1  0
  4 26  1  0
  5 27  1  0
  7 28  1  0
  9 29  1  0
 10 30  1  0
 12 31  1  0
 12 32  1  0
 12 33  1  0
 14 34  1  0
 15 35  1  0
 19 36  1  0
 20 37  1  0
M  END
>  <Energy>  (816) 
130.40152619778291

>  <compound_id>  (816) 
1098

>  <target_id>  (816) 
1

>  <reference_id>  (816) 
184

>  <inspiration_ids>  (816) 
[80, 184]

>  <energy_score>  (816) 
-1.5179255223106907

>  <distance_score>  (816) 
1.9449303811311478

>  <path>  (816) 
/opt/xchem-fragalysis-2/maxwin/BulkDock/SCRATCH/505733/C1098-P184/C1098-P184.minimised.mol

>  <scratch_subdir>  (816) 
/opt/xchem-fragalysis-2/maxwin/BulkDock/SCRATCH/505733/C1098-P184

>  <fragmenstein_runtime>  (816) 
20.856611967086792

>  <fragmenstein_outcome>  (816) 
too moved

>  <fragmenstein_mode>  (816) 
expansion

>  <fragmenstein_error>  (816) 


$$$$
C1100-P81
     RDKit          3D

 60 60  0  0  0  0  0  0  0  0999 V2000
   13.7335   -4.5033   19.1549 C   0  0  0  0  0  0  0  0  0  0  0  0
   13.4687   -3.3828   18.2853 N   0  0  0  0  0  0  0  0  0  0  0  0
   12.8171   -3.6943   17.0102 C   0  0  0  0  0  0  0  0  0  0  0  0
   12.4036   -2.3416   16.4321 C   0  0  0  0  0  0  0  0  0  0  0  0
   11.7590   -2.2867   15.0617 C   0  0  0  0  0  0  0  0  0  0  0  0
   11.5181   -0.8445   14.5635 C   0  0  0  0  0  0  0  0  0  0  0  0
   11.7945    0.2400   15.4876 N   0  0  0  0  0  0  0  0  0  0  0  0
   13.1682    0.9265   15.8935 C   0  0  0  0  0  0  0  0  0  0  0  0
   13.0332    1.9875   16.9704 C   0  0  0  0  0  0  0  0  0  0  0  0
   14.2891    0.7566   15.4664 N   0  0  0  0  0  0  0  0  0  0  0  0
   14.7796   -0.0589   14.3895 C   0  0  0  0  0  0  0  0  0  0  0  0
   14.2816    0.5915   13.0959 C   0  0  0  0  0  0  0  0  0  0  0  0
   14.1587   -0.3191   11.8944 C   0  0  0  0  0  0  0  0  0  0  0  0
   15.3398   -0.7765   11.1787 N   0  0  0  0  0  0  0  0  0  0  0  0
   16.1179   -1.8182   11.8413 C   0  0  0  0  0  0  0  0  0  0  0  0
   17.1801   -2.3997   10.9189 C   0  0  0  0  0  0  0  0  0  0  0  0
   18.0287   -1.3110   10.2808 C   0  0  0  0  0  0  0  0  0  0  0  0
   17.1653   -0.2081    9.6811 C   0  0  0  0  0  0  0  0  0  0  0  0
   16.1671    0.3238   10.7002 C   0  0  0  0  0  0  0  0  0  0  0  0
   14.5352   -1.4679   14.5656 N   0  0  0  0  0  0  0  0  0  0  0  0
   15.4920   -2.1774   15.3985 C   0  0  0  0  0  0  0  0  0  0  0  0
   15.8910   -1.5197   16.7213 C   0  0  0  0  0  0  0  0  0  0  0  0
   16.1559   -2.5549   17.6547 O   0  0  0  0  0  0  0  0  0  0  0  0
   12.8329   -5.0762   19.3748 H   0  0  0  0  0  0  0  0  0  0  0  0
   14.5019   -5.1539   18.7366 H   0  0  0  0  0  0  0  0  0  0  0  0
   14.1134   -4.1324   20.1125 H   0  0  0  0  0  0  0  0  0  0  0  0
   14.3604   -2.9026   18.1115 H   0  0  0  0  0  0  0  0  0  0  0  0
   11.9256   -4.3077   17.1553 H   0  0  0  0  0  0  0  0  0  0  0  0
   13.4889   -4.2425   16.3472 H   0  0  0  0  0  0  0  0  0  0  0  0
   11.6991   -1.8728   17.0948 H   0  0  0  0  0  0  0  0  0  0  0  0
   13.2458   -1.6681   16.4946 H   0  0  0  0  0  0  0  0  0  0  0  0
   10.7943   -2.8081   15.1038 H   0  0  0  0  0  0  0  0  0  0  0  0
   12.3442   -2.8417   14.3216 H   0  0  0  0  0  0  0  0  0  0  0  0
   10.4501   -0.7615   14.3383 H   0  0  0  0  0  0  0  0  0  0  0  0
   12.0033   -0.6845   13.6047 H   0  0  0  0  0  0  0  0  0  0  0  0
   11.0363    0.6796   15.9918 H   0  0  0  0  0  0  0  0  0  0  0  0
   13.6869    2.8351   16.7408 H   0  0  0  0  0  0  0  0  0  0  0  0
   13.3396    1.5632   17.9300 H   0  0  0  0  0  0  0  0  0  0  0  0
   12.0063    2.3540   17.0321 H   0  0  0  0  0  0  0  0  0  0  0  0
   15.8685    0.0802   14.3565 H   0  0  0  0  0  0  0  0  0  0  0  0
   13.2941    1.0467   13.2448 H   0  0  0  0  0  0  0  0  0  0  0  0
   14.9236    1.4510   12.8614 H   0  0  0  0  0  0  0  0  0  0  0  0
   13.5699    0.2567   11.1723 H   0  0  0  0  0  0  0  0  0  0  0  0
   13.5382   -1.1882   12.1221 H   0  0  0  0  0  0  0  0  0  0  0  0
   16.6184   -1.4231   12.7295 H   0  0  0  0  0  0  0  0  0  0  0  0
   15.4706   -2.6502   12.1350 H   0  0  0  0  0  0  0  0  0  0  0  0
   17.8235   -3.0873   11.4801 H   0  0  0  0  0  0  0  0  0  0  0  0
   16.7008   -2.9935   10.1388 H   0  0  0  0  0  0  0  0  0  0  0  0
   18.6900   -0.8769   11.0414 H   0  0  0  0  0  0  0  0  0  0  0  0
   18.6745   -1.7438    9.5087 H   0  0  0  0  0  0  0  0  0  0  0  0
   17.8058    0.6087    9.3291 H   0  0  0  0  0  0  0  0  0  0  0  0
   16.6323   -0.5946    8.8030 H   0  0  0  0  0  0  0  0  0  0  0  0
   15.5518    1.0848   10.2050 H   0  0  0  0  0  0  0  0  0  0  0  0
   16.7006    0.8146   11.5237 H   0  0  0  0  0  0  0  0  0  0  0  0
   14.4513   -1.9563   13.6858 H   0  0  0  0  0  0  0  0  0  0  0  0
   15.1266   -3.1916   15.5686 H   0  0  0  0  0  0  0  0  0  0  0  0
   16.4161   -2.3310   14.8266 H   0  0  0  0  0  0  0  0  0  0  0  0
   16.7780   -0.8874   16.6107 H   0  0  0  0  0  0  0  0  0  0  0  0
   15.1014   -0.9126   17.1647 H   0  0  0  0  0  0  0  0  0  0  0  0
   17.0021   -2.9617   17.3995 H   0  0  0  0  0  0  0  0  0  0  0  0
  1  2  1  0
  2  3  1  0
  3  4  1  0
  4  5  1  0
  5  6  1  0
  6  7  1  0
  7  8  1  0
  8  9  1  0
  8 10  2  3
 10 11  1  0
 11 12  1  0
 12 13  1  0
 13 14  1  0
 14 15  1  0
 15 16  1  0
 16 17  1  0
 17 18  1  0
 18 19  1  0
 11 20  1  0
 20 21  1  0
 21 22  1  0
 22 23  1  0
 19 14  1  0
  1 24  1  0
  1 25  1  0
  1 26  1  0
  2 27  1  0
  3 28  1  0
  3 29  1  0
  4 30  1  0
  4 31  1  0
  5 32  1  0
  5 33  1  0
  6 34  1  0
  6 35  1  0
  7 36  1  0
  9 37  1  0
  9 38  1  0
  9 39  1  0
 11 40  1  0
 12 41  1  0
 12 42  1  0
 13 43  1  0
 13 44  1  0
 15 45  1  0
 15 46  1  0
 16 47  1  0
 16 48  1  0
 17 49  1  0
 17 50  1  0
 18 51  1  0
 18 52  1  0
 19 53  1  0
 19 54  1  0
 20 55  1  0
 21 56  1  0
 21 57  1  0
 22 58  1  0
 22 59  1  0
 23 60  1  0
M  END
>  <Energy>  (817) 
26.282948348211523

>  <compound_id>  (817) 
1100

>  <target_id>  (817) 
1

>  <reference_id>  (817) 
81

>  <inspiration_ids>  (817) 
[81, 4]

>  <energy_score>  (817) 
4.560582227783641

>  <distance_score>  (817) 
2.0066901304202927

>  <path>  (817) 
/opt/xchem-fragalysis-2/maxwin/BulkDock/SCRATCH/505733/C1100-P81/C1100-P81.minimised.mol

>  <scratch_subdir>  (817) 
/opt/xchem-fragalysis-2/maxwin/BulkDock/SCRATCH/505733/C1100-P81

>  <fragmenstein_runtime>  (817) 
27.72171950340271

>  <fragmenstein_outcome>  (817) 
too moved

>  <fragmenstein_mode>  (817) 
expansion

>  <fragmenstein_error>  (817) 


$$$$
C1100-P4
     RDKit          3D

 60 60  0  0  0  0  0  0  0  0999 V2000
   14.1576   -3.8521   19.6812 C   0  0  0  0  0  0  0  0  0  0  0  0
   14.3253   -3.3905   18.3070 N   0  0  0  0  0  0  0  0  0  0  0  0
   13.3795   -3.9721   17.3341 C   0  0  0  0  0  0  0  0  0  0  0  0
   12.6853   -2.8864   16.5462 C   0  0  0  0  0  0  0  0  0  0  0  0
   11.8875   -3.3157   15.3401 C   0  0  0  0  0  0  0  0  0  0  0  0
   10.7961   -2.3230   15.0539 C   0  0  0  0  0  0  0  0  0  0  0  0
   11.2042   -1.2379   14.2404 N   0  0  0  0  0  0  0  0  0  0  0  0
   12.5957   -0.5774   14.0601 C   0  0  0  0  0  0  0  0  0  0  0  0
   12.5083    0.5789   13.0366 C   0  0  0  0  0  0  0  0  0  0  0  0
   13.6349   -0.7807   14.6273 N   0  0  0  0  0  0  0  0  0  0  0  0
   14.8265   -0.8865   13.8341 C   0  0  0  0  0  0  0  0  0  0  0  0
   15.5742    0.4219   13.6886 C   0  0  0  0  0  0  0  0  0  0  0  0
   16.4463    0.3552   12.4462 C   0  0  0  0  0  0  0  0  0  0  0  0
   15.6841   -0.0675   11.2527 N   0  0  0  0  0  0  0  0  0  0  0  0
   15.9453   -1.4700   10.8583 C   0  0  0  0  0  0  0  0  0  0  0  0
   17.3189   -1.6989   10.2464 C   0  0  0  0  0  0  0  0  0  0  0  0
   17.5338   -0.7577    9.0746 C   0  0  0  0  0  0  0  0  0  0  0  0
   17.2511    0.6858    9.4756 C   0  0  0  0  0  0  0  0  0  0  0  0
   15.8764    0.8309   10.1195 C   0  0  0  0  0  0  0  0  0  0  0  0
   15.7823   -1.9137   14.2578 N   0  0  0  0  0  0  0  0  0  0  0  0
   15.7204   -2.1863   15.6735 C   0  0  0  0  0  0  0  0  0  0  0  0
   17.0661   -2.5254   16.2838 C   0  0  0  0  0  0  0  0  0  0  0  0
   16.8799   -2.5533   17.6926 O   0  0  0  0  0  0  0  0  0  0  0  0
   13.1094   -3.9420   19.9758 H   0  0  0  0  0  0  0  0  0  0  0  0
   14.6663   -4.8037   19.8460 H   0  0  0  0  0  0  0  0  0  0  0  0
   14.6310   -3.1330   20.3584 H   0  0  0  0  0  0  0  0  0  0  0  0
   14.2292   -2.3720   18.3058 H   0  0  0  0  0  0  0  0  0  0  0  0
   12.6225   -4.5934   17.8129 H   0  0  0  0  0  0  0  0  0  0  0  0
   13.9337   -4.5877   16.6304 H   0  0  0  0  0  0  0  0  0  0  0  0
   12.0167   -2.4093   17.2213 H   0  0  0  0  0  0  0  0  0  0  0  0
   13.3721   -2.1012   16.3038 H   0  0  0  0  0  0  0  0  0  0  0  0
   11.4014   -4.2591   15.5863 H   0  0  0  0  0  0  0  0  0  0  0  0
   12.5116   -3.4578   14.4590 H   0  0  0  0  0  0  0  0  0  0  0  0
    9.9768   -2.8557   14.5860 H   0  0  0  0  0  0  0  0  0  0  0  0
   10.3682   -1.9270   15.9589 H   0  0  0  0  0  0  0  0  0  0  0  0
   10.5273   -0.7642   13.6496 H   0  0  0  0  0  0  0  0  0  0  0  0
   11.4800    0.7501   12.7076 H   0  0  0  0  0  0  0  0  0  0  0  0
   13.1301    0.3950   12.1615 H   0  0  0  0  0  0  0  0  0  0  0  0
   12.8298    1.5075   13.5170 H   0  0  0  0  0  0  0  0  0  0  0  0
   14.4730   -1.2418   12.8664 H   0  0  0  0  0  0  0  0  0  0  0  0
   16.1935    0.6262   14.5720 H   0  0  0  0  0  0  0  0  0  0  0  0
   14.9096    1.2841   13.6057 H   0  0  0  0  0  0  0  0  0  0  0  0
   16.8689    1.3590   12.3054 H   0  0  0  0  0  0  0  0  0  0  0  0
   17.3136   -0.2901   12.6280 H   0  0  0  0  0  0  0  0  0  0  0  0
   15.8266   -2.1783   11.6777 H   0  0  0  0  0  0  0  0  0  0  0  0
   15.1785   -1.7562   10.1282 H   0  0  0  0  0  0  0  0  0  0  0  0
   18.1077   -1.5468   10.9917 H   0  0  0  0  0  0  0  0  0  0  0  0
   17.4118   -2.7353    9.9088 H   0  0  0  0  0  0  0  0  0  0  0  0
   18.5608   -0.8485    8.7038 H   0  0  0  0  0  0  0  0  0  0  0  0
   16.8714   -1.0376    8.2476 H   0  0  0  0  0  0  0  0  0  0  0  0
   18.0311    1.0328   10.1643 H   0  0  0  0  0  0  0  0  0  0  0  0
   17.3091    1.3273    8.5886 H   0  0  0  0  0  0  0  0  0  0  0  0
   15.1091    0.6201    9.3644 H   0  0  0  0  0  0  0  0  0  0  0  0
   15.7067    1.8728   10.4181 H   0  0  0  0  0  0  0  0  0  0  0  0
   15.5662   -2.7795   13.7614 H   0  0  0  0  0  0  0  0  0  0  0  0
   15.0983   -3.0602   15.7957 H   0  0  0  0  0  0  0  0  0  0  0  0
   15.3226   -1.3449   16.2522 H   0  0  0  0  0  0  0  0  0  0  0  0
   17.8170   -1.7625   16.0566 H   0  0  0  0  0  0  0  0  0  0  0  0
   17.4371   -3.4989   15.9481 H   0  0  0  0  0  0  0  0  0  0  0  0
   16.1059   -3.1273   17.8819 H   0  0  0  0  0  0  0  0  0  0  0  0
  1  2  1  0
  2  3  1  0
  3  4  1  0
  4  5  1  0
  5  6  1  0
  6  7  1  0
  7  8  1  0
  8  9  1  0
  8 10  2  3
 10 11  1  0
 11 12  1  0
 12 13  1  0
 13 14  1  0
 14 15  1  0
 15 16  1  0
 16 17  1  0
 17 18  1  0
 18 19  1  0
 11 20  1  0
 20 21  1  0
 21 22  1  0
 22 23  1  0
 19 14  1  0
  1 24  1  0
  1 25  1  0
  1 26  1  0
  2 27  1  0
  3 28  1  0
  3 29  1  0
  4 30  1  0
  4 31  1  0
  5 32  1  0
  5 33  1  0
  6 34  1  0
  6 35  1  0
  7 36  1  0
  9 37  1  0
  9 38  1  0
  9 39  1  0
 11 40  1  0
 12 41  1  0
 12 42  1  0
 13 43  1  0
 13 44  1  0
 15 45  1  0
 15 46  1  0
 16 47  1  0
 16 48  1  0
 17 49  1  0
 17 50  1  0
 18 51  1  0
 18 52  1  0
 19 53  1  0
 19 54  1  0
 20 55  1  0
 21 56  1  0
 21 57  1  0
 22 58  1  0
 22 59  1  0
 23 60  1  0
M  END
>  <Energy>  (818) 
42.313599810066179

>  <compound_id>  (818) 
1100

>  <target_id>  (818) 
1

>  <reference_id>  (818) 
4

>  <inspiration_ids>  (818) 
[81, 4]

>  <energy_score>  (818) 
20.59123368963931

>  <distance_score>  (818) 
2.440179013581032

>  <path>  (818) 
/opt/xchem-fragalysis-2/maxwin/BulkDock/SCRATCH/505733/C1100-P4/C1100-P4.minimised.mol

>  <scratch_subdir>  (818) 
/opt/xchem-fragalysis-2/maxwin/BulkDock/SCRATCH/505733/C1100-P4

>  <fragmenstein_runtime>  (818) 
29.833422660827637

>  <fragmenstein_outcome>  (818) 
too moved

>  <fragmenstein_mode>  (818) 
expansion

>  <fragmenstein_error>  (818) 


$$$$
C1104-P81
     RDKit          3D

 29 30  0  0  0  0  0  0  0  0999 V2000
   14.7407   -0.4082   14.9222 C   0  0  0  0  0  0  0  0  0  0  0  0
   14.6157   -1.2873   16.1240 C   0  0  0  0  0  0  0  0  0  0  0  0
   15.3762   -0.9593   17.2500 C   0  0  0  0  0  0  0  0  0  0  0  0
   15.3595   -1.8012   18.3385 C   0  0  0  0  0  0  0  0  0  0  0  0
   14.6509   -2.9373   18.3727 N   0  0  0  0  0  0  0  0  0  0  0  0
   13.8725   -3.2191   17.2949 C   0  0  0  0  0  0  0  0  0  0  0  0
   13.0866   -4.4681   17.4276 C   0  0  0  0  0  0  0  0  0  0  0  0
   13.7785   -2.4102   16.1507 C   0  0  0  0  0  0  0  0  0  0  0  0
   12.8317   -2.6413   15.0936 N   0  0  0  0  0  0  0  0  0  0  0  0
   11.9489   -1.6534   14.7778 C   0  0  0  0  0  0  0  0  0  0  0  0
   10.7963   -1.3136   15.4820 C   0  0  0  0  0  0  0  0  0  0  0  0
   10.2897   -0.1284   15.1456 N   0  0  0  0  0  0  0  0  0  0  0  0
   11.0447    0.1983   14.0743 N   0  0  0  0  0  0  0  0  0  0  0  0
   10.8368    1.4489   13.3930 C   0  0  0  0  0  0  0  0  0  0  0  0
   12.0212   -0.7142   13.7889 C   0  0  0  0  0  0  0  0  0  0  0  0
   14.0236    0.4149   14.9573 H   0  0  0  0  0  0  0  0  0  0  0  0
   15.7372    0.0519   14.8999 H   0  0  0  0  0  0  0  0  0  0  0  0
   14.6835   -0.9779   13.9909 H   0  0  0  0  0  0  0  0  0  0  0  0
   16.0005   -0.0718   17.2688 H   0  0  0  0  0  0  0  0  0  0  0  0
   15.9465   -1.5880   19.2265 H   0  0  0  0  0  0  0  0  0  0  0  0
   13.3345   -5.1436   16.6091 H   0  0  0  0  0  0  0  0  0  0  0  0
   13.2943   -4.9546   18.3847 H   0  0  0  0  0  0  0  0  0  0  0  0
   12.0205   -4.2455   17.3704 H   0  0  0  0  0  0  0  0  0  0  0  0
   12.3765   -3.5334   15.2781 H   0  0  0  0  0  0  0  0  0  0  0  0
   10.3446   -1.8822   16.2560 H   0  0  0  0  0  0  0  0  0  0  0  0
   10.5215    2.2045   14.1166 H   0  0  0  0  0  0  0  0  0  0  0  0
   11.7718    1.7628   12.9220 H   0  0  0  0  0  0  0  0  0  0  0  0
   10.0738    1.2926   12.6367 H   0  0  0  0  0  0  0  0  0  0  0  0
   12.7119   -0.5653   12.9749 H   0  0  0  0  0  0  0  0  0  0  0  0
  1  2  1  0
  2  3  2  0
  3  4  1  0
  4  5  2  0
  5  6  1  0
  6  7  1  0
  6  8  2  0
  8  9  1  0
  9 10  1  0
 10 11  1  0
 11 12  2  0
 12 13  1  0
 13 14  1  0
 13 15  1  0
  8  2  1  0
 15 10  2  0
  1 16  1  0
  1 17  1  0
  1 18  1  0
  3 19  1  0
  4 20  1  0
  7 21  1  0
  7 22  1  0
  7 23  1  0
  9 24  1  0
 11 25  1  0
 14 26  1  0
 14 27  1  0
 14 28  1  0
 15 29  1  0
M  END
>  <Energy>  (819) 
63.298040826590359

>  <compound_id>  (819) 
1104

>  <target_id>  (819) 
1

>  <reference_id>  (819) 
81

>  <inspiration_ids>  (819) 
[81, 15]

>  <energy_score>  (819) 
-4.938082554722712

>  <distance_score>  (819) 
1.7069032073662498

>  <path>  (819) 
/opt/xchem-fragalysis-2/maxwin/BulkDock/SCRATCH/505733/C1104-P81/C1104-P81.minimised.mol

>  <scratch_subdir>  (819) 
/opt/xchem-fragalysis-2/maxwin/BulkDock/SCRATCH/505733/C1104-P81

>  <fragmenstein_runtime>  (819) 
2.222550392150879

>  <fragmenstein_outcome>  (819) 
too moved

>  <fragmenstein_mode>  (819) 
expansion

>  <fragmenstein_error>  (819) 


$$$$
C1104-P15
     RDKit          3D

 29 30  0  0  0  0  0  0  0  0999 V2000
   14.0435   -1.7884   14.1525 C   0  0  0  0  0  0  0  0  0  0  0  0
   14.5566   -2.3454   15.4607 C   0  0  0  0  0  0  0  0  0  0  0  0
   15.9258   -2.3155   15.6986 C   0  0  0  0  0  0  0  0  0  0  0  0
   16.4167   -2.8890   16.8558 C   0  0  0  0  0  0  0  0  0  0  0  0
   15.6550   -3.5293   17.7591 N   0  0  0  0  0  0  0  0  0  0  0  0
   14.3181   -3.5247   17.5503 C   0  0  0  0  0  0  0  0  0  0  0  0
   13.5267   -4.2161   18.6077 C   0  0  0  0  0  0  0  0  0  0  0  0
   13.7189   -2.8504   16.4742 C   0  0  0  0  0  0  0  0  0  0  0  0
   12.3164   -2.6502   16.3943 N   0  0  0  0  0  0  0  0  0  0  0  0
   11.8445   -1.4185   16.0679 C   0  0  0  0  0  0  0  0  0  0  0  0
   12.3958   -0.1598   16.3972 C   0  0  0  0  0  0  0  0  0  0  0  0
   11.8283    0.8299   15.7055 N   0  0  0  0  0  0  0  0  0  0  0  0
   10.9810    0.1765   14.8881 N   0  0  0  0  0  0  0  0  0  0  0  0
   10.4951    0.8473   13.7104 C   0  0  0  0  0  0  0  0  0  0  0  0
   10.8275   -1.1451   15.1996 C   0  0  0  0  0  0  0  0  0  0  0  0
   13.9559   -0.7000   14.1960 H   0  0  0  0  0  0  0  0  0  0  0  0
   14.7569   -2.0199   13.3517 H   0  0  0  0  0  0  0  0  0  0  0  0
   13.0968   -2.2364   13.8400 H   0  0  0  0  0  0  0  0  0  0  0  0
   16.6124   -1.8743   14.9833 H   0  0  0  0  0  0  0  0  0  0  0  0
   17.4816   -2.8837   17.0702 H   0  0  0  0  0  0  0  0  0  0  0  0
   12.6405   -4.6715   18.1715 H   0  0  0  0  0  0  0  0  0  0  0  0
   14.1141   -5.0113   19.0776 H   0  0  0  0  0  0  0  0  0  0  0  0
   13.2349   -3.5025   19.3821 H   0  0  0  0  0  0  0  0  0  0  0  0
   11.8865   -3.4553   15.9391 H   0  0  0  0  0  0  0  0  0  0  0  0
   13.2148    0.0669   17.0677 H   0  0  0  0  0  0  0  0  0  0  0  0
   11.2361    0.7215   12.9171 H   0  0  0  0  0  0  0  0  0  0  0  0
    9.5506    0.3977   13.4204 H   0  0  0  0  0  0  0  0  0  0  0  0
   10.3629    1.9085   13.9344 H   0  0  0  0  0  0  0  0  0  0  0  0
   10.1454   -1.7860   14.6679 H   0  0  0  0  0  0  0  0  0  0  0  0
  1  2  1  0
  2  3  2  0
  3  4  1  0
  4  5  2  0
  5  6  1  0
  6  7  1  0
  6  8  2  0
  8  9  1  0
  9 10  1  0
 10 11  1  0
 11 12  2  0
 12 13  1  0
 13 14  1  0
 13 15  1  0
  8  2  1  0
 15 10  2  0
  1 16  1  0
  1 17  1  0
  1 18  1  0
  3 19  1  0
  4 20  1  0
  7 21  1  0
  7 22  1  0
  7 23  1  0
  9 24  1  0
 11 25  1  0
 14 26  1  0
 14 27  1  0
 14 28  1  0
 15 29  1  0
M  END
>  <Energy>  (820) 
58.730965024857348

>  <compound_id>  (820) 
1104

>  <target_id>  (820) 
1

>  <reference_id>  (820) 
15

>  <inspiration_ids>  (820) 
[81, 15]

>  <energy_score>  (820) 
-9.505158356456008

>  <distance_score>  (820) 
1.7005646875836844

>  <path>  (820) 
/opt/xchem-fragalysis-2/maxwin/BulkDock/SCRATCH/505733/C1104-P15/C1104-P15.minimised.mol

>  <scratch_subdir>  (820) 
/opt/xchem-fragalysis-2/maxwin/BulkDock/SCRATCH/505733/C1104-P15

>  <fragmenstein_runtime>  (820) 
1.930567979812622

>  <fragmenstein_outcome>  (820) 
too moved

>  <fragmenstein_mode>  (820) 
expansion

>  <fragmenstein_error>  (820) 


$$$$
C1108-P81
     RDKit          3D

 35 36  0  0  0  0  0  0  0  0999 V2000
   13.3178    0.7482   13.1609 C   0  0  0  0  0  0  0  0  0  0  0  0
   14.3912   -0.2262   13.5547 C   0  0  0  0  0  0  0  0  0  0  0  0
   14.5764   -1.3683   12.7699 C   0  0  0  0  0  0  0  0  0  0  0  0
   15.6497   -2.2021   13.0420 C   0  0  0  0  0  0  0  0  0  0  0  0
   16.5276   -2.0030   14.0460 N   0  0  0  0  0  0  0  0  0  0  0  0
   16.3323   -0.8985   14.7957 C   0  0  0  0  0  0  0  0  0  0  0  0
   15.2626   -0.0110   14.6412 C   0  0  0  0  0  0  0  0  0  0  0  0
   15.0115    1.0283   15.5623 N   0  0  0  0  0  0  0  0  0  0  0  0
   14.9595    0.6236   16.9880 C   0  0  0  0  0  0  0  0  0  0  0  0
   14.6342   -0.7421   17.2403 O   0  0  0  0  0  0  0  0  0  0  0  0
   13.4942   -1.3036   16.7479 C   0  0  0  0  0  0  0  0  0  0  0  0
   12.4628   -0.5846   16.1322 C   0  0  0  0  0  0  0  0  0  0  0  0
   11.4330   -1.2533   15.4710 C   0  0  0  0  0  0  0  0  0  0  0  0
   11.4090   -2.6385   15.4775 C   0  0  0  0  0  0  0  0  0  0  0  0
   10.4177   -3.2744   14.8513 F   0  0  0  0  0  0  0  0  0  0  0  0
   12.3558   -3.3711   16.1711 C   0  0  0  0  0  0  0  0  0  0  0  0
   13.4044   -2.7002   16.8005 C   0  0  0  0  0  0  0  0  0  0  0  0
   14.5622   -3.6524   17.7383 S   0  0  0  0  0  0  0  0  0  0  0  0
   15.9093   -3.7334   16.7387 N   0  0  0  0  0  0  0  0  0  0  0  0
   14.9545   -2.9059   18.9100 O   0  0  0  0  0  0  0  0  0  0  0  0
   14.0489   -4.9981   17.8571 O   0  0  0  0  0  0  0  0  0  0  0  0
   13.6126    1.2675   12.2429 H   0  0  0  0  0  0  0  0  0  0  0  0
   12.3730    0.2263   12.9796 H   0  0  0  0  0  0  0  0  0  0  0  0
   13.1300    1.5065   13.9257 H   0  0  0  0  0  0  0  0  0  0  0  0
   13.9344   -1.5846   11.9247 H   0  0  0  0  0  0  0  0  0  0  0  0
   15.8436   -3.0728   12.4242 H   0  0  0  0  0  0  0  0  0  0  0  0
   17.0618   -0.7626   15.5892 H   0  0  0  0  0  0  0  0  0  0  0  0
   15.7523    1.7234   15.4612 H   0  0  0  0  0  0  0  0  0  0  0  0
   15.9461    0.7983   17.4328 H   0  0  0  0  0  0  0  0  0  0  0  0
   14.2573    1.2737   17.5229 H   0  0  0  0  0  0  0  0  0  0  0  0
   12.4769    0.5008   16.0972 H   0  0  0  0  0  0  0  0  0  0  0  0
   10.6638   -0.7087   14.9325 H   0  0  0  0  0  0  0  0  0  0  0  0
   12.2619   -4.4515   16.2225 H   0  0  0  0  0  0  0  0  0  0  0  0
   16.6921   -3.2602   17.1916 H   0  0  0  0  0  0  0  0  0  0  0  0
   15.7728   -3.3621   15.7920 H   0  0  0  0  0  0  0  0  0  0  0  0
  1  2  1  0
  2  3  2  0
  3  4  1  0
  4  5  2  0
  5  6  1  0
  6  7  2  0
  7  8  1  0
  8  9  1  0
  9 10  1  0
 10 11  1  0
 11 12  2  0
 12 13  1  0
 13 14  2  0
 14 15  1  0
 14 16  1  0
 16 17  2  0
 17 18  1  0
 18 19  1  0
 18 20  2  0
 18 21  2  0
  7  2  1  0
 17 11  1  0
  1 22  1  0
  1 23  1  0
  1 24  1  0
  3 25  1  0
  4 26  1  0
  6 27  1  0
  8 28  1  0
  9 29  1  0
  9 30  1  0
 12 31  1  0
 13 32  1  0
 16 33  1  0
 19 34  1  0
 19 35  1  0
M  END
>  <Energy>  (821) 
-34.673531232667521

>  <compound_id>  (821) 
1108

>  <target_id>  (821) 
1

>  <reference_id>  (821) 
81

>  <inspiration_ids>  (821) 
[81, 36]

>  <energy_score>  (821) 
-71.84511040257848

>  <distance_score>  (821) 
1.2694819200026637

>  <path>  (821) 
/opt/xchem-fragalysis-2/maxwin/BulkDock/SCRATCH/505733/C1108-P81/C1108-P81.minimised.mol

>  <scratch_subdir>  (821) 
/opt/xchem-fragalysis-2/maxwin/BulkDock/SCRATCH/505733/C1108-P81

>  <fragmenstein_runtime>  (821) 
4.16023850440979

>  <fragmenstein_outcome>  (821) 
too moved

>  <fragmenstein_mode>  (821) 
expansion

>  <fragmenstein_error>  (821) 


$$$$
C1108-P36
     RDKit          3D

 35 36  0  0  0  0  0  0  0  0999 V2000
   13.2709    0.8609   13.2463 C   0  0  0  0  0  0  0  0  0  0  0  0
   14.3717   -0.0999   13.5950 C   0  0  0  0  0  0  0  0  0  0  0  0
   14.5920   -1.1930   12.7525 C   0  0  0  0  0  0  0  0  0  0  0  0
   15.6896   -2.0070   12.9834 C   0  0  0  0  0  0  0  0  0  0  0  0
   16.5585   -1.8378   14.0009 N   0  0  0  0  0  0  0  0  0  0  0  0
   16.3228   -0.7870   14.8126 C   0  0  0  0  0  0  0  0  0  0  0  0
   15.2308    0.0796   14.6975 C   0  0  0  0  0  0  0  0  0  0  0  0
   14.9550    1.0719   15.6615 N   0  0  0  0  0  0  0  0  0  0  0  0
   14.9200    0.6109   17.0686 C   0  0  0  0  0  0  0  0  0  0  0  0
   14.6271   -0.7709   17.2667 O   0  0  0  0  0  0  0  0  0  0  0  0
   13.4904   -1.3354   16.7696 C   0  0  0  0  0  0  0  0  0  0  0  0
   12.4540   -0.6191   16.1592 C   0  0  0  0  0  0  0  0  0  0  0  0
   11.4306   -1.2888   15.4900 C   0  0  0  0  0  0  0  0  0  0  0  0
   11.4161   -2.6733   15.4863 C   0  0  0  0  0  0  0  0  0  0  0  0
   10.4373   -3.3136   14.8463 F   0  0  0  0  0  0  0  0  0  0  0  0
   12.3620   -3.4043   16.1816 C   0  0  0  0  0  0  0  0  0  0  0  0
   13.4074   -2.7326   16.8126 C   0  0  0  0  0  0  0  0  0  0  0  0
   14.5744   -3.6882   17.7339 S   0  0  0  0  0  0  0  0  0  0  0  0
   15.9204   -3.7313   16.7303 N   0  0  0  0  0  0  0  0  0  0  0  0
   14.9544   -2.9554   18.9189 O   0  0  0  0  0  0  0  0  0  0  0  0
   14.0751   -5.0415   17.8310 O   0  0  0  0  0  0  0  0  0  0  0  0
   13.5340    1.4045   12.3326 H   0  0  0  0  0  0  0  0  0  0  0  0
   13.0879    1.6014   14.0295 H   0  0  0  0  0  0  0  0  0  0  0  0
   12.3326    0.3242   13.0761 H   0  0  0  0  0  0  0  0  0  0  0  0
   13.9621   -1.3823   11.8917 H   0  0  0  0  0  0  0  0  0  0  0  0
   15.9125   -2.8310   12.3140 H   0  0  0  0  0  0  0  0  0  0  0  0
   17.0434   -0.6751   15.6177 H   0  0  0  0  0  0  0  0  0  0  0  0
   15.6692    1.7966   15.5826 H   0  0  0  0  0  0  0  0  0  0  0  0
   15.9045    0.7904   17.5162 H   0  0  0  0  0  0  0  0  0  0  0  0
   14.2054    1.2224   17.6319 H   0  0  0  0  0  0  0  0  0  0  0  0
   12.4584    0.4666   16.1331 H   0  0  0  0  0  0  0  0  0  0  0  0
   10.6601   -0.7461   14.9513 H   0  0  0  0  0  0  0  0  0  0  0  0
   12.2738   -4.4858   16.2252 H   0  0  0  0  0  0  0  0  0  0  0  0
   16.6926   -3.2368   17.1775 H   0  0  0  0  0  0  0  0  0  0  0  0
   15.7663   -3.3704   15.7825 H   0  0  0  0  0  0  0  0  0  0  0  0
  1  2  1  0
  2  3  2  0
  3  4  1  0
  4  5  2  0
  5  6  1  0
  6  7  2  0
  7  8  1  0
  8  9  1  0
  9 10  1  0
 10 11  1  0
 11 12  2  0
 12 13  1  0
 13 14  2  0
 14 15  1  0
 14 16  1  0
 16 17  2  0
 17 18  1  0
 18 19  1  0
 18 20  2  0
 18 21  2  0
  7  2  1  0
 17 11  1  0
  1 22  1  0
  1 23  1  0
  1 24  1  0
  3 25  1  0
  4 26  1  0
  6 27  1  0
  8 28  1  0
  9 29  1  0
  9 30  1  0
 12 31  1  0
 13 32  1  0
 16 33  1  0
 19 34  1  0
 19 35  1  0
M  END
>  <Energy>  (822) 
-34.589175393038936

>  <compound_id>  (822) 
1108

>  <target_id>  (822) 
1

>  <reference_id>  (822) 
36

>  <inspiration_ids>  (822) 
[81, 36]

>  <energy_score>  (822) 
-71.76075456294882

>  <distance_score>  (822) 
1.2851124313373246

>  <path>  (822) 
/opt/xchem-fragalysis-2/maxwin/BulkDock/SCRATCH/505733/C1108-P36/C1108-P36.minimised.mol

>  <scratch_subdir>  (822) 
/opt/xchem-fragalysis-2/maxwin/BulkDock/SCRATCH/505733/C1108-P36

>  <fragmenstein_runtime>  (822) 
3.7933902740478516

>  <fragmenstein_outcome>  (822) 
too moved

>  <fragmenstein_mode>  (822) 
expansion

>  <fragmenstein_error>  (822) 


$$$$
C1111-P81
     RDKit          3D

 39 41  0  0  0  0  0  0  0  0999 V2000
   15.3847   -0.8188   19.5462 C   0  0  0  0  0  0  0  0  0  0  0  0
   14.9293   -1.6973   18.4089 C   0  0  0  0  0  0  0  0  0  0  0  0
   14.2491   -2.8835   18.7189 C   0  0  0  0  0  0  0  0  0  0  0  0
   13.8075   -3.6853   17.6886 C   0  0  0  0  0  0  0  0  0  0  0  0
   14.0241   -3.4068   16.3903 N   0  0  0  0  0  0  0  0  0  0  0  0
   14.7416   -2.2773   16.1183 C   0  0  0  0  0  0  0  0  0  0  0  0
   15.1755   -1.3504   17.0606 C   0  0  0  0  0  0  0  0  0  0  0  0
   15.9094   -0.2035   16.7962 N   0  0  0  0  0  0  0  0  0  0  0  0
   16.3902    0.2912   15.4941 C   0  0  0  0  0  0  0  0  0  0  0  0
   17.7461    0.9640   15.7561 C   0  0  0  0  0  0  0  0  0  0  0  0
   15.4879    1.2411   14.7575 C   0  0  0  0  0  0  0  0  0  0  0  0
   15.6237    1.4920   13.4440 N   0  0  0  0  0  0  0  0  0  0  0  0
   14.2821    1.6346   13.0364 O   0  0  0  0  0  0  0  0  0  0  0  0
   13.5396    1.4291   14.1763 C   0  0  0  0  0  0  0  0  0  0  0  0
   12.4878    0.4173   14.0885 C   0  0  0  0  0  0  0  0  0  0  0  0
   12.7889   -0.7733   13.4053 C   0  0  0  0  0  0  0  0  0  0  0  0
   12.2265   -1.9779   13.8067 C   0  0  0  0  0  0  0  0  0  0  0  0
   11.3451   -1.9920   14.8758 C   0  0  0  0  0  0  0  0  0  0  0  0
   11.1833   -3.1784   15.6192 N   0  0  0  0  0  0  0  0  0  0  0  0
   10.8960   -0.7816   15.4043 C   0  0  0  0  0  0  0  0  0  0  0  0
   11.4624    0.4290   15.0247 C   0  0  0  0  0  0  0  0  0  0  0  0
   14.2641    1.5620   15.2699 N   0  0  0  0  0  0  0  0  0  0  0  0
   15.1988   -1.2892   20.5178 H   0  0  0  0  0  0  0  0  0  0  0  0
   14.8414    0.1314   19.5289 H   0  0  0  0  0  0  0  0  0  0  0  0
   16.4607   -0.6290   19.4776 H   0  0  0  0  0  0  0  0  0  0  0  0
   14.0399   -3.1641   19.7470 H   0  0  0  0  0  0  0  0  0  0  0  0
   13.2398   -4.5869   17.8921 H   0  0  0  0  0  0  0  0  0  0  0  0
   14.9384   -2.1339   15.0615 H   0  0  0  0  0  0  0  0  0  0  0  0
   15.5980    0.5742   17.3763 H   0  0  0  0  0  0  0  0  0  0  0  0
   16.5894   -0.5676   14.8407 H   0  0  0  0  0  0  0  0  0  0  0  0
   18.4350    0.2723   16.2542 H   0  0  0  0  0  0  0  0  0  0  0  0
   17.6354    1.8441   16.4008 H   0  0  0  0  0  0  0  0  0  0  0  0
   18.2156    1.2914   14.8218 H   0  0  0  0  0  0  0  0  0  0  0  0
   13.5979   -0.8086   12.6767 H   0  0  0  0  0  0  0  0  0  0  0  0
   12.5748   -2.9052   13.3658 H   0  0  0  0  0  0  0  0  0  0  0  0
   12.0804   -3.3516   16.0881 H   0  0  0  0  0  0  0  0  0  0  0  0
   11.0457   -3.9784   15.0035 H   0  0  0  0  0  0  0  0  0  0  0  0
   10.1375   -0.7832   16.1649 H   0  0  0  0  0  0  0  0  0  0  0  0
   11.2146    1.3331   15.5733 H   0  0  0  0  0  0  0  0  0  0  0  0
  1  2  1  0
  2  3  2  0
  3  4  1  0
  4  5  2  0
  5  6  1  0
  6  7  2  0
  7  8  1  0
  8  9  1  0
  9 10  1  0
  9 11  1  0
 11 12  2  0
 12 13  1  0
 13 14  1  0
 14 15  1  0
 15 16  2  0
 16 17  1  0
 17 18  2  0
 18 19  1  0
 18 20  1  0
 20 21  2  0
 14 22  2  0
  7  2  1  0
 22 11  1  0
 21 15  1  0
  1 23  1  0
  1 24  1  0
  1 25  1  0
  3 26  1  0
  4 27  1  0
  6 28  1  0
  8 29  1  0
  9 30  1  0
 10 31  1  0
 10 32  1  0
 10 33  1  0
 16 34  1  0
 17 35  1  0
 19 36  1  0
 19 37  1  0
 20 38  1  0
 21 39  1  0
M  END
>  <Energy>  (823) 
141.36285730802035

>  <compound_id>  (823) 
1111

>  <target_id>  (823) 
1

>  <reference_id>  (823) 
81

>  <inspiration_ids>  (823) 
[81, 76]

>  <energy_score>  (823) 
2.2029636794919156

>  <distance_score>  (823) 
2.4928064071194314

>  <path>  (823) 
/opt/xchem-fragalysis-2/maxwin/BulkDock/SCRATCH/505733/C1111-P81/C1111-P81.minimised.mol

>  <scratch_subdir>  (823) 
/opt/xchem-fragalysis-2/maxwin/BulkDock/SCRATCH/505733/C1111-P81

>  <fragmenstein_runtime>  (823) 
5.843678712844849

>  <fragmenstein_outcome>  (823) 
too moved

>  <fragmenstein_mode>  (823) 
expansion

>  <fragmenstein_error>  (823) 


$$$$
C1111-P76
     RDKit          3D

 39 41  0  0  0  0  0  0  0  0999 V2000
   17.5650   -1.1378   18.4726 C   0  0  0  0  0  0  0  0  0  0  0  0
   17.1370   -1.8488   17.2165 C   0  0  0  0  0  0  0  0  0  0  0  0
   16.8073   -3.2100   17.2945 C   0  0  0  0  0  0  0  0  0  0  0  0
   16.3719   -3.8531   16.1528 C   0  0  0  0  0  0  0  0  0  0  0  0
   16.3063   -3.2498   14.9547 N   0  0  0  0  0  0  0  0  0  0  0  0
   16.6919   -1.9519   14.8805 C   0  0  0  0  0  0  0  0  0  0  0  0
   17.0127   -1.1647   15.9841 C   0  0  0  0  0  0  0  0  0  0  0  0
   17.2228    0.2146   15.9534 N   0  0  0  0  0  0  0  0  0  0  0  0
   17.0707    1.0699   14.7466 C   0  0  0  0  0  0  0  0  0  0  0  0
   17.7748    2.3996   15.0471 C   0  0  0  0  0  0  0  0  0  0  0  0
   15.6728    1.3336   14.2842 C   0  0  0  0  0  0  0  0  0  0  0  0
   15.3302    1.3154   12.9867 N   0  0  0  0  0  0  0  0  0  0  0  0
   14.0752    0.6718   13.0315 O   0  0  0  0  0  0  0  0  0  0  0  0
   13.8464    0.4316   14.3609 C   0  0  0  0  0  0  0  0  0  0  0  0
   13.2329   -0.8342   14.7269 C   0  0  0  0  0  0  0  0  0  0  0  0
   12.1281   -1.4112   14.1372 C   0  0  0  0  0  0  0  0  0  0  0  0
   11.6129   -2.5953   14.6776 C   0  0  0  0  0  0  0  0  0  0  0  0
   12.2307   -3.2433   15.7476 C   0  0  0  0  0  0  0  0  0  0  0  0
   11.6632   -4.3220   16.3954 N   0  0  0  0  0  0  0  0  0  0  0  0
   13.3309   -2.6748   16.3316 C   0  0  0  0  0  0  0  0  0  0  0  0
   13.8133   -1.4901   15.8196 C   0  0  0  0  0  0  0  0  0  0  0  0
   14.6519    1.1114   15.1518 N   0  0  0  0  0  0  0  0  0  0  0  0
   16.7521   -0.5044   18.8415 H   0  0  0  0  0  0  0  0  0  0  0  0
   18.4518   -0.5232   18.2868 H   0  0  0  0  0  0  0  0  0  0  0  0
   17.8286   -1.8484   19.2634 H   0  0  0  0  0  0  0  0  0  0  0  0
   16.8731   -3.7555   18.2297 H   0  0  0  0  0  0  0  0  0  0  0  0
   16.0901   -4.8995   16.1589 H   0  0  0  0  0  0  0  0  0  0  0  0
   16.6378   -1.5444   13.8766 H   0  0  0  0  0  0  0  0  0  0  0  0
   16.7478    0.6549   16.7404 H   0  0  0  0  0  0  0  0  0  0  0  0
   17.6322    0.5983   13.9292 H   0  0  0  0  0  0  0  0  0  0  0  0
   17.7709    3.0561   14.1698 H   0  0  0  0  0  0  0  0  0  0  0  0
   18.8173    2.2316   15.3399 H   0  0  0  0  0  0  0  0  0  0  0  0
   17.2821    2.9350   15.8675 H   0  0  0  0  0  0  0  0  0  0  0  0
   11.6143   -0.9112   13.3273 H   0  0  0  0  0  0  0  0  0  0  0  0
   10.7070   -3.0108   14.2584 H   0  0  0  0  0  0  0  0  0  0  0  0
   12.3287   -4.9563   16.8235 H   0  0  0  0  0  0  0  0  0  0  0  0
   10.9442   -4.8298   15.8789 H   0  0  0  0  0  0  0  0  0  0  0  0
   13.7786   -3.1024   17.2216 H   0  0  0  0  0  0  0  0  0  0  0  0
   14.6050   -1.0052   16.3773 H   0  0  0  0  0  0  0  0  0  0  0  0
  1  2  1  0
  2  3  2  0
  3  4  1  0
  4  5  2  0
  5  6  1  0
  6  7  2  0
  7  8  1  0
  8  9  1  0
  9 10  1  0
  9 11  1  0
 11 12  2  0
 12 13  1  0
 13 14  1  0
 14 15  1  0
 15 16  2  0
 16 17  1  0
 17 18  2  0
 18 19  1  0
 18 20  1  0
 20 21  2  0
 14 22  2  0
  7  2  1  0
 22 11  1  0
 21 15  1  0
  1 23  1  0
  1 24  1  0
  1 25  1  0
  3 26  1  0
  4 27  1  0
  6 28  1  0
  8 29  1  0
  9 30  1  0
 10 31  1  0
 10 32  1  0
 10 33  1  0
 16 34  1  0
 17 35  1  0
 19 36  1  0
 19 37  1  0
 20 38  1  0
 21 39  1  0
M  END
>  <Energy>  (824) 
130.14760430504873

>  <compound_id>  (824) 
1111

>  <target_id>  (824) 
1

>  <reference_id>  (824) 
76

>  <inspiration_ids>  (824) 
[81, 76]

>  <energy_score>  (824) 
-9.012289323478285

>  <distance_score>  (824) 
3.095809538590502

>  <path>  (824) 
/opt/xchem-fragalysis-2/maxwin/BulkDock/SCRATCH/505733/C1111-P76/C1111-P76.minimised.mol

>  <scratch_subdir>  (824) 
/opt/xchem-fragalysis-2/maxwin/BulkDock/SCRATCH/505733/C1111-P76

>  <fragmenstein_runtime>  (824) 
5.681707859039307

>  <fragmenstein_outcome>  (824) 
too moved

>  <fragmenstein_mode>  (824) 
expansion

>  <fragmenstein_error>  (824) 


$$$$
C1113-P81
     RDKit          3D

 62 64  0  0  0  0  0  0  0  0999 V2000
   15.5323   -0.5460   16.5032 C   0  0  0  0  0  0  0  0  0  0  0  0
   15.3821   -1.9630   16.9732 C   0  0  0  0  0  0  0  0  0  0  0  0
   14.1056   -2.3455   17.4214 C   0  0  0  0  0  0  0  0  0  0  0  0
   13.8638   -3.6493   17.8239 C   0  0  0  0  0  0  0  0  0  0  0  0
   14.7962   -4.6146   17.7991 N   0  0  0  0  0  0  0  0  0  0  0  0
   16.0245   -4.2260   17.3808 C   0  0  0  0  0  0  0  0  0  0  0  0
   16.3909   -2.9318   16.9821 C   0  0  0  0  0  0  0  0  0  0  0  0
   17.7278   -2.7870   16.5869 N   0  0  0  0  0  0  0  0  0  0  0  0
   18.5363   -1.6078   16.3922 C   0  0  0  0  0  0  0  0  0  0  0  0
   18.2961   -0.4506   16.5943 O   0  0  0  0  0  0  0  0  0  0  0  0
   19.8928   -2.0295   15.7775 C   0  0  0  0  0  0  0  0  0  0  0  0
   19.7881   -3.3753   15.1614 N   0  0  0  0  0  0  0  0  0  0  0  0
   20.9319   -3.6316   14.2565 C   0  0  0  0  0  0  0  0  0  0  0  0
   20.4861   -4.5015   13.0491 C   0  0  0  0  0  0  0  0  0  0  0  0
   19.1481   -4.0770   12.5387 N   0  0  0  0  0  0  0  0  0  0  0  0
   19.0255   -2.7521   11.7667 S   0  0  0  0  0  0  0  0  0  0  0  0
   19.7163   -1.5349   12.1311 O   0  0  0  0  0  0  0  0  0  0  0  0
   17.2898   -2.3761   11.5919 C   0  0  0  0  0  0  0  0  0  0  0  0
   17.0080   -1.1276   10.7628 C   0  0  0  0  0  0  0  0  0  0  0  0
   16.3678   -0.1518   11.7395 C   0  0  0  0  0  0  0  0  0  0  0  0
   15.6972   -0.9812   12.7522 N   0  0  0  0  0  0  0  0  0  0  0  0
   14.3764   -1.4547   12.3242 C   0  0  0  0  0  0  0  0  0  0  0  0
   13.3704   -1.0843   13.3617 C   0  0  0  0  0  0  0  0  0  0  0  0
   12.7535   -1.9063   14.2798 C   0  0  0  0  0  0  0  0  0  0  0  0
   11.8743   -1.2027   15.0362 O   0  0  0  0  0  0  0  0  0  0  0  0
   11.8726    0.1181   14.6229 N   0  0  0  0  0  0  0  0  0  0  0  0
   12.7556    0.1630   13.6223 C   0  0  0  0  0  0  0  0  0  0  0  0
   13.0713    1.7465   12.6543 Br  0  0  0  0  0  0  0  0  0  0  0  0
   16.6601   -2.0850   12.9557 C   0  0  0  0  0  0  0  0  0  0  0  0
   19.6777   -3.1780   10.2427 N   0  0  0  0  0  0  0  0  0  0  0  0
   18.9169   -4.0363    9.3455 C   0  0  0  0  0  0  0  0  0  0  0  0
   20.4423   -2.1997    9.4777 C   0  0  0  0  0  0  0  0  0  0  0  0
   16.0757   -0.4989   15.5577 H   0  0  0  0  0  0  0  0  0  0  0  0
   16.0264    0.0557   17.2709 H   0  0  0  0  0  0  0  0  0  0  0  0
   14.5582   -0.0811   16.3155 H   0  0  0  0  0  0  0  0  0  0  0  0
   13.2923   -1.6281   17.4317 H   0  0  0  0  0  0  0  0  0  0  0  0
   12.8829   -3.9546   18.1763 H   0  0  0  0  0  0  0  0  0  0  0  0
   16.7592   -5.0286   17.3927 H   0  0  0  0  0  0  0  0  0  0  0  0
   18.2917   -3.6139   16.3853 H   0  0  0  0  0  0  0  0  0  0  0  0
   20.1412   -1.2735   15.0242 H   0  0  0  0  0  0  0  0  0  0  0  0
   20.6483   -2.0305   16.5689 H   0  0  0  0  0  0  0  0  0  0  0  0
   18.9788   -3.3709   14.5202 H   0  0  0  0  0  0  0  0  0  0  0  0
   21.7341   -4.1359   14.8053 H   0  0  0  0  0  0  0  0  0  0  0  0
   21.3466   -2.6962   13.8631 H   0  0  0  0  0  0  0  0  0  0  0  0
   20.3904   -5.5419   13.3816 H   0  0  0  0  0  0  0  0  0  0  0  0
   21.2413   -4.4793   12.2565 H   0  0  0  0  0  0  0  0  0  0  0  0
   16.8100   -3.2408   11.1226 H   0  0  0  0  0  0  0  0  0  0  0  0
   17.8895   -0.6909   10.2873 H   0  0  0  0  0  0  0  0  0  0  0  0
   16.2928   -1.3742    9.9690 H   0  0  0  0  0  0  0  0  0  0  0  0
   15.7032    0.5602   11.2398 H   0  0  0  0  0  0  0  0  0  0  0  0
   17.1481    0.4411   12.2335 H   0  0  0  0  0  0  0  0  0  0  0  0
   14.0825   -1.0069   11.3685 H   0  0  0  0  0  0  0  0  0  0  0  0
   14.3567   -2.5386   12.1557 H   0  0  0  0  0  0  0  0  0  0  0  0
   12.8170   -2.9553   14.5206 H   0  0  0  0  0  0  0  0  0  0  0  0
   16.2062   -2.9715   13.4112 H   0  0  0  0  0  0  0  0  0  0  0  0
   17.4120   -1.7305   13.6695 H   0  0  0  0  0  0  0  0  0  0  0  0
   19.5642   -4.5043    8.5957 H   0  0  0  0  0  0  0  0  0  0  0  0
   18.4337   -4.8531    9.8916 H   0  0  0  0  0  0  0  0  0  0  0  0
   18.1427   -3.4633    8.8288 H   0  0  0  0  0  0  0  0  0  0  0  0
   19.7960   -1.4155    9.0714 H   0  0  0  0  0  0  0  0  0  0  0  0
   20.9772   -2.6714    8.6455 H   0  0  0  0  0  0  0  0  0  0  0  0
   21.2103   -1.7279   10.0993 H   0  0  0  0  0  0  0  0  0  0  0  0
  1  2  1  0
  2  3  2  0
  3  4  1  0
  4  5  2  0
  5  6  1  0
  6  7  2  0
  7  8  1  0
  8  9  1  0
  9 10  2  0
  9 11  1  0
 11 12  1  0
 12 13  1  0
 13 14  1  0
 14 15  1  0
 15 16  2  0
 16 17  2  0
 16 18  1  0
 18 19  1  0
 19 20  1  0
 20 21  1  0
 21 22  1  0
 22 23  1  0
 23 24  2  0
 24 25  1  0
 25 26  1  0
 26 27  2  0
 27 28  1  0
 21 29  1  0
 16 30  1  0
 30 31  1  0
 30 32  1  0
  7  2  1  0
 29 18  1  0
 27 23  1  0
  1 33  1  0
  1 34  1  0
  1 35  1  0
  3 36  1  0
  4 37  1  0
  6 38  1  0
  8 39  1  0
 11 40  1  0
 11 41  1  0
 12 42  1  0
 13 43  1  0
 13 44  1  0
 14 45  1  0
 14 46  1  0
 18 47  1  0
 19 48  1  0
 19 49  1  0
 20 50  1  0
 20 51  1  0
 22 52  1  0
 22 53  1  0
 24 54  1  0
 29 55  1  0
 29 56  1  0
 31 57  1  0
 31 58  1  0
 31 59  1  0
 32 60  1  0
 32 61  1  0
 32 62  1  0
M  END
>  <Energy>  (825) 
4.1962013339274034

>  <compound_id>  (825) 
1113

>  <target_id>  (825) 
1

>  <reference_id>  (825) 
81

>  <inspiration_ids>  (825) 
[81, 93]

>  <energy_score>  (825) 
-107.44713056762924

>  <distance_score>  (825) 
2.368992049898298

>  <path>  (825) 
/opt/xchem-fragalysis-2/maxwin/BulkDock/SCRATCH/505733/C1113-P81/C1113-P81.minimised.mol

>  <scratch_subdir>  (825) 
/opt/xchem-fragalysis-2/maxwin/BulkDock/SCRATCH/505733/C1113-P81

>  <fragmenstein_runtime>  (825) 
10.397803544998169

>  <fragmenstein_outcome>  (825) 
too moved

>  <fragmenstein_mode>  (825) 
expansion

>  <fragmenstein_error>  (825) 


$$$$
C1113-P93
     RDKit          3D

 62 64  0  0  0  0  0  0  0  0999 V2000
   15.7458    0.1905   18.0408 C   0  0  0  0  0  0  0  0  0  0  0  0
   15.2002   -1.2080   18.0423 C   0  0  0  0  0  0  0  0  0  0  0  0
   15.3926   -2.0248   19.1630 C   0  0  0  0  0  0  0  0  0  0  0  0
   14.8887   -3.3164   19.1495 C   0  0  0  0  0  0  0  0  0  0  0  0
   14.2168   -3.8484   18.1097 N   0  0  0  0  0  0  0  0  0  0  0  0
   14.0201   -3.0399   17.0395 C   0  0  0  0  0  0  0  0  0  0  0  0
   14.4916   -1.7294   16.9532 C   0  0  0  0  0  0  0  0  0  0  0  0
   14.3079   -0.9436   15.8173 N   0  0  0  0  0  0  0  0  0  0  0  0
   13.5739   -1.1931   14.6069 C   0  0  0  0  0  0  0  0  0  0  0  0
   12.8666   -2.1072   14.2955 O   0  0  0  0  0  0  0  0  0  0  0  0
   13.8861   -0.0727   13.5942 C   0  0  0  0  0  0  0  0  0  0  0  0
   15.2746   -0.1264   13.1100 N   0  0  0  0  0  0  0  0  0  0  0  0
   15.7250   -1.4632   12.6528 C   0  0  0  0  0  0  0  0  0  0  0  0
   14.7754   -2.3124   11.7755 C   0  0  0  0  0  0  0  0  0  0  0  0
   15.1819   -2.4131   10.3778 N   0  0  0  0  0  0  0  0  0  0  0  0
   14.8773   -1.2509    9.4459 S   0  0  0  0  0  0  0  0  0  0  0  0
   14.8088    0.1264    9.8999 O   0  0  0  0  0  0  0  0  0  0  0  0
   13.3773   -1.6791    8.1537 C   0  0  0  0  0  0  0  0  0  0  0  0
   12.5312    0.3758    7.6951 C   0  0  0  0  0  0  0  0  0  0  0  0
   10.3225    0.2690    8.1048 C   0  0  0  0  0  0  0  0  0  0  0  0
    9.8534   -1.7799    8.0753 N   0  0  0  0  0  0  0  0  0  0  0  0
    8.0793   -1.9294    9.2643 C   0  0  0  0  0  0  0  0  0  0  0  0
    7.5586   -1.3659   11.1808 C   0  0  0  0  0  0  0  0  0  0  0  0
    6.6500   -1.8384   12.2170 C   0  0  0  0  0  0  0  0  0  0  0  0
    6.8306   -1.6418   13.5370 O   0  0  0  0  0  0  0  0  0  0  0  0
    7.8254   -0.8067   13.7759 N   0  0  0  0  0  0  0  0  0  0  0  0
    8.1512   -0.3901   12.5473 C   0  0  0  0  0  0  0  0  0  0  0  0
   10.0422    0.7477   12.9030 Br  0  0  0  0  0  0  0  0  0  0  0  0
   11.7076   -3.0930    7.9843 C   0  0  0  0  0  0  0  0  0  0  0  0
   16.3194   -1.1575    8.4257 N   0  0  0  0  0  0  0  0  0  0  0  0
   17.6068   -1.1591    9.1301 C   0  0  0  0  0  0  0  0  0  0  0  0
   16.3377   -0.0774    7.4343 C   0  0  0  0  0  0  0  0  0  0  0  0
   16.2448    0.4263   18.9870 H   0  0  0  0  0  0  0  0  0  0  0  0
   14.9369    0.9165   17.9091 H   0  0  0  0  0  0  0  0  0  0  0  0
   16.4841    0.3122   17.2416 H   0  0  0  0  0  0  0  0  0  0  0  0
   15.9216   -1.6693   20.0418 H   0  0  0  0  0  0  0  0  0  0  0  0
   15.0118   -3.9723   20.0071 H   0  0  0  0  0  0  0  0  0  0  0  0
   13.4644   -3.5067   16.2310 H   0  0  0  0  0  0  0  0  0  0  0  0
   14.7333   -0.0282   15.7620 H   0  0  0  0  0  0  0  0  0  0  0  0
   13.7021    0.8989   14.0674 H   0  0  0  0  0  0  0  0  0  0  0  0
   13.1842   -0.1310   12.7581 H   0  0  0  0  0  0  0  0  0  0  0  0
   15.9310    0.2068   13.8108 H   0  0  0  0  0  0  0  0  0  0  0  0
   15.9506   -2.0492   13.5538 H   0  0  0  0  0  0  0  0  0  0  0  0
   16.6888   -1.3283   12.1479 H   0  0  0  0  0  0  0  0  0  0  0  0
   13.7371   -1.9971   11.8500 H   0  0  0  0  0  0  0  0  0  0  0  0
   14.7996   -3.3210   12.1585 H   0  0  0  0  0  0  0  0  0  0  0  0
   13.9966   -1.9258    7.2426 H   0  0  0  0  0  0  0  0  0  0  0  0
   13.0065    1.1774    8.3050 H   0  0  0  0  0  0  0  0  0  0  0  0
   12.6852    0.5894    6.6197 H   0  0  0  0  0  0  0  0  0  0  0  0
    9.7898    0.6513    7.1893 H   0  0  0  0  0  0  0  0  0  0  0  0
   10.1454    1.0689    8.8126 H   0  0  0  0  0  0  0  0  0  0  0  0
    7.8905   -2.9947    9.1624 H   0  0  0  0  0  0  0  0  0  0  0  0
    7.2298   -1.2680    9.1046 H   0  0  0  0  0  0  0  0  0  0  0  0
    5.8152   -2.5140   12.3266 H   0  0  0  0  0  0  0  0  0  0  0  0
   11.7446   -3.1807    6.8289 H   0  0  0  0  0  0  0  0  0  0  0  0
   11.6133   -4.1970    8.0411 H   0  0  0  0  0  0  0  0  0  0  0  0
   18.4436   -1.1768    8.4227 H   0  0  0  0  0  0  0  0  0  0  0  0
   17.7129   -0.2799    9.7748 H   0  0  0  0  0  0  0  0  0  0  0  0
   17.7163   -2.0556    9.7483 H   0  0  0  0  0  0  0  0  0  0  0  0
   15.4227   -0.0857    6.8347 H   0  0  0  0  0  0  0  0  0  0  0  0
   17.1688   -0.2057    6.7319 H   0  0  0  0  0  0  0  0  0  0  0  0
   16.4270    0.9080    7.9042 H   0  0  0  0  0  0  0  0  0  0  0  0
  1  2  1  0
  2  3  2  0
  3  4  1  0
  4  5  2  0
  5  6  1  0
  6  7  2  0
  7  8  1  0
  8  9  1  0
  9 10  2  0
  9 11  1  0
 11 12  1  0
 12 13  1  0
 13 14  1  0
 14 15  1  0
 15 16  2  0
 16 17  2  0
 16 18  1  0
 18 19  1  0
 19 20  1  0
 20 21  1  0
 21 22  1  0
 22 23  1  0
 23 24  2  0
 24 25  1  0
 25 26  1  0
 26 27  2  0
 27 28  1  0
 21 29  1  0
 16 30  1  0
 30 31  1  0
 30 32  1  0
  7  2  1  0
 29 18  1  0
 27 23  1  0
  1 33  1  0
  1 34  1  0
  1 35  1  0
  3 36  1  0
  4 37  1  0
  6 38  1  0
  8 39  1  0
 11 40  1  0
 11 41  1  0
 12 42  1  0
 13 43  1  0
 13 44  1  0
 14 45  1  0
 14 46  1  0
 18 47  1  0
 19 48  1  0
 19 49  1  0
 20 50  1  0
 20 51  1  0
 22 52  1  0
 22 53  1  0
 24 54  1  0
 29 55  1  0
 29 56  1  0
 31 57  1  0
 31 58  1  0
 31 59  1  0
 32 60  1  0
 32 61  1  0
 32 62  1  0
M  END
>  <Energy>  (826) 
1202.2483590467468

>  <compound_id>  (826) 
1113

>  <target_id>  (826) 
1

>  <reference_id>  (826) 
93

>  <inspiration_ids>  (826) 
[81, 93]

>  <energy_score>  (826) 
1090.6050271451936

>  <distance_score>  (826) 
3.8267091669536524

>  <path>  (826) 
/opt/xchem-fragalysis-2/maxwin/BulkDock/SCRATCH/505733/C1113-P93/C1113-P93.minimised.mol

>  <scratch_subdir>  (826) 
/opt/xchem-fragalysis-2/maxwin/BulkDock/SCRATCH/505733/C1113-P93

>  <fragmenstein_runtime>  (826) 
11.154738664627075

>  <fragmenstein_outcome>  (826) 
too moved

>  <fragmenstein_mode>  (826) 
expansion

>  <fragmenstein_error>  (826) 


$$$$
C1114-P81
     RDKit          3D

 64 68  0  0  0  0  0  0  0  0999 V2000
    9.6707   -0.1075   15.1761 C   0  0  0  0  0  0  0  0  0  0  0  0
   10.7173    0.7297   14.4693 C   0  0  0  0  0  0  0  0  0  0  0  0
   10.4538    1.3104   13.4519 O   0  0  0  0  0  0  0  0  0  0  0  0
   11.9383    0.6876   15.2454 N   0  0  0  0  0  0  0  0  0  0  0  0
   13.1447    1.3792   15.0960 C   0  0  0  0  0  0  0  0  0  0  0  0
   13.8466    1.6732   16.2655 C   0  0  0  0  0  0  0  0  0  0  0  0
   14.9781    2.4067   16.3232 N   0  0  0  0  0  0  0  0  0  0  0  0
   15.4273    2.8968   15.1508 C   0  0  0  0  0  0  0  0  0  0  0  0
   14.8473    2.6096   13.9263 C   0  0  0  0  0  0  0  0  0  0  0  0
   13.7189    1.7748   13.8788 C   0  0  0  0  0  0  0  0  0  0  0  0
   13.2805    1.2272   12.5427 C   0  0  0  0  0  0  0  0  0  0  0  0
   14.2744    0.4745   11.7569 N   0  0  0  0  0  0  0  0  0  0  0  0
   15.2828   -0.3258   12.4808 C   0  0  0  0  0  0  0  0  0  0  0  0
   14.8220   -1.2231   13.6243 C   0  0  0  0  0  0  0  0  0  0  0  0
   13.5472   -1.7324   13.4666 N   0  0  0  0  0  0  0  0  0  0  0  0
   12.8231   -2.3922   14.4167 C   0  0  0  0  0  0  0  0  0  0  0  0
   11.6549   -2.7221   14.2639 O   0  0  0  0  0  0  0  0  0  0  0  0
   13.5193   -2.6682   15.6844 C   0  0  0  0  0  0  0  0  0  0  0  0
   12.8590   -3.4358   16.6551 C   0  0  0  0  0  0  0  0  0  0  0  0
   13.4888   -3.7161   17.8601 C   0  0  0  0  0  0  0  0  0  0  0  0
   14.7701   -3.2337   18.0904 C   0  0  0  0  0  0  0  0  0  0  0  0
   15.4334   -2.4865   17.1085 C   0  0  0  0  0  0  0  0  0  0  0  0
   14.8245   -2.1878   15.8756 C   0  0  0  0  0  0  0  0  0  0  0  0
   15.5139   -1.4480   14.7694 C   0  0  0  0  0  0  0  0  0  0  0  0
   16.8136   -1.0491   14.9954 N   0  0  0  0  0  0  0  0  0  0  0  0
   17.9343   -0.9076   14.0907 C   0  0  0  0  0  0  0  0  0  0  0  0
   17.9988   -1.0255   12.8989 O   0  0  0  0  0  0  0  0  0  0  0  0
   19.1997   -0.5586   14.8642 C   0  0  0  0  0  0  0  0  0  0  0  0
   19.4572    0.9446   15.0168 C   0  0  0  0  0  0  0  0  0  0  0  0
   19.3518    1.7377   13.6673 C   0  0  0  0  0  0  0  0  0  0  0  0
   20.2888    1.6614   12.6177 C   0  0  0  0  0  0  0  0  0  0  0  0
   19.7633    2.4808   11.6529 C   0  0  0  0  0  0  0  0  0  0  0  0
   18.5942    3.0116   12.0906 O   0  0  0  0  0  0  0  0  0  0  0  0
   18.3261    2.5396   13.3656 N   0  0  0  0  0  0  0  0  0  0  0  0
   20.7595    1.2643   15.8047 C   0  0  0  0  0  0  0  0  0  0  0  0
   19.9636    1.3675   17.0458 N   0  0  0  0  0  0  0  0  0  0  0  0
   18.7590    1.6322   16.2251 C   0  0  0  0  0  0  0  0  0  0  0  0
   10.0997   -1.0258   15.5837 H   0  0  0  0  0  0  0  0  0  0  0  0
    9.2225    0.4791   15.9825 H   0  0  0  0  0  0  0  0  0  0  0  0
    8.8952   -0.3941   14.4666 H   0  0  0  0  0  0  0  0  0  0  0  0
   11.7732    0.1607   16.0922 H   0  0  0  0  0  0  0  0  0  0  0  0
   13.4869    1.3518   17.2384 H   0  0  0  0  0  0  0  0  0  0  0  0
   16.3141    3.5219   15.2109 H   0  0  0  0  0  0  0  0  0  0  0  0
   15.3183    2.9729   13.0174 H   0  0  0  0  0  0  0  0  0  0  0  0
   12.4416    0.5463   12.6481 H   0  0  0  0  0  0  0  0  0  0  0  0
   12.9051    2.0576   11.9318 H   0  0  0  0  0  0  0  0  0  0  0  0
   14.7849    1.1342   11.1709 H   0  0  0  0  0  0  0  0  0  0  0  0
   15.7560   -0.9680   11.7287 H   0  0  0  0  0  0  0  0  0  0  0  0
   16.0405    0.3796   12.8300 H   0  0  0  0  0  0  0  0  0  0  0  0
   13.0682   -1.5281   12.5965 H   0  0  0  0  0  0  0  0  0  0  0  0
   11.8653   -3.8346   16.4595 H   0  0  0  0  0  0  0  0  0  0  0  0
   12.9831   -4.3075   18.6193 H   0  0  0  0  0  0  0  0  0  0  0  0
   15.2663   -3.4494   19.0350 H   0  0  0  0  0  0  0  0  0  0  0  0
   16.4442   -2.1709   17.3439 H   0  0  0  0  0  0  0  0  0  0  0  0
   17.1434   -0.9599   15.9448 H   0  0  0  0  0  0  0  0  0  0  0  0
   20.0341   -1.0203   14.3177 H   0  0  0  0  0  0  0  0  0  0  0  0
   19.1904   -1.0665   15.8369 H   0  0  0  0  0  0  0  0  0  0  0  0
   21.2013    1.0882   12.5593 H   0  0  0  0  0  0  0  0  0  0  0  0
   20.0677    2.7751   10.6595 H   0  0  0  0  0  0  0  0  0  0  0  0
   21.5226    0.4793   15.8204 H   0  0  0  0  0  0  0  0  0  0  0  0
   21.2529    2.2082   15.5403 H   0  0  0  0  0  0  0  0  0  0  0  0
   19.9243    0.5099   17.5953 H   0  0  0  0  0  0  0  0  0  0  0  0
   18.5609    2.7053   16.1160 H   0  0  0  0  0  0  0  0  0  0  0  0
   17.8479    1.1582   16.6008 H   0  0  0  0  0  0  0  0  0  0  0  0
  1  2  1  0
  2  3  2  0
  2  4  1  0
  4  5  1  0
  5  6  2  0
  6  7  1  0
  7  8  2  0
  8  9  1  0
  9 10  2  0
 10 11  1  0
 11 12  1  0
 12 13  1  0
 13 14  1  0
 14 15  1  0
 15 16  1  0
 16 17  2  0
 16 18  1  0
 18 19  2  0
 19 20  1  0
 20 21  2  0
 21 22  1  0
 22 23  2  0
 23 24  1  0
 24 25  1  0
 25 26  1  0
 26 27  2  0
 26 28  1  0
 28 29  1  0
 29 30  1  0
 30 31  1  0
 31 32  2  0
 32 33  1  0
 33 34  1  0
 29 35  1  0
 35 36  1  0
 36 37  1  0
 10  5  1  0
 24 14  2  0
 37 29  1  0
 23 18  1  0
 34 30  2  0
  1 38  1  0
  1 39  1  0
  1 40  1  0
  4 41  1  0
  6 42  1  0
  8 43  1  0
  9 44  1  0
 11 45  1  0
 11 46  1  0
 12 47  1  0
 13 48  1  0
 13 49  1  0
 15 50  1  0
 19 51  1  0
 20 52  1  0
 21 53  1  0
 22 54  1  0
 25 55  1  0
 28 56  1  0
 28 57  1  0
 31 58  1  0
 32 59  1  0
 35 60  1  0
 35 61  1  0
 36 62  1  0
 37 63  1  0
 37 64  1  0
M  END
>  <Energy>  (827) 
68.308894876588113

>  <compound_id>  (827) 
1114

>  <target_id>  (827) 
1

>  <reference_id>  (827) 
81

>  <inspiration_ids>  (827) 
[81, 97]

>  <energy_score>  (827) 
-86.60072539149127

>  <distance_score>  (827) 
3.2377597985272186

>  <path>  (827) 
/opt/xchem-fragalysis-2/maxwin/BulkDock/SCRATCH/505733/C1114-P81/C1114-P81.minimised.mol

>  <scratch_subdir>  (827) 
/opt/xchem-fragalysis-2/maxwin/BulkDock/SCRATCH/505733/C1114-P81

>  <fragmenstein_runtime>  (827) 
15.555923461914062

>  <fragmenstein_outcome>  (827) 
too moved

>  <fragmenstein_mode>  (827) 
expansion

>  <fragmenstein_error>  (827) 


$$$$
C1114-P97
     RDKit          3D

 64 68  0  0  0  0  0  0  0  0999 V2000
    9.2532    0.2519   15.1289 C   0  0  0  0  0  0  0  0  0  0  0  0
   10.4654    0.9701   14.5750 C   0  0  0  0  0  0  0  0  0  0  0  0
   10.4213    1.7486   13.7035 O   0  0  0  0  0  0  0  0  0  0  0  0
   11.6658    0.4919   15.4387 N   0  0  0  0  0  0  0  0  0  0  0  0
   12.9888    0.9271   15.4688 C   0  0  0  0  0  0  0  0  0  0  0  0
   13.6940    0.5731   16.6176 C   0  0  0  0  0  0  0  0  0  0  0  0
   14.9309    0.9915   16.9320 N   0  0  0  0  0  0  0  0  0  0  0  0
   15.5149    1.8173   16.0451 C   0  0  0  0  0  0  0  0  0  0  0  0
   14.9520    2.1382   14.8216 C   0  0  0  0  0  0  0  0  0  0  0  0
   13.6978    1.5991   14.4733 C   0  0  0  0  0  0  0  0  0  0  0  0
   13.3418    1.5499   13.0000 C   0  0  0  0  0  0  0  0  0  0  0  0
   14.3643    0.8815   12.1779 N   0  0  0  0  0  0  0  0  0  0  0  0
   14.4139   -0.5835   12.2037 C   0  0  0  0  0  0  0  0  0  0  0  0
   14.1082   -1.3094   13.5005 C   0  0  0  0  0  0  0  0  0  0  0  0
   12.7604   -1.6387   13.6433 N   0  0  0  0  0  0  0  0  0  0  0  0
   12.2074   -2.3583   14.6620 C   0  0  0  0  0  0  0  0  0  0  0  0
   11.0019   -2.4801   14.8450 O   0  0  0  0  0  0  0  0  0  0  0  0
   13.1362   -2.8794   15.6542 C   0  0  0  0  0  0  0  0  0  0  0  0
   12.6327   -3.7138   16.6529 C   0  0  0  0  0  0  0  0  0  0  0  0
   13.4436   -4.0704   17.7140 C   0  0  0  0  0  0  0  0  0  0  0  0
   14.7499   -3.6077   17.7589 C   0  0  0  0  0  0  0  0  0  0  0  0
   15.2644   -2.8313   16.7159 C   0  0  0  0  0  0  0  0  0  0  0  0
   14.4773   -2.4870   15.6078 C   0  0  0  0  0  0  0  0  0  0  0  0
   15.0067   -1.7297   14.4260 C   0  0  0  0  0  0  0  0  0  0  0  0
   16.3774   -1.5924   14.3921 N   0  0  0  0  0  0  0  0  0  0  0  0
   17.2740   -0.5272   13.6789 C   0  0  0  0  0  0  0  0  0  0  0  0
   16.9841    0.3446   12.9522 O   0  0  0  0  0  0  0  0  0  0  0  0
   18.7121   -0.8603   14.0312 C   0  0  0  0  0  0  0  0  0  0  0  0
   19.4358   -1.7646   13.0286 C   0  0  0  0  0  0  0  0  0  0  0  0
   20.8402   -2.2103   13.6257 C   0  0  0  0  0  0  0  0  0  0  0  0
   22.1046   -2.0437   13.0276 C   0  0  0  0  0  0  0  0  0  0  0  0
   22.9723   -2.5896   13.9374 C   0  0  0  0  0  0  0  0  0  0  0  0
   22.2816   -3.0471   15.0106 O   0  0  0  0  0  0  0  0  0  0  0  0
   20.9299   -2.8103   14.8199 N   0  0  0  0  0  0  0  0  0  0  0  0
   19.4611   -1.2742   11.5466 C   0  0  0  0  0  0  0  0  0  0  0  0
   19.3002   -2.6791   11.1161 N   0  0  0  0  0  0  0  0  0  0  0  0
   18.6746   -2.9898   12.4208 C   0  0  0  0  0  0  0  0  0  0  0  0
    8.6623    0.9600   15.7154 H   0  0  0  0  0  0  0  0  0  0  0  0
    8.6735   -0.1311   14.2921 H   0  0  0  0  0  0  0  0  0  0  0  0
    9.4899   -0.5998   15.7661 H   0  0  0  0  0  0  0  0  0  0  0  0
   11.3657   -0.2532   16.0510 H   0  0  0  0  0  0  0  0  0  0  0  0
   13.2699   -0.0820   17.3658 H   0  0  0  0  0  0  0  0  0  0  0  0
   16.4984    2.1855   16.3222 H   0  0  0  0  0  0  0  0  0  0  0  0
   15.5318    2.7150   14.1063 H   0  0  0  0  0  0  0  0  0  0  0  0
   12.3923    1.0587   12.7995 H   0  0  0  0  0  0  0  0  0  0  0  0
   13.2360    2.5827   12.6474 H   0  0  0  0  0  0  0  0  0  0  0  0
   15.3001    1.2043   12.4415 H   0  0  0  0  0  0  0  0  0  0  0  0
   15.3763   -0.9223   11.8040 H   0  0  0  0  0  0  0  0  0  0  0  0
   13.7353   -0.9439   11.4322 H   0  0  0  0  0  0  0  0  0  0  0  0
   12.0832   -1.2655   12.9910 H   0  0  0  0  0  0  0  0  0  0  0  0
   11.6124   -4.0806   16.6042 H   0  0  0  0  0  0  0  0  0  0  0  0
   13.0559   -4.6760   18.5281 H   0  0  0  0  0  0  0  0  0  0  0  0
   15.3837   -3.8558   18.6088 H   0  0  0  0  0  0  0  0  0  0  0  0
   16.2921   -2.4918   16.8145 H   0  0  0  0  0  0  0  0  0  0  0  0
   16.9646   -2.2531   14.8874 H   0  0  0  0  0  0  0  0  0  0  0  0
   18.7356   -1.2900   15.0401 H   0  0  0  0  0  0  0  0  0  0  0  0
   19.2455    0.0962   14.1169 H   0  0  0  0  0  0  0  0  0  0  0  0
   22.3595   -1.6096   12.0734 H   0  0  0  0  0  0  0  0  0  0  0  0
   24.0424   -2.7288   13.9759 H   0  0  0  0  0  0  0  0  0  0  0  0
   18.6196   -0.6410   11.2426 H   0  0  0  0  0  0  0  0  0  0  0  0
   20.3735   -0.7874   11.1922 H   0  0  0  0  0  0  0  0  0  0  0  0
   18.6981   -2.8263   10.3055 H   0  0  0  0  0  0  0  0  0  0  0  0
   18.9295   -3.9762   12.8205 H   0  0  0  0  0  0  0  0  0  0  0  0
   17.5830   -2.9103   12.3906 H   0  0  0  0  0  0  0  0  0  0  0  0
  1  2  1  0
  2  3  2  0
  2  4  1  0
  4  5  1  0
  5  6  2  0
  6  7  1  0
  7  8  2  0
  8  9  1  0
  9 10  2  0
 10 11  1  0
 11 12  1  0
 12 13  1  0
 13 14  1  0
 14 15  1  0
 15 16  1  0
 16 17  2  0
 16 18  1  0
 18 19  2  0
 19 20  1  0
 20 21  2  0
 21 22  1  0
 22 23  2  0
 23 24  1  0
 24 25  1  0
 25 26  1  0
 26 27  2  0
 26 28  1  0
 28 29  1  0
 29 30  1  0
 30 31  1  0
 31 32  2  0
 32 33  1  0
 33 34  1  0
 29 35  1  0
 35 36  1  0
 36 37  1  0
 10  5  1  0
 24 14  2  0
 37 29  1  0
 23 18  1  0
 34 30  2  0
  1 38  1  0
  1 39  1  0
  1 40  1  0
  4 41  1  0
  6 42  1  0
  8 43  1  0
  9 44  1  0
 11 45  1  0
 11 46  1  0
 12 47  1  0
 13 48  1  0
 13 49  1  0
 15 50  1  0
 19 51  1  0
 20 52  1  0
 21 53  1  0
 22 54  1  0
 25 55  1  0
 28 56  1  0
 28 57  1  0
 31 58  1  0
 32 59  1  0
 35 60  1  0
 35 61  1  0
 36 62  1  0
 37 63  1  0
 37 64  1  0
M  END
>  <Energy>  (828) 
96.35609990593025

>  <compound_id>  (828) 
1114

>  <target_id>  (828) 
1

>  <reference_id>  (828) 
97

>  <inspiration_ids>  (828) 
[81, 97]

>  <energy_score>  (828) 
-68.32541420358177

>  <distance_score>  (828) 
2.4948058647541917

>  <path>  (828) 
/opt/xchem-fragalysis-2/maxwin/BulkDock/SCRATCH/505733/C1114-P97/C1114-P97.minimised.mol

>  <scratch_subdir>  (828) 
/opt/xchem-fragalysis-2/maxwin/BulkDock/SCRATCH/505733/C1114-P97

>  <fragmenstein_runtime>  (828) 
9.516140460968018

>  <fragmenstein_outcome>  (828) 
too moved

>  <fragmenstein_mode>  (828) 
expansion

>  <fragmenstein_error>  (828) 


$$$$
C1115-P81
     RDKit          3D

 50 52  0  0  0  0  0  0  0  0999 V2000
   14.9445   -1.8374   21.0249 C   0  0  0  0  0  0  0  0  0  0  0  0
   14.7842   -0.5222   20.2925 C   0  0  0  0  0  0  0  0  0  0  0  0
   14.7665    0.5183   20.8256 O   0  0  0  0  0  0  0  0  0  0  0  0
   14.7237   -0.8816   18.7746 N   0  0  0  0  0  0  0  0  0  0  0  0
   14.5393   -0.0616   17.6522 C   0  0  0  0  0  0  0  0  0  0  0  0
   14.2156    1.2863   17.8654 C   0  0  0  0  0  0  0  0  0  0  0  0
   13.9682    2.1971   16.8940 N   0  0  0  0  0  0  0  0  0  0  0  0
   14.1364    1.7852   15.6360 C   0  0  0  0  0  0  0  0  0  0  0  0
   14.4933    0.4918   15.3080 C   0  0  0  0  0  0  0  0  0  0  0  0
   14.6436   -0.4995   16.3145 C   0  0  0  0  0  0  0  0  0  0  0  0
   14.8076   -1.9325   15.7766 C   0  0  0  0  0  0  0  0  0  0  0  0
   15.5437   -2.9242   16.6855 C   0  0  0  0  0  0  0  0  0  0  0  0
   16.1612   -4.0858   15.9758 N   0  0  0  0  0  0  0  0  0  0  0  0
   17.2666   -4.8843   16.9783 S   0  0  0  0  0  0  0  0  0  0  0  0
   16.5959   -5.1165   18.2358 O   0  0  0  0  0  0  0  0  0  0  0  0
   18.4986   -4.1396   16.8967 O   0  0  0  0  0  0  0  0  0  0  0  0
   17.4476   -6.3479   16.1694 N   0  0  0  0  0  0  0  0  0  0  0  0
   18.2074   -6.2714   14.8843 C   0  0  0  0  0  0  0  0  0  0  0  0
   18.2240   -7.6474   14.1952 C   0  0  0  0  0  0  0  0  0  0  0  0
   18.8531   -8.6841   15.0265 N   0  0  0  0  0  0  0  0  0  0  0  0
   18.1521   -8.7596   16.3222 C   0  0  0  0  0  0  0  0  0  0  0  0
   18.0662   -7.4058   17.0513 C   0  0  0  0  0  0  0  0  0  0  0  0
   13.3752   -2.2613   15.4381 C   0  0  0  0  0  0  0  0  0  0  0  0
   12.3693   -2.7660   16.2815 C   0  0  0  0  0  0  0  0  0  0  0  0
   11.1523   -2.6455   15.7557 N   0  0  0  0  0  0  0  0  0  0  0  0
   11.3630   -2.1669   14.5225 N   0  0  0  0  0  0  0  0  0  0  0  0
   12.6883   -1.9619   14.2674 C   0  0  0  0  0  0  0  0  0  0  0  0
   14.7862   -1.6771   22.0952 H   0  0  0  0  0  0  0  0  0  0  0  0
   15.9551   -2.2228   20.8657 H   0  0  0  0  0  0  0  0  0  0  0  0
   14.2083   -2.5661   20.6748 H   0  0  0  0  0  0  0  0  0  0  0  0
   14.8431   -1.8721   18.6589 H   0  0  0  0  0  0  0  0  0  0  0  0
   14.1078    1.6975   18.8661 H   0  0  0  0  0  0  0  0  0  0  0  0
   13.9728    2.5371   14.8701 H   0  0  0  0  0  0  0  0  0  0  0  0
   14.5935    0.2418   14.2551 H   0  0  0  0  0  0  0  0  0  0  0  0
   15.3821   -1.8730   14.8407 H   0  0  0  0  0  0  0  0  0  0  0  0
   16.3588   -2.3844   17.1841 H   0  0  0  0  0  0  0  0  0  0  0  0
   14.8676   -3.3450   17.4363 H   0  0  0  0  0  0  0  0  0  0  0  0
   16.6461   -3.8069   15.1233 H   0  0  0  0  0  0  0  0  0  0  0  0
   17.7353   -5.5476   14.2162 H   0  0  0  0  0  0  0  0  0  0  0  0
   19.2368   -5.9427   15.0726 H   0  0  0  0  0  0  0  0  0  0  0  0
   17.2018   -7.9548   13.9481 H   0  0  0  0  0  0  0  0  0  0  0  0
   18.7774   -7.5697   13.2533 H   0  0  0  0  0  0  0  0  0  0  0  0
   18.7655   -9.5888   14.5622 H   0  0  0  0  0  0  0  0  0  0  0  0
   17.1452   -9.1571   16.1615 H   0  0  0  0  0  0  0  0  0  0  0  0
   18.6783   -9.4764   16.9620 H   0  0  0  0  0  0  0  0  0  0  0  0
   19.0702   -7.0853   17.3564 H   0  0  0  0  0  0  0  0  0  0  0  0
   17.4552   -7.5406   17.9502 H   0  0  0  0  0  0  0  0  0  0  0  0
   12.4597   -3.1490   17.2899 H   0  0  0  0  0  0  0  0  0  0  0  0
   10.5591   -2.0094   13.9089 H   0  0  0  0  0  0  0  0  0  0  0  0
   13.0063   -1.5499   13.3213 H   0  0  0  0  0  0  0  0  0  0  0  0
  1  2  1  0
  2  3  2  0
  2  4  1  0
  4  5  1  0
  5  6  2  0
  6  7  1  0
  7  8  2  0
  8  9  1  0
  9 10  2  0
 10 11  1  0
 11 12  1  0
 12 13  1  0
 13 14  1  0
 14 15  2  0
 14 16  2  0
 14 17  1  0
 17 18  1  0
 18 19  1  0
 19 20  1  0
 20 21  1  0
 21 22  1  0
 11 23  1  0
 23 24  1  0
 24 25  2  0
 25 26  1  0
 26 27  1  0
 10  5  1  0
 22 17  1  0
 27 23  2  0
  1 28  1  0
  1 29  1  0
  1 30  1  0
  4 31  1  0
  6 32  1  0
  8 33  1  0
  9 34  1  0
 11 35  1  0
 12 36  1  0
 12 37  1  0
 13 38  1  0
 18 39  1  0
 18 40  1  0
 19 41  1  0
 19 42  1  0
 20 43  1  0
 21 44  1  0
 21 45  1  0
 22 46  1  0
 22 47  1  0
 24 48  1  0
 26 49  1  0
 27 50  1  0
M  END
>  <Energy>  (829) 
-49.3556851238042

>  <compound_id>  (829) 
1115

>  <target_id>  (829) 
1

>  <reference_id>  (829) 
81

>  <inspiration_ids>  (829) 
[81, 103]

>  <energy_score>  (829) 
-90.33708379992734

>  <distance_score>  (829) 
2.1133172288703688

>  <path>  (829) 
/opt/xchem-fragalysis-2/maxwin/BulkDock/SCRATCH/505733/C1115-P81/C1115-P81.minimised.mol

>  <scratch_subdir>  (829) 
/opt/xchem-fragalysis-2/maxwin/BulkDock/SCRATCH/505733/C1115-P81

>  <fragmenstein_runtime>  (829) 
5.51895546913147

>  <fragmenstein_outcome>  (829) 
too moved

>  <fragmenstein_mode>  (829) 
expansion

>  <fragmenstein_error>  (829) 


$$$$
C1115-P103
     RDKit          3D

 50 52  0  0  0  0  0  0  0  0999 V2000
   18.5141   -0.3200   12.6395 C   0  0  0  0  0  0  0  0  0  0  0  0
   17.6996    0.7975   13.2586 C   0  0  0  0  0  0  0  0  0  0  0  0
   17.9348    1.9378   12.9763 O   0  0  0  0  0  0  0  0  0  0  0  0
   16.7342    0.2316   14.1697 N   0  0  0  0  0  0  0  0  0  0  0  0
   15.7200    0.8376   14.9296 C   0  0  0  0  0  0  0  0  0  0  0  0
   15.5932    2.2287   14.9640 C   0  0  0  0  0  0  0  0  0  0  0  0
   14.6839    2.9064   15.7097 N   0  0  0  0  0  0  0  0  0  0  0  0
   13.8710    2.1730   16.4866 C   0  0  0  0  0  0  0  0  0  0  0  0
   13.9062    0.7907   16.5249 C   0  0  0  0  0  0  0  0  0  0  0  0
   14.8135    0.0865   15.7036 C   0  0  0  0  0  0  0  0  0  0  0  0
   14.7977   -1.4356   15.6883 C   0  0  0  0  0  0  0  0  0  0  0  0
   15.4404   -1.9994   16.9740 C   0  0  0  0  0  0  0  0  0  0  0  0
   16.1665   -3.2813   16.7129 N   0  0  0  0  0  0  0  0  0  0  0  0
   17.7289   -3.0725   16.1129 S   0  0  0  0  0  0  0  0  0  0  0  0
   18.4425   -2.2082   17.0178 O   0  0  0  0  0  0  0  0  0  0  0  0
   17.5762   -2.7329   14.7174 O   0  0  0  0  0  0  0  0  0  0  0  0
   18.3010   -4.6252   16.2671 N   0  0  0  0  0  0  0  0  0  0  0  0
   17.8189   -5.6532   15.3136 C   0  0  0  0  0  0  0  0  0  0  0  0
   18.2780   -7.0662   15.7196 C   0  0  0  0  0  0  0  0  0  0  0  0
   17.8922   -7.4824   17.0745 N   0  0  0  0  0  0  0  0  0  0  0  0
   17.7178   -6.3425   17.9851 C   0  0  0  0  0  0  0  0  0  0  0  0
   18.5903   -5.1250   17.6405 C   0  0  0  0  0  0  0  0  0  0  0  0
   13.3659   -1.8379   15.4254 C   0  0  0  0  0  0  0  0  0  0  0  0
   12.5024   -2.6488   16.1948 C   0  0  0  0  0  0  0  0  0  0  0  0
   11.2744   -2.7243   15.6850 N   0  0  0  0  0  0  0  0  0  0  0  0
   11.3429   -2.0169   14.5454 N   0  0  0  0  0  0  0  0  0  0  0  0
   12.5824   -1.4850   14.3379 C   0  0  0  0  0  0  0  0  0  0  0  0
   17.8569   -1.0984   12.2411 H   0  0  0  0  0  0  0  0  0  0  0  0
   19.1886   -0.7418   13.3893 H   0  0  0  0  0  0  0  0  0  0  0  0
   19.1088    0.0778   11.8118 H   0  0  0  0  0  0  0  0  0  0  0  0
   16.8738   -0.7748   14.2178 H   0  0  0  0  0  0  0  0  0  0  0  0
   16.2473    2.8767   14.3873 H   0  0  0  0  0  0  0  0  0  0  0  0
   13.1658    2.7374   17.0916 H   0  0  0  0  0  0  0  0  0  0  0  0
   13.2063    0.2701   17.1693 H   0  0  0  0  0  0  0  0  0  0  0  0
   15.3292   -1.8042   14.8082 H   0  0  0  0  0  0  0  0  0  0  0  0
   16.1385   -1.2831   17.4241 H   0  0  0  0  0  0  0  0  0  0  0  0
   14.6953   -2.1970   17.7522 H   0  0  0  0  0  0  0  0  0  0  0  0
   15.6364   -3.8865   16.0859 H   0  0  0  0  0  0  0  0  0  0  0  0
   16.7264   -5.6346   15.2678 H   0  0  0  0  0  0  0  0  0  0  0  0
   18.2138   -5.4251   14.3179 H   0  0  0  0  0  0  0  0  0  0  0  0
   17.8935   -7.7971   14.9993 H   0  0  0  0  0  0  0  0  0  0  0  0
   19.3721   -7.1139   15.6550 H   0  0  0  0  0  0  0  0  0  0  0  0
   17.0441   -8.0543   17.0676 H   0  0  0  0  0  0  0  0  0  0  0  0
   17.9392   -6.6759   19.0044 H   0  0  0  0  0  0  0  0  0  0  0  0
   16.6656   -6.0354   17.9717 H   0  0  0  0  0  0  0  0  0  0  0  0
   19.6535   -5.3885   17.6902 H   0  0  0  0  0  0  0  0  0  0  0  0
   18.4220   -4.3480   18.3933 H   0  0  0  0  0  0  0  0  0  0  0  0
   12.6993   -3.1722   17.1226 H   0  0  0  0  0  0  0  0  0  0  0  0
   10.5098   -1.9361   13.9554 H   0  0  0  0  0  0  0  0  0  0  0  0
   12.7844   -0.8793   13.4656 H   0  0  0  0  0  0  0  0  0  0  0  0
  1  2  1  0
  2  3  2  0
  2  4  1  0
  4  5  1  0
  5  6  2  0
  6  7  1  0
  7  8  2  0
  8  9  1  0
  9 10  2  0
 10 11  1  0
 11 12  1  0
 12 13  1  0
 13 14  1  0
 14 15  2  0
 14 16  2  0
 14 17  1  0
 17 18  1  0
 18 19  1  0
 19 20  1  0
 20 21  1  0
 21 22  1  0
 11 23  1  0
 23 24  1  0
 24 25  2  0
 25 26  1  0
 26 27  1  0
 10  5  1  0
 22 17  1  0
 27 23  2  0
  1 28  1  0
  1 29  1  0
  1 30  1  0
  4 31  1  0
  6 32  1  0
  8 33  1  0
  9 34  1  0
 11 35  1  0
 12 36  1  0
 12 37  1  0
 13 38  1  0
 18 39  1  0
 18 40  1  0
 19 41  1  0
 19 42  1  0
 20 43  1  0
 21 44  1  0
 21 45  1  0
 22 46  1  0
 22 47  1  0
 24 48  1  0
 26 49  1  0
 27 50  1  0
M  END
>  <Energy>  (830) 
-69.437248632020101

>  <compound_id>  (830) 
1115

>  <target_id>  (830) 
1

>  <reference_id>  (830) 
103

>  <inspiration_ids>  (830) 
[81, 103]

>  <energy_score>  (830) 
-99.59283310043314

>  <distance_score>  (830) 
2.815982775798757

>  <path>  (830) 
/opt/xchem-fragalysis-2/maxwin/BulkDock/SCRATCH/505733/C1115-P103/C1115-P103.minimised.mol

>  <scratch_subdir>  (830) 
/opt/xchem-fragalysis-2/maxwin/BulkDock/SCRATCH/505733/C1115-P103

>  <fragmenstein_runtime>  (830) 
8.940859079360962

>  <fragmenstein_outcome>  (830) 
too moved

>  <fragmenstein_mode>  (830) 
expansion

>  <fragmenstein_error>  (830) 


$$$$
C1116-P81
     RDKit          3D

 45 46  0  0  0  0  0  0  0  0999 V2000
   17.1096   -0.6382   12.7156 C   0  0  0  0  0  0  0  0  0  0  0  0
   16.2529   -1.6609   13.4657 C   0  0  0  0  0  0  0  0  0  0  0  0
   14.8802   -1.8187   12.7602 C   0  0  0  0  0  0  0  0  0  0  0  0
   13.6886   -1.3944   13.6257 C   0  0  0  0  0  0  0  0  0  0  0  0
   13.6686   -2.0527   15.0231 C   0  0  0  0  0  0  0  0  0  0  0  0
   12.7967   -1.2674   16.0714 C   0  0  0  0  0  0  0  0  0  0  0  0
   11.5170   -0.8094   15.4954 N   0  0  0  0  0  0  0  0  0  0  0  0
   13.5271   -0.1049   16.7374 C   0  0  0  0  0  0  0  0  0  0  0  0
   14.2106   -0.3065   17.9482 C   0  0  0  0  0  0  0  0  0  0  0  0
   14.9353    0.7210   18.5549 C   0  0  0  0  0  0  0  0  0  0  0  0
   14.9945    1.9738   17.9578 C   0  0  0  0  0  0  0  0  0  0  0  0
   14.3265    2.1948   16.7576 C   0  0  0  0  0  0  0  0  0  0  0  0
   13.5921    1.1690   16.1565 C   0  0  0  0  0  0  0  0  0  0  0  0
   15.0745   -2.2960   15.4984 N   0  0  0  0  0  0  0  0  0  0  0  0
   15.3743   -3.5296   16.5919 S   0  0  0  0  0  0  0  0  0  0  0  0
   16.5926   -4.5300   15.7665 C   0  0  0  0  0  0  0  0  0  0  0  0
   14.1682   -4.3177   16.7299 O   0  0  0  0  0  0  0  0  0  0  0  0
   16.0167   -2.9858   17.7648 O   0  0  0  0  0  0  0  0  0  0  0  0
   16.0700   -1.3190   14.9666 C   0  0  0  0  0  0  0  0  0  0  0  0
   17.3777   -1.1665   15.7639 C   0  0  0  0  0  0  0  0  0  0  0  0
   17.9695    0.1158   15.5288 O   0  0  0  0  0  0  0  0  0  0  0  0
   16.6962    0.3713   12.8110 H   0  0  0  0  0  0  0  0  0  0  0  0
   18.1378   -0.6299   13.0886 H   0  0  0  0  0  0  0  0  0  0  0  0
   17.1625   -0.8836   11.6491 H   0  0  0  0  0  0  0  0  0  0  0  0
   16.7701   -2.6268   13.3877 H   0  0  0  0  0  0  0  0  0  0  0  0
   14.8504   -1.2527   11.8209 H   0  0  0  0  0  0  0  0  0  0  0  0
   14.7545   -2.8649   12.4659 H   0  0  0  0  0  0  0  0  0  0  0  0
   12.7578   -1.6358   13.0998 H   0  0  0  0  0  0  0  0  0  0  0  0
   13.7127   -0.3025   13.7073 H   0  0  0  0  0  0  0  0  0  0  0  0
   13.1807   -3.0225   14.8740 H   0  0  0  0  0  0  0  0  0  0  0  0
   12.5384   -1.9802   16.8646 H   0  0  0  0  0  0  0  0  0  0  0  0
   10.9552   -0.3984   16.2316 H   0  0  0  0  0  0  0  0  0  0  0  0
   11.0045   -1.6035   15.1106 H   0  0  0  0  0  0  0  0  0  0  0  0
   14.2087   -1.2830   18.4298 H   0  0  0  0  0  0  0  0  0  0  0  0
   15.4552    0.5335   19.4917 H   0  0  0  0  0  0  0  0  0  0  0  0
   15.5530    2.7773   18.4306 H   0  0  0  0  0  0  0  0  0  0  0  0
   14.3635    3.1764   16.2914 H   0  0  0  0  0  0  0  0  0  0  0  0
   13.0731    1.3732   15.2223 H   0  0  0  0  0  0  0  0  0  0  0  0
   16.7719   -5.4127   16.3833 H   0  0  0  0  0  0  0  0  0  0  0  0
   16.2247   -4.8271   14.7921 H   0  0  0  0  0  0  0  0  0  0  0  0
   17.5262   -3.9799   15.6711 H   0  0  0  0  0  0  0  0  0  0  0  0
   15.6157   -0.3232   15.0059 H   0  0  0  0  0  0  0  0  0  0  0  0
   18.1145   -1.9211   15.4809 H   0  0  0  0  0  0  0  0  0  0  0  0
   17.2204   -1.2197   16.8409 H   0  0  0  0  0  0  0  0  0  0  0  0
   17.4186    0.7640   16.0071 H   0  0  0  0  0  0  0  0  0  0  0  0
  1  2  1  0
  2  3  1  0
  3  4  1  0
  4  5  1  0
  5  6  1  0
  6  7  1  0
  6  8  1  0
  8  9  2  0
  9 10  1  0
 10 11  2  0
 11 12  1  0
 12 13  2  0
  5 14  1  0
 14 15  1  0
 15 16  1  0
 15 17  2  0
 15 18  2  0
 14 19  1  0
 19 20  1  0
 20 21  1  0
 19  2  1  0
 13  8  1  0
  1 22  1  0
  1 23  1  0
  1 24  1  0
  2 25  1  0
  3 26  1  0
  3 27  1  0
  4 28  1  0
  4 29  1  0
  5 30  1  0
  6 31  1  0
  7 32  1  0
  7 33  1  0
  9 34  1  0
 10 35  1  0
 11 36  1  0
 12 37  1  0
 13 38  1  0
 16 39  1  0
 16 40  1  0
 16 41  1  0
 19 42  1  0
 20 43  1  0
 20 44  1  0
 21 45  1  0
M  END
>  <Energy>  (831) 
35.74739969804434

>  <compound_id>  (831) 
1116

>  <target_id>  (831) 
1

>  <reference_id>  (831) 
81

>  <inspiration_ids>  (831) 
[81, 106]

>  <energy_score>  (831) 
-84.65246109433457

>  <distance_score>  (831) 
1.4555871965807399

>  <path>  (831) 
/opt/xchem-fragalysis-2/maxwin/BulkDock/SCRATCH/505733/C1116-P81/C1116-P81.minimised.mol

>  <scratch_subdir>  (831) 
/opt/xchem-fragalysis-2/maxwin/BulkDock/SCRATCH/505733/C1116-P81

>  <fragmenstein_runtime>  (831) 
2.6155126094818115

>  <fragmenstein_outcome>  (831) 
too moved

>  <fragmenstein_mode>  (831) 
expansion

>  <fragmenstein_error>  (831) 


$$$$
C1116-P106
     RDKit          3D

 45 46  0  0  0  0  0  0  0  0999 V2000
   16.9614   -0.1243   13.0103 C   0  0  0  0  0  0  0  0  0  0  0  0
   15.9413   -1.1320   13.5496 C   0  0  0  0  0  0  0  0  0  0  0  0
   14.5376   -0.6311   13.1917 C   0  0  0  0  0  0  0  0  0  0  0  0
   13.4690   -1.6137   13.6308 C   0  0  0  0  0  0  0  0  0  0  0  0
   13.5710   -2.0828   15.0937 C   0  0  0  0  0  0  0  0  0  0  0  0
   12.8097   -1.2135   16.1621 C   0  0  0  0  0  0  0  0  0  0  0  0
   11.5045   -0.7447   15.6511 N   0  0  0  0  0  0  0  0  0  0  0  0
   13.5622   -0.0522   16.7853 C   0  0  0  0  0  0  0  0  0  0  0  0
   14.2152   -0.2135   18.0188 C   0  0  0  0  0  0  0  0  0  0  0  0
   14.9430    0.8273   18.5991 C   0  0  0  0  0  0  0  0  0  0  0  0
   15.0267    2.0561   17.9571 C   0  0  0  0  0  0  0  0  0  0  0  0
   14.3740    2.2419   16.7425 C   0  0  0  0  0  0  0  0  0  0  0  0
   13.6376    1.2028   16.1681 C   0  0  0  0  0  0  0  0  0  0  0  0
   15.0121   -2.4686   15.4217 N   0  0  0  0  0  0  0  0  0  0  0  0
   15.2179   -3.5626   16.7023 S   0  0  0  0  0  0  0  0  0  0  0  0
   16.4308   -4.7143   16.0863 C   0  0  0  0  0  0  0  0  0  0  0  0
   13.9886   -4.3079   16.8750 O   0  0  0  0  0  0  0  0  0  0  0  0
   15.8136   -2.8737   17.8222 O   0  0  0  0  0  0  0  0  0  0  0  0
   16.0327   -1.3958   15.0821 C   0  0  0  0  0  0  0  0  0  0  0  0
   17.4888   -1.6750   15.5181 C   0  0  0  0  0  0  0  0  0  0  0  0
   18.2511   -0.4668   15.6007 O   0  0  0  0  0  0  0  0  0  0  0  0
   16.9162    0.8212   13.5609 H   0  0  0  0  0  0  0  0  0  0  0  0
   17.9809   -0.5168   13.0673 H   0  0  0  0  0  0  0  0  0  0  0  0
   16.7703    0.0947   11.9537 H   0  0  0  0  0  0  0  0  0  0  0  0
   16.1098   -2.0827   13.0242 H   0  0  0  0  0  0  0  0  0  0  0  0
   14.3607    0.3514   13.6363 H   0  0  0  0  0  0  0  0  0  0  0  0
   14.4573   -0.4922   12.1059 H   0  0  0  0  0  0  0  0  0  0  0  0
   13.5656   -2.4911   12.9799 H   0  0  0  0  0  0  0  0  0  0  0  0
   12.4807   -1.2041   13.4027 H   0  0  0  0  0  0  0  0  0  0  0  0
   12.9928   -3.0174   15.0793 H   0  0  0  0  0  0  0  0  0  0  0  0
   12.5689   -1.9001   16.9836 H   0  0  0  0  0  0  0  0  0  0  0  0
   10.9762   -0.3395   16.4136 H   0  0  0  0  0  0  0  0  0  0  0  0
   10.9715   -1.5265   15.2698 H   0  0  0  0  0  0  0  0  0  0  0  0
   14.1814   -1.1656   18.5447 H   0  0  0  0  0  0  0  0  0  0  0  0
   15.4417    0.6702   19.5524 H   0  0  0  0  0  0  0  0  0  0  0  0
   15.5866    2.8710   18.4074 H   0  0  0  0  0  0  0  0  0  0  0  0
   14.4202    3.2079   16.2460 H   0  0  0  0  0  0  0  0  0  0  0  0
   13.1145    1.3843   15.2317 H   0  0  0  0  0  0  0  0  0  0  0  0
   16.5660   -5.4817   16.8524 H   0  0  0  0  0  0  0  0  0  0  0  0
   16.0707   -5.1741   15.1730 H   0  0  0  0  0  0  0  0  0  0  0  0
   17.3889   -4.2314   15.9192 H   0  0  0  0  0  0  0  0  0  0  0  0
   15.7480   -0.4729   15.5864 H   0  0  0  0  0  0  0  0  0  0  0  0
   17.9894   -2.3402   14.8073 H   0  0  0  0  0  0  0  0  0  0  0  0
   17.5736   -2.1190   16.5067 H   0  0  0  0  0  0  0  0  0  0  0  0
   17.8679    0.0580   16.3284 H   0  0  0  0  0  0  0  0  0  0  0  0
  1  2  1  0
  2  3  1  0
  3  4  1  0
  4  5  1  0
  5  6  1  0
  6  7  1  0
  6  8  1  0
  8  9  2  0
  9 10  1  0
 10 11  2  0
 11 12  1  0
 12 13  2  0
  5 14  1  0
 14 15  1  0
 15 16  1  0
 15 17  2  0
 15 18  2  0
 14 19  1  0
 19 20  1  0
 20 21  1  0
 19  2  1  0
 13  8  1  0
  1 22  1  0
  1 23  1  0
  1 24  1  0
  2 25  1  0
  3 26  1  0
  3 27  1  0
  4 28  1  0
  4 29  1  0
  5 30  1  0
  6 31  1  0
  7 32  1  0
  7 33  1  0
  9 34  1  0
 10 35  1  0
 11 36  1  0
 12 37  1  0
 13 38  1  0
 16 39  1  0
 16 40  1  0
 16 41  1  0
 19 42  1  0
 20 43  1  0
 20 44  1  0
 21 45  1  0
M  END
>  <Energy>  (832) 
36.322589456433477

>  <compound_id>  (832) 
1116

>  <target_id>  (832) 
1

>  <reference_id>  (832) 
106

>  <inspiration_ids>  (832) 
[81, 106]

>  <energy_score>  (832) 
-84.07727133594636

>  <distance_score>  (832) 
1.5026527157106748

>  <path>  (832) 
/opt/xchem-fragalysis-2/maxwin/BulkDock/SCRATCH/505733/C1116-P106/C1116-P106.minimised.mol

>  <scratch_subdir>  (832) 
/opt/xchem-fragalysis-2/maxwin/BulkDock/SCRATCH/505733/C1116-P106

>  <fragmenstein_runtime>  (832) 
2.8759586811065674

>  <fragmenstein_outcome>  (832) 
too moved

>  <fragmenstein_mode>  (832) 
expansion

>  <fragmenstein_error>  (832) 


$$$$
C1117-P81
     RDKit          3D

 59 61  0  0  0  0  0  0  0  0999 V2000
   10.7007    0.5393   14.2189 C   0  0  0  0  0  0  0  0  0  0  0  0
   11.6346   -0.3536   14.9514 C   0  0  0  0  0  0  0  0  0  0  0  0
   12.6698   -0.0465   15.7530 C   0  0  0  0  0  0  0  0  0  0  0  0
   13.1048    1.3574   16.1028 C   0  0  0  0  0  0  0  0  0  0  0  0
   13.7252    2.1799   14.9522 C   0  0  0  0  0  0  0  0  0  0  0  0
   14.6385    1.3729   14.1387 N   0  0  0  0  0  0  0  0  0  0  0  0
   15.0861    1.8511   12.7585 S   0  0  0  0  0  0  0  0  0  0  0  0
   13.6851    1.7947   11.6637 C   0  0  0  0  0  0  0  0  0  0  0  0
   15.7467    3.1090   12.4973 O   0  0  0  0  0  0  0  0  0  0  0  0
   16.1719    0.6356   12.2179 N   0  0  0  0  0  0  0  0  0  0  0  0
   15.6805   -0.7411   12.0597 C   0  0  0  0  0  0  0  0  0  0  0  0
   15.7642   -1.5692   13.3368 C   0  0  0  0  0  0  0  0  0  0  0  0
   17.1685   -1.5554   13.9234 C   0  0  0  0  0  0  0  0  0  0  0  0
   17.7393   -0.1291   14.0219 C   0  0  0  0  0  0  0  0  0  0  0  0
   19.1751   -0.2121   14.5465 C   0  0  0  0  0  0  0  0  0  0  0  0
   17.5971    0.5915   12.6501 C   0  0  0  0  0  0  0  0  0  0  0  0
   18.3036    1.9650   12.5869 C   0  0  0  0  0  0  0  0  0  0  0  0
   19.7212    1.8099   12.4906 O   0  0  0  0  0  0  0  0  0  0  0  0
   13.2139   -1.2156   16.2884 N   0  0  0  0  0  0  0  0  0  0  0  0
   14.3448   -1.3908   17.1523 C   0  0  0  0  0  0  0  0  0  0  0  0
   14.4101   -2.4718   18.0473 C   0  0  0  0  0  0  0  0  0  0  0  0
   15.5009   -2.6475   18.9067 C   0  0  0  0  0  0  0  0  0  0  0  0
   16.5646   -1.7544   18.8755 C   0  0  0  0  0  0  0  0  0  0  0  0
   16.5384   -0.6936   17.9787 C   0  0  0  0  0  0  0  0  0  0  0  0
   15.4404   -0.5199   17.1273 C   0  0  0  0  0  0  0  0  0  0  0  0
   12.5054   -2.3375   15.7959 C   0  0  0  0  0  0  0  0  0  0  0  0
   12.6599   -3.5268   16.0313 O   0  0  0  0  0  0  0  0  0  0  0  0
   11.4544   -1.8350   14.8357 C   0  0  0  0  0  0  0  0  0  0  0  0
   10.8131    1.5891   14.4999 H   0  0  0  0  0  0  0  0  0  0  0  0
   10.8629    0.4575   13.1406 H   0  0  0  0  0  0  0  0  0  0  0  0
    9.6667    0.2563   14.4383 H   0  0  0  0  0  0  0  0  0  0  0  0
   12.2232    1.9097   16.4581 H   0  0  0  0  0  0  0  0  0  0  0  0
   13.7653    1.3757   16.9728 H   0  0  0  0  0  0  0  0  0  0  0  0
   14.2579    3.0435   15.3660 H   0  0  0  0  0  0  0  0  0  0  0  0
   12.9167    2.5748   14.3272 H   0  0  0  0  0  0  0  0  0  0  0  0
   13.1057    0.8899   11.8498 H   0  0  0  0  0  0  0  0  0  0  0  0
   13.0668    2.6759   11.8485 H   0  0  0  0  0  0  0  0  0  0  0  0
   14.0463    1.8138   10.6333 H   0  0  0  0  0  0  0  0  0  0  0  0
   14.6503   -0.7517   11.6896 H   0  0  0  0  0  0  0  0  0  0  0  0
   16.2637   -1.2359   11.2716 H   0  0  0  0  0  0  0  0  0  0  0  0
   15.4750   -2.6026   13.1175 H   0  0  0  0  0  0  0  0  0  0  0  0
   15.0500   -1.2036   14.0764 H   0  0  0  0  0  0  0  0  0  0  0  0
   17.1566   -2.0330   14.9101 H   0  0  0  0  0  0  0  0  0  0  0  0
   17.8224   -2.1675   13.2881 H   0  0  0  0  0  0  0  0  0  0  0  0
   17.1643    0.4286   14.7688 H   0  0  0  0  0  0  0  0  0  0  0  0
   19.2206   -0.8207   15.4566 H   0  0  0  0  0  0  0  0  0  0  0  0
   19.5594    0.7778   14.8101 H   0  0  0  0  0  0  0  0  0  0  0  0
   19.8448   -0.6633   13.8070 H   0  0  0  0  0  0  0  0  0  0  0  0
   18.1317   -0.0288   11.9143 H   0  0  0  0  0  0  0  0  0  0  0  0
   18.0055    2.5057   11.6831 H   0  0  0  0  0  0  0  0  0  0  0  0
   18.0820    2.5721   13.4703 H   0  0  0  0  0  0  0  0  0  0  0  0
   20.0923    2.7084   12.4531 H   0  0  0  0  0  0  0  0  0  0  0  0
   13.5978   -3.1917   18.1247 H   0  0  0  0  0  0  0  0  0  0  0  0
   15.5102   -3.4863   19.5980 H   0  0  0  0  0  0  0  0  0  0  0  0
   17.4153   -1.8934   19.5366 H   0  0  0  0  0  0  0  0  0  0  0  0
   17.3793   -0.0074   17.9211 H   0  0  0  0  0  0  0  0  0  0  0  0
   15.5028    0.2771   16.3957 H   0  0  0  0  0  0  0  0  0  0  0  0
   10.4643   -2.1522   15.1705 H   0  0  0  0  0  0  0  0  0  0  0  0
   11.6750   -2.1940   13.8274 H   0  0  0  0  0  0  0  0  0  0  0  0
  1  2  1  0
  2  3  2  0
  3  4  1  0
  4  5  1  0
  5  6  1  0
  6  7  2  0
  7  8  1  0
  7  9  2  0
  7 10  1  0
 10 11  1  0
 11 12  1  0
 12 13  1  0
 13 14  1  0
 14 15  1  0
 14 16  1  0
 16 17  1  0
 17 18  1  0
  3 19  1  0
 19 20  1  0
 20 21  2  0
 21 22  1  0
 22 23  2  0
 23 24  1  0
 24 25  2  0
 19 26  1  0
 26 27  2  0
 26 28  1  0
 28  2  1  0
 16 10  1  0
 25 20  1  0
  1 29  1  0
  1 30  1  0
  1 31  1  0
  4 32  1  0
  4 33  1  0
  5 34  1  0
  5 35  1  0
  8 36  1  0
  8 37  1  0
  8 38  1  0
 11 39  1  0
 11 40  1  0
 12 41  1  0
 12 42  1  0
 13 43  1  0
 13 44  1  0
 14 45  1  0
 15 46  1  0
 15 47  1  0
 15 48  1  0
 16 49  1  0
 17 50  1  0
 17 51  1  0
 18 52  1  0
 21 53  1  0
 22 54  1  0
 23 55  1  0
 24 56  1  0
 25 57  1  0
 28 58  1  0
 28 59  1  0
M  END
>  <Energy>  (833) 
0.68362130603042415

>  <compound_id>  (833) 
1117

>  <target_id>  (833) 
1

>  <reference_id>  (833) 
81

>  <inspiration_ids>  (833) 
[81, 111]

>  <energy_score>  (833) 
-66.56823073058993

>  <distance_score>  (833) 
2.182598170921845

>  <path>  (833) 
/opt/xchem-fragalysis-2/maxwin/BulkDock/SCRATCH/505733/C1117-P81/C1117-P81.minimised.mol

>  <scratch_subdir>  (833) 
/opt/xchem-fragalysis-2/maxwin/BulkDock/SCRATCH/505733/C1117-P81

>  <fragmenstein_runtime>  (833) 
42.31832218170166

>  <fragmenstein_outcome>  (833) 
too moved

>  <fragmenstein_mode>  (833) 
expansion

>  <fragmenstein_error>  (833) 


$$$$
C1117-P111
     RDKit          3D

 59 61  0  0  0  0  0  0  0  0999 V2000
   10.3671    0.4279   14.3231 C   0  0  0  0  0  0  0  0  0  0  0  0
   11.4277   -0.3197   15.0456 C   0  0  0  0  0  0  0  0  0  0  0  0
   12.4528    0.1682   15.7669 C   0  0  0  0  0  0  0  0  0  0  0  0
   12.7494    1.6443   15.9186 C   0  0  0  0  0  0  0  0  0  0  0  0
   13.2234    2.3467   14.6172 C   0  0  0  0  0  0  0  0  0  0  0  0
   14.4582    1.7630   14.0905 N   0  0  0  0  0  0  0  0  0  0  0  0
   14.8914    1.7469   12.6167 S   0  0  0  0  0  0  0  0  0  0  0  0
   13.6142    2.4384   11.5899 C   0  0  0  0  0  0  0  0  0  0  0  0
   16.1470    2.2765   12.1352 O   0  0  0  0  0  0  0  0  0  0  0  0
   14.9209    0.0777   12.1733 N   0  0  0  0  0  0  0  0  0  0  0  0
   14.6669   -0.9410   13.1932 C   0  0  0  0  0  0  0  0  0  0  0  0
   15.8998   -1.1853   14.0476 C   0  0  0  0  0  0  0  0  0  0  0  0
   17.0544   -1.6723   13.1745 C   0  0  0  0  0  0  0  0  0  0  0  0
   17.2796   -0.7544   11.9578 C   0  0  0  0  0  0  0  0  0  0  0  0
   18.3375   -1.3828   11.0464 C   0  0  0  0  0  0  0  0  0  0  0  0
   15.9313   -0.4768   11.2288 C   0  0  0  0  0  0  0  0  0  0  0  0
   16.0916    0.3429    9.9275 C   0  0  0  0  0  0  0  0  0  0  0  0
   16.3672   -0.5251    8.8215 O   0  0  0  0  0  0  0  0  0  0  0  0
   13.1561   -0.8856   16.3583 N   0  0  0  0  0  0  0  0  0  0  0  0
   14.3105   -0.8614   17.2183 C   0  0  0  0  0  0  0  0  0  0  0  0
   14.5516   -1.9058   18.1293 C   0  0  0  0  0  0  0  0  0  0  0  0
   15.6514   -1.8947   18.9963 C   0  0  0  0  0  0  0  0  0  0  0  0
   16.5570   -0.8439   18.9584 C   0  0  0  0  0  0  0  0  0  0  0  0
   16.3652    0.1843   18.0457 C   0  0  0  0  0  0  0  0  0  0  0  0
   15.2573    0.1696   17.1876 C   0  0  0  0  0  0  0  0  0  0  0  0
   12.5989   -2.1225   15.9335 C   0  0  0  0  0  0  0  0  0  0  0  0
   12.9477   -3.2666   16.1909 O   0  0  0  0  0  0  0  0  0  0  0  0
   11.4433   -1.8165   15.0066 C   0  0  0  0  0  0  0  0  0  0  0  0
   10.3116    1.4759   14.6293 H   0  0  0  0  0  0  0  0  0  0  0  0
   10.5523    0.4062   13.2464 H   0  0  0  0  0  0  0  0  0  0  0  0
    9.3870   -0.0098   14.5341 H   0  0  0  0  0  0  0  0  0  0  0  0
   11.8192    2.1402   16.2311 H   0  0  0  0  0  0  0  0  0  0  0  0
   13.4248    1.8605   16.7472 H   0  0  0  0  0  0  0  0  0  0  0  0
   13.3906    3.4100   14.8226 H   0  0  0  0  0  0  0  0  0  0  0  0
   12.4167    2.2888   13.8829 H   0  0  0  0  0  0  0  0  0  0  0  0
   13.4323    3.4672   11.9087 H   0  0  0  0  0  0  0  0  0  0  0  0
   13.9487    2.4470   10.5523 H   0  0  0  0  0  0  0  0  0  0  0  0
   12.7057    1.8400   11.6817 H   0  0  0  0  0  0  0  0  0  0  0  0
   13.8151   -0.6547   13.7918 H   0  0  0  0  0  0  0  0  0  0  0  0
   14.3528   -1.8803   12.7176 H   0  0  0  0  0  0  0  0  0  0  0  0
   15.6845   -1.9438   14.8072 H   0  0  0  0  0  0  0  0  0  0  0  0
   16.2130   -0.2757   14.5668 H   0  0  0  0  0  0  0  0  0  0  0  0
   17.9684   -1.7347   13.7769 H   0  0  0  0  0  0  0  0  0  0  0  0
   16.8329   -2.6905   12.8304 H   0  0  0  0  0  0  0  0  0  0  0  0
   17.6897    0.1946   12.3260 H   0  0  0  0  0  0  0  0  0  0  0  0
   19.2384   -1.6362   11.6159 H   0  0  0  0  0  0  0  0  0  0  0  0
   18.6422   -0.6926   10.2541 H   0  0  0  0  0  0  0  0  0  0  0  0
   17.9648   -2.3009   10.5796 H   0  0  0  0  0  0  0  0  0  0  0  0
   15.5462   -1.4535   10.8968 H   0  0  0  0  0  0  0  0  0  0  0  0
   15.1629    0.8539    9.6668 H   0  0  0  0  0  0  0  0  0  0  0  0
   16.8940    1.0830   10.0042 H   0  0  0  0  0  0  0  0  0  0  0  0
   16.7632    0.0327    8.1276 H   0  0  0  0  0  0  0  0  0  0  0  0
   13.8689   -2.7471   18.2209 H   0  0  0  0  0  0  0  0  0  0  0  0
   15.7915   -2.7110   19.7006 H   0  0  0  0  0  0  0  0  0  0  0  0
   17.4153   -0.8351   19.6243 H   0  0  0  0  0  0  0  0  0  0  0  0
   17.0878    0.9940   17.9778 H   0  0  0  0  0  0  0  0  0  0  0  0
   15.2198    0.9526   16.4396 H   0  0  0  0  0  0  0  0  0  0  0  0
   10.5218   -2.2433   15.4053 H   0  0  0  0  0  0  0  0  0  0  0  0
   11.6614   -2.1965   14.0055 H   0  0  0  0  0  0  0  0  0  0  0  0
  1  2  1  0
  2  3  2  0
  3  4  1  0
  4  5  1  0
  5  6  1  0
  6  7  2  0
  7  8  1  0
  7  9  2  0
  7 10  1  0
 10 11  1  0
 11 12  1  0
 12 13  1  0
 13 14  1  0
 14 15  1  0
 14 16  1  0
 16 17  1  0
 17 18  1  0
  3 19  1  0
 19 20  1  0
 20 21  2  0
 21 22  1  0
 22 23  2  0
 23 24  1  0
 24 25  2  0
 19 26  1  0
 26 27  2  0
 26 28  1  0
 28  2  1  0
 16 10  1  0
 25 20  1  0
  1 29  1  0
  1 30  1  0
  1 31  1  0
  4 32  1  0
  4 33  1  0
  5 34  1  0
  5 35  1  0
  8 36  1  0
  8 37  1  0
  8 38  1  0
 11 39  1  0
 11 40  1  0
 12 41  1  0
 12 42  1  0
 13 43  1  0
 13 44  1  0
 14 45  1  0
 15 46  1  0
 15 47  1  0
 15 48  1  0
 16 49  1  0
 17 50  1  0
 17 51  1  0
 18 52  1  0
 21 53  1  0
 22 54  1  0
 23 55  1  0
 24 56  1  0
 25 57  1  0
 28 58  1  0
 28 59  1  0
M  END
>  <Energy>  (834) 
14.556510020656763

>  <compound_id>  (834) 
1117

>  <target_id>  (834) 
1

>  <reference_id>  (834) 
111

>  <inspiration_ids>  (834) 
[81, 111]

>  <energy_score>  (834) 
-51.17958532950209

>  <distance_score>  (834) 
1.6003482045741033

>  <path>  (834) 
/opt/xchem-fragalysis-2/maxwin/BulkDock/SCRATCH/505733/C1117-P111/C1117-P111.minimised.mol

>  <scratch_subdir>  (834) 
/opt/xchem-fragalysis-2/maxwin/BulkDock/SCRATCH/505733/C1117-P111

>  <fragmenstein_runtime>  (834) 
41.008668422698975

>  <fragmenstein_outcome>  (834) 
too moved

>  <fragmenstein_mode>  (834) 
expansion

>  <fragmenstein_error>  (834) 


$$$$
C1119-P81
     RDKit          3D

 55 57  0  0  0  0  0  0  0  0999 V2000
   15.2561    1.3843   17.2528 C   0  0  0  0  0  0  0  0  0  0  0  0
   14.3987    0.2664   16.7936 C   0  0  0  0  0  0  0  0  0  0  0  0
   13.4084    0.3723   15.9311 N   0  0  0  0  0  0  0  0  0  0  0  0
   12.8655   -0.8795   15.8317 C   0  0  0  0  0  0  0  0  0  0  0  0
   11.7935   -1.3179   15.0460 C   0  0  0  0  0  0  0  0  0  0  0  0
   11.3917   -2.6479   15.1595 C   0  0  0  0  0  0  0  0  0  0  0  0
   12.0379   -3.5140   16.0405 C   0  0  0  0  0  0  0  0  0  0  0  0
   13.1276   -3.1054   16.8099 C   0  0  0  0  0  0  0  0  0  0  0  0
   13.5226   -1.7749   16.6699 C   0  0  0  0  0  0  0  0  0  0  0  0
   14.5238   -1.0279   17.2425 N   0  0  0  0  0  0  0  0  0  0  0  0
   15.4549   -1.5029   18.2444 C   0  0  0  0  0  0  0  0  0  0  0  0
   16.7213   -2.0977   17.6780 C   0  0  0  0  0  0  0  0  0  0  0  0
   17.6805   -2.3874   18.7900 C   0  0  0  0  0  0  0  0  0  0  0  0
   18.7601   -1.4551   18.8958 N   0  0  0  0  0  0  0  0  0  0  0  0
   17.3737   -3.3092   19.4861 O   0  0  0  0  0  0  0  0  0  0  0  0
   17.1992   -2.6471   16.0973 S   0  0  0  0  0  0  0  0  0  0  0  0
   16.7366   -4.2977   15.8352 C   0  0  0  0  0  0  0  0  0  0  0  0
   18.8274   -2.8190   16.2667 O   0  0  0  0  0  0  0  0  0  0  0  0
   16.9502   -1.5565   14.8210 N   0  0  0  0  0  0  0  0  0  0  0  0
   15.9596   -1.8956   13.7937 C   0  0  0  0  0  0  0  0  0  0  0  0
   15.4264   -0.6731   13.0446 C   0  0  0  0  0  0  0  0  0  0  0  0
   16.5049    0.3433   12.6874 C   0  0  0  0  0  0  0  0  0  0  0  0
   17.8909   -0.2809   12.8092 C   0  0  0  0  0  0  0  0  0  0  0  0
   18.9681    0.6871   12.3192 C   0  0  0  0  0  0  0  0  0  0  0  0
   18.1235   -0.8260   14.2498 C   0  0  0  0  0  0  0  0  0  0  0  0
   18.5927    0.2657   15.2543 C   0  0  0  0  0  0  0  0  0  0  0  0
   18.9980   -0.2907   16.5189 O   0  0  0  0  0  0  0  0  0  0  0  0
   15.1850    2.2287   16.5601 H   0  0  0  0  0  0  0  0  0  0  0  0
   16.3069    1.0881   17.3109 H   0  0  0  0  0  0  0  0  0  0  0  0
   14.9350    1.7276   18.2410 H   0  0  0  0  0  0  0  0  0  0  0  0
   11.2837   -0.6370   14.3733 H   0  0  0  0  0  0  0  0  0  0  0  0
   10.5546   -3.0039   14.5662 H   0  0  0  0  0  0  0  0  0  0  0  0
   11.6815   -4.5355   16.1438 H   0  0  0  0  0  0  0  0  0  0  0  0
   13.6145   -3.7915   17.4942 H   0  0  0  0  0  0  0  0  0  0  0  0
   14.9413   -2.2590   18.8483 H   0  0  0  0  0  0  0  0  0  0  0  0
   15.7015   -0.6701   18.9109 H   0  0  0  0  0  0  0  0  0  0  0  0
   18.6417   -0.7114   18.1667 H   0  0  0  0  0  0  0  0  0  0  0  0
   18.7798   -0.8570   18.0365 H   0  0  0  0  0  0  0  0  0  0  0  0
   17.1725   -4.6444   14.8968 H   0  0  0  0  0  0  0  0  0  0  0  0
   17.1039   -4.9077   16.6627 H   0  0  0  0  0  0  0  0  0  0  0  0
   15.6499   -4.3593   15.7889 H   0  0  0  0  0  0  0  0  0  0  0  0
   15.1025   -2.4000   14.2500 H   0  0  0  0  0  0  0  0  0  0  0  0
   16.3907   -2.6180   13.0892 H   0  0  0  0  0  0  0  0  0  0  0  0
   14.6546   -0.1676   13.6314 H   0  0  0  0  0  0  0  0  0  0  0  0
   14.9309   -1.0180   12.1284 H   0  0  0  0  0  0  0  0  0  0  0  0
   16.4240    1.2100   13.3556 H   0  0  0  0  0  0  0  0  0  0  0  0
   16.3316    0.7195   11.6721 H   0  0  0  0  0  0  0  0  0  0  0  0
   17.9291   -1.1411   12.1244 H   0  0  0  0  0  0  0  0  0  0  0  0
   19.9675    0.2623   12.4583 H   0  0  0  0  0  0  0  0  0  0  0  0
   18.8397    0.8891   11.2500 H   0  0  0  0  0  0  0  0  0  0  0  0
   18.9204    1.6497   12.8383 H   0  0  0  0  0  0  0  0  0  0  0  0
   18.9411   -1.5528   14.1504 H   0  0  0  0  0  0  0  0  0  0  0  0
   17.8028    0.9978   15.4440 H   0  0  0  0  0  0  0  0  0  0  0  0
   19.4670    0.8007   14.8751 H   0  0  0  0  0  0  0  0  0  0  0  0
   19.4631   -1.1322   16.2619 H   0  0  0  0  0  0  0  0  0  0  0  0
  1  2  1  0
  2  3  2  0
  3  4  1  0
  4  5  2  0
  5  6  1  0
  6  7  2  0
  7  8  1  0
  8  9  2  0
  9 10  1  0
 10 11  1  0
 11 12  1  0
 12 13  1  0
 13 14  1  0
 13 15  2  0
 12 16  2  0
 16 17  1  0
 16 18  2  0
 16 19  1  0
 19 20  1  0
 20 21  1  0
 21 22  1  0
 22 23  1  0
 23 24  1  0
 23 25  1  0
 25 26  1  0
 26 27  1  0
 10  2  1  0
 25 19  1  0
  9  4  1  0
  1 28  1  0
  1 29  1  0
  1 30  1  0
  5 31  1  0
  6 32  1  0
  7 33  1  0
  8 34  1  0
 11 35  1  0
 11 36  1  0
 14 37  1  0
 14 38  1  0
 17 39  1  0
 17 40  1  0
 17 41  1  0
 20 42  1  0
 20 43  1  0
 21 44  1  0
 21 45  1  0
 22 46  1  0
 22 47  1  0
 23 48  1  0
 24 49  1  0
 24 50  1  0
 24 51  1  0
 25 52  1  0
 26 53  1  0
 26 54  1  0
 27 55  1  0
M  END
>  <Energy>  (835) 
130.27880300074449

>  <compound_id>  (835) 
1119

>  <target_id>  (835) 
1

>  <reference_id>  (835) 
81

>  <inspiration_ids>  (835) 
[81, 114]

>  <energy_score>  (835) 
74.01613329172153

>  <distance_score>  (835) 
2.162107237737162

>  <path>  (835) 
/opt/xchem-fragalysis-2/maxwin/BulkDock/SCRATCH/505733/C1119-P81/C1119-P81.minimised.mol

>  <scratch_subdir>  (835) 
/opt/xchem-fragalysis-2/maxwin/BulkDock/SCRATCH/505733/C1119-P81

>  <fragmenstein_runtime>  (835) 
6.829581260681152

>  <fragmenstein_outcome>  (835) 
too moved

>  <fragmenstein_mode>  (835) 
expansion

>  <fragmenstein_error>  (835) 


$$$$
C1119-P114
     RDKit          3D

 55 57  0  0  0  0  0  0  0  0999 V2000
   15.7368   -0.2550   18.9071 C   0  0  0  0  0  0  0  0  0  0  0  0
   14.7570   -0.6089   17.8521 C   0  0  0  0  0  0  0  0  0  0  0  0
   14.1245    0.2597   17.0921 N   0  0  0  0  0  0  0  0  0  0  0  0
   13.2432   -0.4690   16.3484 C   0  0  0  0  0  0  0  0  0  0  0  0
   12.3073   -0.0153   15.4160 C   0  0  0  0  0  0  0  0  0  0  0  0
   11.4723   -0.9502   14.8108 C   0  0  0  0  0  0  0  0  0  0  0  0
   11.5752   -2.3092   15.1127 C   0  0  0  0  0  0  0  0  0  0  0  0
   12.5122   -2.7822   16.0367 C   0  0  0  0  0  0  0  0  0  0  0  0
   13.3379   -1.8258   16.6382 C   0  0  0  0  0  0  0  0  0  0  0  0
   14.3400   -1.8927   17.5805 N   0  0  0  0  0  0  0  0  0  0  0  0
   14.7019   -3.0773   18.3269 C   0  0  0  0  0  0  0  0  0  0  0  0
   15.9474   -3.7872   17.8561 C   0  0  0  0  0  0  0  0  0  0  0  0
   16.1956   -5.0002   18.7164 C   0  0  0  0  0  0  0  0  0  0  0  0
   17.4846   -5.0420   19.3379 N   0  0  0  0  0  0  0  0  0  0  0  0
   15.2563   -5.7321   18.8177 O   0  0  0  0  0  0  0  0  0  0  0  0
   17.1291   -3.5779   16.6004 S   0  0  0  0  0  0  0  0  0  0  0  0
   17.4904   -5.0738   15.7887 C   0  0  0  0  0  0  0  0  0  0  0  0
   18.4572   -3.4315   17.5807 O   0  0  0  0  0  0  0  0  0  0  0  0
   17.0905   -2.2280   15.5987 N   0  0  0  0  0  0  0  0  0  0  0  0
   16.1645   -2.2215   14.4587 C   0  0  0  0  0  0  0  0  0  0  0  0
   15.9812   -0.8292   13.8645 C   0  0  0  0  0  0  0  0  0  0  0  0
   17.2901   -0.2347   13.3581 C   0  0  0  0  0  0  0  0  0  0  0  0
   18.4992   -1.0412   13.8340 C   0  0  0  0  0  0  0  0  0  0  0  0
   19.7994   -0.2917   13.5365 C   0  0  0  0  0  0  0  0  0  0  0  0
   18.3531   -1.4814   15.3154 C   0  0  0  0  0  0  0  0  0  0  0  0
   18.4920   -0.3120   16.3232 C   0  0  0  0  0  0  0  0  0  0  0  0
   18.6289   -0.7624   17.6730 O   0  0  0  0  0  0  0  0  0  0  0  0
   16.4755   -1.0439   19.0658 H   0  0  0  0  0  0  0  0  0  0  0  0
   15.2163   -0.0792   19.8539 H   0  0  0  0  0  0  0  0  0  0  0  0
   16.2701    0.6621   18.6387 H   0  0  0  0  0  0  0  0  0  0  0  0
   12.2335    1.0422   15.1910 H   0  0  0  0  0  0  0  0  0  0  0  0
   10.7332   -0.6030   14.0970 H   0  0  0  0  0  0  0  0  0  0  0  0
   10.9113   -3.0147   14.6157 H   0  0  0  0  0  0  0  0  0  0  0  0
   12.5786   -3.8396   16.2718 H   0  0  0  0  0  0  0  0  0  0  0  0
   13.8510   -3.7657   18.2880 H   0  0  0  0  0  0  0  0  0  0  0  0
   14.8277   -2.7900   19.3770 H   0  0  0  0  0  0  0  0  0  0  0  0
   18.0921   -4.2967   18.9162 H   0  0  0  0  0  0  0  0  0  0  0  0
   18.0080   -4.1652   19.0983 H   0  0  0  0  0  0  0  0  0  0  0  0
   18.2911   -4.8983   15.0676 H   0  0  0  0  0  0  0  0  0  0  0  0
   17.8064   -5.8260   16.5123 H   0  0  0  0  0  0  0  0  0  0  0  0
   16.5924   -5.4109   15.2704 H   0  0  0  0  0  0  0  0  0  0  0  0
   15.1895   -2.5929   14.7792 H   0  0  0  0  0  0  0  0  0  0  0  0
   16.5103   -2.9216   13.6884 H   0  0  0  0  0  0  0  0  0  0  0  0
   15.5619   -0.1582   14.6221 H   0  0  0  0  0  0  0  0  0  0  0  0
   15.2495   -0.8649   13.0489 H   0  0  0  0  0  0  0  0  0  0  0  0
   17.3602    0.8099   13.6859 H   0  0  0  0  0  0  0  0  0  0  0  0
   17.2821   -0.2095   12.2613 H   0  0  0  0  0  0  0  0  0  0  0  0
   18.5442   -1.9605   13.2312 H   0  0  0  0  0  0  0  0  0  0  0  0
   20.6643   -0.8439   13.9181 H   0  0  0  0  0  0  0  0  0  0  0  0
   19.9302   -0.1733   12.4551 H   0  0  0  0  0  0  0  0  0  0  0  0
   19.8074    0.7107   13.9755 H   0  0  0  0  0  0  0  0  0  0  0  0
   19.1893   -2.1701   15.4986 H   0  0  0  0  0  0  0  0  0  0  0  0
   17.6291    0.3600   16.2771 H   0  0  0  0  0  0  0  0  0  0  0  0
   19.3861    0.2803   16.1145 H   0  0  0  0  0  0  0  0  0  0  0  0
   18.8317   -1.7195   17.6430 H   0  0  0  0  0  0  0  0  0  0  0  0
  1  2  1  0
  2  3  2  0
  3  4  1  0
  4  5  2  0
  5  6  1  0
  6  7  2  0
  7  8  1  0
  8  9  2  0
  9 10  1  0
 10 11  1  0
 11 12  1  0
 12 13  1  0
 13 14  1  0
 13 15  2  0
 12 16  2  0
 16 17  1  0
 16 18  2  0
 16 19  1  0
 19 20  1  0
 20 21  1  0
 21 22  1  0
 22 23  1  0
 23 24  1  0
 23 25  1  0
 25 26  1  0
 26 27  1  0
 10  2  1  0
 25 19  1  0
  9  4  1  0
  1 28  1  0
  1 29  1  0
  1 30  1  0
  5 31  1  0
  6 32  1  0
  7 33  1  0
  8 34  1  0
 11 35  1  0
 11 36  1  0
 14 37  1  0
 14 38  1  0
 17 39  1  0
 17 40  1  0
 17 41  1  0
 20 42  1  0
 20 43  1  0
 21 44  1  0
 21 45  1  0
 22 46  1  0
 22 47  1  0
 23 48  1  0
 24 49  1  0
 24 50  1  0
 24 51  1  0
 25 52  1  0
 26 53  1  0
 26 54  1  0
 27 55  1  0
M  END
>  <Energy>  (836) 
132.04561433074593

>  <compound_id>  (836) 
1119

>  <target_id>  (836) 
1

>  <reference_id>  (836) 
114

>  <inspiration_ids>  (836) 
[81, 114]

>  <energy_score>  (836) 
75.78294462172262

>  <distance_score>  (836) 
2.211358272805703

>  <path>  (836) 
/opt/xchem-fragalysis-2/maxwin/BulkDock/SCRATCH/505733/C1119-P114/C1119-P114.minimised.mol

>  <scratch_subdir>  (836) 
/opt/xchem-fragalysis-2/maxwin/BulkDock/SCRATCH/505733/C1119-P114

>  <fragmenstein_runtime>  (836) 
6.367675065994263

>  <fragmenstein_outcome>  (836) 
too moved

>  <fragmenstein_mode>  (836) 
expansion

>  <fragmenstein_error>  (836) 


$$$$
C1120-P81
     RDKit          3D

 49 50  0  0  0  0  0  0  0  0999 V2000
   14.0939   -2.8456   19.0999 C   0  0  0  0  0  0  0  0  0  0  0  0
   14.2296   -3.3936   20.5389 C   0  0  0  0  0  0  0  0  0  0  0  0
   15.1203   -4.6475   20.5503 C   0  0  0  0  0  0  0  0  0  0  0  0
   16.5661   -4.3484   20.9495 C   0  0  0  0  0  0  0  0  0  0  0  0
   16.9791   -2.9022   20.6817 C   0  0  0  0  0  0  0  0  0  0  0  0
   16.1211   -1.8928   21.3047 N   0  0  0  0  0  0  0  0  0  0  0  0
   16.4539   -0.2259   21.0658 S   0  0  0  0  0  0  0  0  0  0  0  0
   15.8943    0.6795   22.4831 C   0  0  0  0  0  0  0  0  0  0  0  0
   17.8993   -0.1636   21.0422 O   0  0  0  0  0  0  0  0  0  0  0  0
   15.5749    0.1457   19.8805 N   0  0  0  0  0  0  0  0  0  0  0  0
   16.1417    0.0283   18.5154 C   0  0  0  0  0  0  0  0  0  0  0  0
   14.9879    0.2758   17.0899 S   0  0  0  0  0  0  0  0  0  0  0  0
   13.6743    0.6564   17.5725 O   0  0  0  0  0  0  0  0  0  0  0  0
   15.6583    1.0727   16.0777 O   0  0  0  0  0  0  0  0  0  0  0  0
   14.8769   -1.2769   16.3809 N   0  0  0  0  0  0  0  0  0  0  0  0
   13.5775   -1.6443   15.8725 C   0  0  0  0  0  0  0  0  0  0  0  0
   12.8125   -0.7568   15.1113 C   0  0  0  0  0  0  0  0  0  0  0  0
   11.5464   -1.1305   14.6676 C   0  0  0  0  0  0  0  0  0  0  0  0
   11.0541   -2.3997   14.9564 C   0  0  0  0  0  0  0  0  0  0  0  0
   11.8471   -3.3187   15.6263 C   0  0  0  0  0  0  0  0  0  0  0  0
   13.1212   -2.9551   16.0294 C   0  0  0  0  0  0  0  0  0  0  0  0
   13.8937   -3.8972   16.5922 F   0  0  0  0  0  0  0  0  0  0  0  0
   14.7340   -2.3308   21.5460 C   0  0  0  0  0  0  0  0  0  0  0  0
   14.5597   -2.8105   23.0115 C   0  0  0  0  0  0  0  0  0  0  0  0
   15.3170   -2.0086   23.9192 O   0  0  0  0  0  0  0  0  0  0  0  0
   13.2122   -3.3037   18.6508 H   0  0  0  0  0  0  0  0  0  0  0  0
   13.9952   -1.7667   19.0874 H   0  0  0  0  0  0  0  0  0  0  0  0
   14.9739   -3.0976   18.5023 H   0  0  0  0  0  0  0  0  0  0  0  0
   13.2212   -3.7002   20.8475 H   0  0  0  0  0  0  0  0  0  0  0  0
   15.0977   -5.1442   19.5723 H   0  0  0  0  0  0  0  0  0  0  0  0
   14.7123   -5.3818   21.2567 H   0  0  0  0  0  0  0  0  0  0  0  0
   17.2382   -5.0308   20.4155 H   0  0  0  0  0  0  0  0  0  0  0  0
   16.7061   -4.5696   22.0148 H   0  0  0  0  0  0  0  0  0  0  0  0
   18.0049   -2.7746   21.0466 H   0  0  0  0  0  0  0  0  0  0  0  0
   17.0151   -2.7484   19.5987 H   0  0  0  0  0  0  0  0  0  0  0  0
   16.1009    1.7387   22.3119 H   0  0  0  0  0  0  0  0  0  0  0  0
   16.4508    0.3427   23.3593 H   0  0  0  0  0  0  0  0  0  0  0  0
   14.8228    0.5275   22.6206 H   0  0  0  0  0  0  0  0  0  0  0  0
   16.6030   -0.9490   18.3516 H   0  0  0  0  0  0  0  0  0  0  0  0
   16.9221    0.7867   18.3824 H   0  0  0  0  0  0  0  0  0  0  0  0
   15.5892   -1.3616   15.6517 H   0  0  0  0  0  0  0  0  0  0  0  0
   13.1662    0.2452   14.8818 H   0  0  0  0  0  0  0  0  0  0  0  0
   10.9335   -0.4316   14.1000 H   0  0  0  0  0  0  0  0  0  0  0  0
   10.0545   -2.6758   14.6358 H   0  0  0  0  0  0  0  0  0  0  0  0
   11.4838   -4.3164   15.8375 H   0  0  0  0  0  0  0  0  0  0  0  0
   14.0927   -1.4499   21.4485 H   0  0  0  0  0  0  0  0  0  0  0  0
   14.8788   -3.8456   23.1576 H   0  0  0  0  0  0  0  0  0  0  0  0
   13.5093   -2.7526   23.3116 H   0  0  0  0  0  0  0  0  0  0  0  0
   16.2355   -2.0612   23.5971 H   0  0  0  0  0  0  0  0  0  0  0  0
  1  2  1  0
  2  3  1  0
  3  4  1  0
  4  5  1  0
  5  6  1  0
  6  7  1  0
  7  8  1  0
  7  9  2  0
  7 10  2  0
 10 11  1  0
 11 12  1  0
 12 13  2  0
 12 14  2  0
 12 15  1  0
 15 16  1  0
 16 17  2  0
 17 18  1  0
 18 19  2  0
 19 20  1  0
 20 21  2  0
 21 22  1  0
  6 23  1  0
 23 24  1  0
 24 25  1  0
 23  2  1  0
 21 16  1  0
  1 26  1  0
  1 27  1  0
  1 28  1  0
  2 29  1  0
  3 30  1  0
  3 31  1  0
  4 32  1  0
  4 33  1  0
  5 34  1  0
  5 35  1  0
  8 36  1  0
  8 37  1  0
  8 38  1  0
 11 39  1  0
 11 40  1  0
 15 41  1  0
 17 42  1  0
 18 43  1  0
 19 44  1  0
 20 45  1  0
 23 46  1  0
 24 47  1  0
 24 48  1  0
 25 49  1  0
M  END
>  <Energy>  (837) 
20.826280781511116

>  <compound_id>  (837) 
1120

>  <target_id>  (837) 
1

>  <reference_id>  (837) 
81

>  <inspiration_ids>  (837) 
[81, 117]

>  <energy_score>  (837) 
-76.23932622161806

>  <distance_score>  (837) 
1.733492832442239

>  <path>  (837) 
/opt/xchem-fragalysis-2/maxwin/BulkDock/SCRATCH/505733/C1120-P81/C1120-P81.minimised.mol

>  <scratch_subdir>  (837) 
/opt/xchem-fragalysis-2/maxwin/BulkDock/SCRATCH/505733/C1120-P81

>  <fragmenstein_runtime>  (837) 
11.724717378616333

>  <fragmenstein_outcome>  (837) 
too moved

>  <fragmenstein_mode>  (837) 
expansion

>  <fragmenstein_error>  (837) 


$$$$
C1120-P117
     RDKit          3D

 49 50  0  0  0  0  0  0  0  0999 V2000
   13.8723   -3.4457   18.9857 C   0  0  0  0  0  0  0  0  0  0  0  0
   14.6777   -3.6894   20.2739 C   0  0  0  0  0  0  0  0  0  0  0  0
   16.0508   -4.2740   19.9006 C   0  0  0  0  0  0  0  0  0  0  0  0
   17.0781   -3.9505   20.9669 C   0  0  0  0  0  0  0  0  0  0  0  0
   17.2193   -2.4357   21.1404 C   0  0  0  0  0  0  0  0  0  0  0  0
   16.0034   -1.6541   20.8421 N   0  0  0  0  0  0  0  0  0  0  0  0
   16.1269    0.0499   21.0310 S   0  0  0  0  0  0  0  0  0  0  0  0
   14.5695    0.8363   21.2826 C   0  0  0  0  0  0  0  0  0  0  0  0
   16.8550    0.1890   22.2756 O   0  0  0  0  0  0  0  0  0  0  0  0
   16.7199    0.5088   19.6889 N   0  0  0  0  0  0  0  0  0  0  0  0
   16.4826   -0.1645   18.3866 C   0  0  0  0  0  0  0  0  0  0  0  0
   14.9371    0.1443   17.4444 S   0  0  0  0  0  0  0  0  0  0  0  0
   13.8017   -0.0647   18.3174 O   0  0  0  0  0  0  0  0  0  0  0  0
   15.0521    1.3755   16.6887 O   0  0  0  0  0  0  0  0  0  0  0  0
   14.9267   -1.1354   16.3047 N   0  0  0  0  0  0  0  0  0  0  0  0
   13.6174   -1.4734   15.8010 C   0  0  0  0  0  0  0  0  0  0  0  0
   12.7888   -0.5161   15.2230 C   0  0  0  0  0  0  0  0  0  0  0  0
   11.4944   -0.8675   14.8432 C   0  0  0  0  0  0  0  0  0  0  0  0
   11.0274   -2.1660   15.0508 C   0  0  0  0  0  0  0  0  0  0  0  0
   11.8639   -3.1352   15.5810 C   0  0  0  0  0  0  0  0  0  0  0  0
   13.1628   -2.7904   15.9094 C   0  0  0  0  0  0  0  0  0  0  0  0
   13.9911   -3.7485   16.3476 F   0  0  0  0  0  0  0  0  0  0  0  0
   14.7691   -2.3945   21.1385 C   0  0  0  0  0  0  0  0  0  0  0  0
   14.5536   -2.6807   22.6462 C   0  0  0  0  0  0  0  0  0  0  0  0
   14.0186   -1.5377   23.3057 O   0  0  0  0  0  0  0  0  0  0  0  0
   13.8583   -4.3702   18.4036 H   0  0  0  0  0  0  0  0  0  0  0  0
   14.3164   -2.6360   18.4196 H   0  0  0  0  0  0  0  0  0  0  0  0
   12.8455   -3.2178   19.2340 H   0  0  0  0  0  0  0  0  0  0  0  0
   14.1359   -4.4575   20.8414 H   0  0  0  0  0  0  0  0  0  0  0  0
   16.3957   -3.8718   18.9390 H   0  0  0  0  0  0  0  0  0  0  0  0
   15.9675   -5.3596   19.7705 H   0  0  0  0  0  0  0  0  0  0  0  0
   18.0489   -4.3822   20.6978 H   0  0  0  0  0  0  0  0  0  0  0  0
   16.7805   -4.4164   21.9136 H   0  0  0  0  0  0  0  0  0  0  0  0
   17.5692   -2.2431   22.1616 H   0  0  0  0  0  0  0  0  0  0  0  0
   18.0166   -2.0912   20.4703 H   0  0  0  0  0  0  0  0  0  0  0  0
   14.6753    1.8964   21.0397 H   0  0  0  0  0  0  0  0  0  0  0  0
   13.8141    0.3874   20.6527 H   0  0  0  0  0  0  0  0  0  0  0  0
   14.2833    0.7477   22.3308 H   0  0  0  0  0  0  0  0  0  0  0  0
   16.5769   -1.2489   18.4780 H   0  0  0  0  0  0  0  0  0  0  0  0
   17.2782    0.1580   17.7040 H   0  0  0  0  0  0  0  0  0  0  0  0
   15.4236   -1.9707   16.6217 H   0  0  0  0  0  0  0  0  0  0  0  0
   13.1301    0.5045   15.0698 H   0  0  0  0  0  0  0  0  0  0  0  0
   10.8392   -0.1307   14.3801 H   0  0  0  0  0  0  0  0  0  0  0  0
   10.0107   -2.4244   14.7684 H   0  0  0  0  0  0  0  0  0  0  0  0
   11.5143   -4.1487   15.7330 H   0  0  0  0  0  0  0  0  0  0  0  0
   13.9453   -1.7616   20.8125 H   0  0  0  0  0  0  0  0  0  0  0  0
   15.4758   -2.9609   23.1610 H   0  0  0  0  0  0  0  0  0  0  0  0
   13.8393   -3.4973   22.7962 H   0  0  0  0  0  0  0  0  0  0  0  0
   13.1099   -1.4244   22.9482 H   0  0  0  0  0  0  0  0  0  0  0  0
  1  2  1  0
  2  3  1  0
  3  4  1  0
  4  5  1  0
  5  6  1  0
  6  7  1  0
  7  8  1  0
  7  9  2  0
  7 10  2  0
 10 11  1  0
 11 12  1  0
 12 13  2  0
 12 14  2  0
 12 15  1  0
 15 16  1  0
 16 17  2  0
 17 18  1  0
 18 19  2  0
 19 20  1  0
 20 21  2  0
 21 22  1  0
  6 23  1  0
 23 24  1  0
 24 25  1  0
 23  2  1  0
 21 16  1  0
  1 26  1  0
  1 27  1  0
  1 28  1  0
  2 29  1  0
  3 30  1  0
  3 31  1  0
  4 32  1  0
  4 33  1  0
  5 34  1  0
  5 35  1  0
  8 36  1  0
  8 37  1  0
  8 38  1  0
 11 39  1  0
 11 40  1  0
 15 41  1  0
 17 42  1  0
 18 43  1  0
 19 44  1  0
 20 45  1  0
 23 46  1  0
 24 47  1  0
 24 48  1  0
 25 49  1  0
M  END
>  <Energy>  (838) 
24.071408218823585

>  <compound_id>  (838) 
1120

>  <target_id>  (838) 
1

>  <reference_id>  (838) 
117

>  <inspiration_ids>  (838) 
[81, 117]

>  <energy_score>  (838) 
-72.99419878430436

>  <distance_score>  (838) 
1.7658204809188511

>  <path>  (838) 
/opt/xchem-fragalysis-2/maxwin/BulkDock/SCRATCH/505733/C1120-P117/C1120-P117.minimised.mol

>  <scratch_subdir>  (838) 
/opt/xchem-fragalysis-2/maxwin/BulkDock/SCRATCH/505733/C1120-P117

>  <fragmenstein_runtime>  (838) 
11.39005422592163

>  <fragmenstein_outcome>  (838) 
too moved

>  <fragmenstein_mode>  (838) 
expansion

>  <fragmenstein_error>  (838) 


$$$$
C1123-P81
     RDKit          3D

 45 46  0  0  0  0  0  0  0  0999 V2000
   11.6985   -3.1819   15.3332 C   0  0  0  0  0  0  0  0  0  0  0  0
   12.8022   -2.2602   14.8149 C   0  0  0  0  0  0  0  0  0  0  0  0
   12.2819   -1.2534   13.7961 C   0  0  0  0  0  0  0  0  0  0  0  0
   11.4406   -0.1583   14.4271 C   0  0  0  0  0  0  0  0  0  0  0  0
   11.7620    0.0362   15.8991 C   0  0  0  0  0  0  0  0  0  0  0  0
   13.1599   -0.1852   16.2401 N   0  0  0  0  0  0  0  0  0  0  0  0
   14.2639    1.1334   16.3383 S   0  0  0  0  0  0  0  0  0  0  0  0
   14.3469    1.6188   18.0422 C   0  0  0  0  0  0  0  0  0  0  0  0
   15.5583    0.6199   15.9519 O   0  0  0  0  0  0  0  0  0  0  0  0
   13.5381    2.2584   15.5630 N   0  0  0  0  0  0  0  0  0  0  0  0
   14.0522    2.5330   14.2153 C   0  0  0  0  0  0  0  0  0  0  0  0
   13.0784    3.2278   13.3890 N   0  0  0  0  0  0  0  0  0  0  0  0
   11.9860    3.7264   13.8194 C   0  0  0  0  0  0  0  0  0  0  0  0
   11.5786    3.6880   15.1018 O   0  0  0  0  0  0  0  0  0  0  0  0
   11.0492    4.3659   12.9100 C   0  0  0  0  0  0  0  0  0  0  0  0
    9.7845    4.9492   13.2692 C   0  0  0  0  0  0  0  0  0  0  0  0
    9.1114    5.4792   12.1911 C   0  0  0  0  0  0  0  0  0  0  0  0
    9.9863    5.2854   10.7375 S   0  0  0  0  0  0  0  0  0  0  0  0
   11.2638    4.4886   11.5478 C   0  0  0  0  0  0  0  0  0  0  0  0
   13.6428   -1.5447   15.8947 C   0  0  0  0  0  0  0  0  0  0  0  0
   13.8724   -2.4390   17.1360 C   0  0  0  0  0  0  0  0  0  0  0  0
   14.6995   -1.7810   18.0932 O   0  0  0  0  0  0  0  0  0  0  0  0
   10.9633   -2.6522   15.9346 H   0  0  0  0  0  0  0  0  0  0  0  0
   11.1600   -3.6325   14.4936 H   0  0  0  0  0  0  0  0  0  0  0  0
   12.1019   -4.0025   15.9332 H   0  0  0  0  0  0  0  0  0  0  0  0
   13.5003   -2.8817   14.2624 H   0  0  0  0  0  0  0  0  0  0  0  0
   13.1388   -0.7895   13.2893 H   0  0  0  0  0  0  0  0  0  0  0  0
   11.7208   -1.7760   13.0238 H   0  0  0  0  0  0  0  0  0  0  0  0
   10.3764   -0.4031   14.3386 H   0  0  0  0  0  0  0  0  0  0  0  0
   11.5847    0.7694   13.8651 H   0  0  0  0  0  0  0  0  0  0  0  0
   11.1537   -0.6539   16.4814 H   0  0  0  0  0  0  0  0  0  0  0  0
   11.4071    1.0223   16.2171 H   0  0  0  0  0  0  0  0  0  0  0  0
   13.3675    1.9775   18.3612 H   0  0  0  0  0  0  0  0  0  0  0  0
   14.6564    0.7655   18.6457 H   0  0  0  0  0  0  0  0  0  0  0  0
   15.0853    2.4185   18.1332 H   0  0  0  0  0  0  0  0  0  0  0  0
   14.3043    1.5987   13.7006 H   0  0  0  0  0  0  0  0  0  0  0  0
   14.9656    3.1335   14.2836 H   0  0  0  0  0  0  0  0  0  0  0  0
   12.2760    3.1817   15.5883 H   0  0  0  0  0  0  0  0  0  0  0  0
    9.4012    4.9831   14.2828 H   0  0  0  0  0  0  0  0  0  0  0  0
    8.1524    5.9801   12.1876 H   0  0  0  0  0  0  0  0  0  0  0  0
   12.1260    4.1513   10.9865 H   0  0  0  0  0  0  0  0  0  0  0  0
   14.6312   -1.4260   15.4345 H   0  0  0  0  0  0  0  0  0  0  0  0
   12.9308   -2.6848   17.6317 H   0  0  0  0  0  0  0  0  0  0  0  0
   14.3688   -3.3708   16.8440 H   0  0  0  0  0  0  0  0  0  0  0  0
   14.8218   -2.3980   18.8363 H   0  0  0  0  0  0  0  0  0  0  0  0
  1  2  1  0
  2  3  1  0
  3  4  1  0
  4  5  1  0
  5  6  1  0
  6  7  1  0
  7  8  1  0
  7  9  2  0
  7 10  2  0
 10 11  1  0
 11 12  1  0
 12 13  2  3
 13 14  1  0
 13 15  1  0
 15 16  1  0
 16 17  2  0
 17 18  1  0
 18 19  1  0
  6 20  1  0
 20 21  1  0
 21 22  1  0
 20  2  1  0
 19 15  2  0
  1 23  1  0
  1 24  1  0
  1 25  1  0
  2 26  1  0
  3 27  1  0
  3 28  1  0
  4 29  1  0
  4 30  1  0
  5 31  1  0
  5 32  1  0
  8 33  1  0
  8 34  1  0
  8 35  1  0
 11 36  1  0
 11 37  1  0
 14 38  1  0
 16 39  1  0
 17 40  1  0
 19 41  1  0
 20 42  1  0
 21 43  1  0
 21 44  1  0
 22 45  1  0
M  END
>  <Energy>  (839) 
-127.65286913465953

>  <compound_id>  (839) 
1123

>  <target_id>  (839) 
1

>  <reference_id>  (839) 
81

>  <inspiration_ids>  (839) 
[81, 122]

>  <energy_score>  (839) 
-123.85228189746555

>  <distance_score>  (839) 
1.1473067040042113

>  <path>  (839) 
/opt/xchem-fragalysis-2/maxwin/BulkDock/SCRATCH/505733/C1123-P81/C1123-P81.minimised.mol

>  <scratch_subdir>  (839) 
/opt/xchem-fragalysis-2/maxwin/BulkDock/SCRATCH/505733/C1123-P81

>  <fragmenstein_runtime>  (839) 
2.019965648651123

>  <fragmenstein_outcome>  (839) 
too moved

>  <fragmenstein_mode>  (839) 
expansion

>  <fragmenstein_error>  (839) 


$$$$
C1123-P122
     RDKit          3D

 45 46  0  0  0  0  0  0  0  0999 V2000
   11.3417   -2.7080   15.4217 C   0  0  0  0  0  0  0  0  0  0  0  0
   12.5653   -2.1894   14.6773 C   0  0  0  0  0  0  0  0  0  0  0  0
   12.3371   -0.7801   14.1184 C   0  0  0  0  0  0  0  0  0  0  0  0
   12.2848    0.2731   15.2152 C   0  0  0  0  0  0  0  0  0  0  0  0
   13.1420   -0.0953   16.4210 C   0  0  0  0  0  0  0  0  0  0  0  0
   14.2805   -0.9131   16.0499 N   0  0  0  0  0  0  0  0  0  0  0  0
   15.8058   -0.6472   16.7539 S   0  0  0  0  0  0  0  0  0  0  0  0
   15.6197   -0.7264   18.5166 C   0  0  0  0  0  0  0  0  0  0  0  0
   16.6223   -1.7634   16.3320 O   0  0  0  0  0  0  0  0  0  0  0  0
   16.0864    0.8183   16.3579 N   0  0  0  0  0  0  0  0  0  0  0  0
   16.8371    0.9912   15.1068 C   0  0  0  0  0  0  0  0  0  0  0  0
   17.0076    2.3869   14.7454 N   0  0  0  0  0  0  0  0  0  0  0  0
   16.3497    3.3497   15.2639 C   0  0  0  0  0  0  0  0  0  0  0  0
   15.4401    3.2080   16.2465 O   0  0  0  0  0  0  0  0  0  0  0  0
   16.5437    4.7162   14.8083 C   0  0  0  0  0  0  0  0  0  0  0  0
   15.8738    5.8821   15.3174 C   0  0  0  0  0  0  0  0  0  0  0  0
   16.2631    7.0436   14.6882 C   0  0  0  0  0  0  0  0  0  0  0  0
   17.4338    6.7519   13.4793 S   0  0  0  0  0  0  0  0  0  0  0  0
   17.4230    5.0719   13.7996 C   0  0  0  0  0  0  0  0  0  0  0  0
   13.8976   -2.2323   15.4987 C   0  0  0  0  0  0  0  0  0  0  0  0
   13.9462   -3.3689   16.5614 C   0  0  0  0  0  0  0  0  0  0  0  0
   13.1768   -3.0337   17.7116 O   0  0  0  0  0  0  0  0  0  0  0  0
   11.4569   -3.7458   15.7417 H   0  0  0  0  0  0  0  0  0  0  0  0
   11.1133   -2.0918   16.2868 H   0  0  0  0  0  0  0  0  0  0  0  0
   10.4608   -2.6830   14.7762 H   0  0  0  0  0  0  0  0  0  0  0  0
   12.6791   -2.8336   13.7999 H   0  0  0  0  0  0  0  0  0  0  0  0
   13.1632   -0.5388   13.4355 H   0  0  0  0  0  0  0  0  0  0  0  0
   11.4286   -0.7192   13.5190 H   0  0  0  0  0  0  0  0  0  0  0  0
   11.2492    0.4192   15.5454 H   0  0  0  0  0  0  0  0  0  0  0  0
   12.6172    1.2309   14.7965 H   0  0  0  0  0  0  0  0  0  0  0  0
   12.5476   -0.6304   17.1588 H   0  0  0  0  0  0  0  0  0  0  0  0
   13.4436    0.8356   16.9149 H   0  0  0  0  0  0  0  0  0  0  0  0
   15.2895   -1.7276   18.7959 H   0  0  0  0  0  0  0  0  0  0  0  0
   16.5926   -0.5251   18.9705 H   0  0  0  0  0  0  0  0  0  0  0  0
   14.8926    0.0198   18.8414 H   0  0  0  0  0  0  0  0  0  0  0  0
   16.3273    0.4815   14.2811 H   0  0  0  0  0  0  0  0  0  0  0  0
   17.8318    0.5434   15.2123 H   0  0  0  0  0  0  0  0  0  0  0  0
   15.4916    2.2592   16.5194 H   0  0  0  0  0  0  0  0  0  0  0  0
   15.1402    5.8566   16.1149 H   0  0  0  0  0  0  0  0  0  0  0  0
   15.9171    8.0496   14.8813 H   0  0  0  0  0  0  0  0  0  0  0  0
   18.0669    4.4149   13.2299 H   0  0  0  0  0  0  0  0  0  0  0  0
   14.6713   -2.4724   14.7569 H   0  0  0  0  0  0  0  0  0  0  0  0
   14.9695   -3.5608   16.8946 H   0  0  0  0  0  0  0  0  0  0  0  0
   13.5674   -4.3075   16.1491 H   0  0  0  0  0  0  0  0  0  0  0  0
   13.0093   -3.8511   18.2161 H   0  0  0  0  0  0  0  0  0  0  0  0
  1  2  1  0
  2  3  1  0
  3  4  1  0
  4  5  1  0
  5  6  1  0
  6  7  1  0
  7  8  1  0
  7  9  2  0
  7 10  2  0
 10 11  1  0
 11 12  1  0
 12 13  2  3
 13 14  1  0
 13 15  1  0
 15 16  1  0
 16 17  2  0
 17 18  1  0
 18 19  1  0
  6 20  1  0
 20 21  1  0
 21 22  1  0
 20  2  1  0
 19 15  2  0
  1 23  1  0
  1 24  1  0
  1 25  1  0
  2 26  1  0
  3 27  1  0
  3 28  1  0
  4 29  1  0
  4 30  1  0
  5 31  1  0
  5 32  1  0
  8 33  1  0
  8 34  1  0
  8 35  1  0
 11 36  1  0
 11 37  1  0
 14 38  1  0
 16 39  1  0
 17 40  1  0
 19 41  1  0
 20 42  1  0
 21 43  1  0
 21 44  1  0
 22 45  1  0
M  END
>  <Energy>  (840) 
-132.58100722121475

>  <compound_id>  (840) 
1123

>  <target_id>  (840) 
1

>  <reference_id>  (840) 
122

>  <inspiration_ids>  (840) 
[81, 122]

>  <energy_score>  (840) 
-128.78041998401787

>  <distance_score>  (840) 
1.4131443592201054

>  <path>  (840) 
/opt/xchem-fragalysis-2/maxwin/BulkDock/SCRATCH/505733/C1123-P122/C1123-P122.minimised.mol

>  <scratch_subdir>  (840) 
/opt/xchem-fragalysis-2/maxwin/BulkDock/SCRATCH/505733/C1123-P122

>  <fragmenstein_runtime>  (840) 
1.6168897151947021

>  <fragmenstein_outcome>  (840) 
too moved

>  <fragmenstein_mode>  (840) 
expansion

>  <fragmenstein_error>  (840) 


$$$$
C1124-P81
     RDKit          3D

 67 70  0  0  0  0  0  0  0  0999 V2000
   12.5107    1.9650   11.8539 C   0  0  0  0  0  0  0  0  0  0  0  0
   12.1808    1.5190   13.2820 C   0  0  0  0  0  0  0  0  0  0  0  0
   10.7381    1.8990   13.5908 C   0  0  0  0  0  0  0  0  0  0  0  0
   10.2999    1.4754   14.9798 C   0  0  0  0  0  0  0  0  0  0  0  0
   11.3839    0.7066   15.6926 C   0  0  0  0  0  0  0  0  0  0  0  0
   11.9298   -0.3846   14.9030 N   0  0  0  0  0  0  0  0  0  0  0  0
   11.3587   -1.9607   15.2450 S   0  0  0  0  0  0  0  0  0  0  0  0
   11.7394   -3.0186   13.8988 C   0  0  0  0  0  0  0  0  0  0  0  0
    9.9252   -1.7815   15.3278 O   0  0  0  0  0  0  0  0  0  0  0  0
   12.2232   -2.2959   16.4520 N   0  0  0  0  0  0  0  0  0  0  0  0
   12.8922   -3.5809   16.7049 C   0  0  0  0  0  0  0  0  0  0  0  0
   14.3639   -3.2569   16.9983 C   0  0  0  0  0  0  0  0  0  0  0  0
   15.3509   -4.2768   17.5713 C   0  0  0  0  0  0  0  0  0  0  0  0
   14.7733   -5.3642   18.3146 O   0  0  0  0  0  0  0  0  0  0  0  0
   15.8274   -4.4472   16.1209 C   0  0  0  0  0  0  0  0  0  0  0  0
   15.2157   -3.1391   15.7421 N   0  0  0  0  0  0  0  0  0  0  0  0
   16.2501   -2.0564   15.7693 C   0  0  0  0  0  0  0  0  0  0  0  0
   15.9359   -1.0356   16.8447 C   0  0  0  0  0  0  0  0  0  0  0  0
   16.5712   -1.1903   18.0902 C   0  0  0  0  0  0  0  0  0  0  0  0
   15.9726   -0.7044   19.2430 C   0  0  0  0  0  0  0  0  0  0  0  0
   14.7872    0.0100   19.1497 C   0  0  0  0  0  0  0  0  0  0  0  0
   14.2385    0.2942   17.9032 C   0  0  0  0  0  0  0  0  0  0  0  0
   14.8112   -0.2167   16.7485 C   0  0  0  0  0  0  0  0  0  0  0  0
   16.6377   -1.5186   14.3849 C   0  0  0  0  0  0  0  0  0  0  0  0
   17.1292   -0.2113   14.2088 C   0  0  0  0  0  0  0  0  0  0  0  0
   17.6223    0.2178   12.9718 C   0  0  0  0  0  0  0  0  0  0  0  0
   17.6707   -0.6610   11.8935 C   0  0  0  0  0  0  0  0  0  0  0  0
   17.2261   -1.9693   12.0519 C   0  0  0  0  0  0  0  0  0  0  0  0
   16.7187   -2.3895   13.2847 C   0  0  0  0  0  0  0  0  0  0  0  0
   12.3325    0.0093   13.5427 C   0  0  0  0  0  0  0  0  0  0  0  0
   13.7671   -0.4389   13.2438 C   0  0  0  0  0  0  0  0  0  0  0  0
   13.9891   -0.6135   11.8507 O   0  0  0  0  0  0  0  0  0  0  0  0
   11.9320    1.4026   11.1167 H   0  0  0  0  0  0  0  0  0  0  0  0
   12.2765    3.0269   11.7180 H   0  0  0  0  0  0  0  0  0  0  0  0
   13.5746    1.8468   11.6304 H   0  0  0  0  0  0  0  0  0  0  0  0
   12.8498    2.0828   13.9470 H   0  0  0  0  0  0  0  0  0  0  0  0
   10.5860    2.9782   13.4692 H   0  0  0  0  0  0  0  0  0  0  0  0
   10.0900    1.4083   12.8630 H   0  0  0  0  0  0  0  0  0  0  0  0
    9.4059    0.8463   14.9162 H   0  0  0  0  0  0  0  0  0  0  0  0
   10.0185    2.3545   15.5713 H   0  0  0  0  0  0  0  0  0  0  0  0
   10.9401    0.3044   16.5956 H   0  0  0  0  0  0  0  0  0  0  0  0
   12.1806    1.3896   16.0026 H   0  0  0  0  0  0  0  0  0  0  0  0
   11.4471   -2.5807   12.9594 H   0  0  0  0  0  0  0  0  0  0  0  0
   12.8103   -3.1536   13.8707 H   0  0  0  0  0  0  0  0  0  0  0  0
   11.2151   -3.9566   14.0514 H   0  0  0  0  0  0  0  0  0  0  0  0
   12.7888   -4.2993   15.8961 H   0  0  0  0  0  0  0  0  0  0  0  0
   12.4395   -4.0340   17.5904 H   0  0  0  0  0  0  0  0  0  0  0  0
   14.3068   -2.4507   17.7262 H   0  0  0  0  0  0  0  0  0  0  0  0
   16.1420   -3.8308   18.1846 H   0  0  0  0  0  0  0  0  0  0  0  0
   14.5276   -4.9620   19.1718 H   0  0  0  0  0  0  0  0  0  0  0  0
   16.9092   -4.5562   15.9878 H   0  0  0  0  0  0  0  0  0  0  0  0
   15.3662   -5.2662   15.5819 H   0  0  0  0  0  0  0  0  0  0  0  0
   17.2085   -2.4981   16.0843 H   0  0  0  0  0  0  0  0  0  0  0  0
   17.4660   -1.8011   18.1893 H   0  0  0  0  0  0  0  0  0  0  0  0
   16.4214   -0.8858   20.2160 H   0  0  0  0  0  0  0  0  0  0  0  0
   14.3164    0.3955   20.0512 H   0  0  0  0  0  0  0  0  0  0  0  0
   13.3497    0.9074   17.8405 H   0  0  0  0  0  0  0  0  0  0  0  0
   14.3064   -0.0799   15.8073 H   0  0  0  0  0  0  0  0  0  0  0  0
   17.1512    0.4922   15.0393 H   0  0  0  0  0  0  0  0  0  0  0  0
   17.9896    1.2353   12.8605 H   0  0  0  0  0  0  0  0  0  0  0  0
   18.0703   -0.3305   10.9381 H   0  0  0  0  0  0  0  0  0  0  0  0
   17.2820   -2.6711   11.2239 H   0  0  0  0  0  0  0  0  0  0  0  0
   16.4048   -3.4228   13.3929 H   0  0  0  0  0  0  0  0  0  0  0  0
   11.6395   -0.4713   12.8559 H   0  0  0  0  0  0  0  0  0  0  0  0
   13.9863   -1.3930   13.7182 H   0  0  0  0  0  0  0  0  0  0  0  0
   14.4749    0.3097   13.6080 H   0  0  0  0  0  0  0  0  0  0  0  0
   14.9390   -0.8084   11.7601 H   0  0  0  0  0  0  0  0  0  0  0  0
  1  2  1  0
  2  3  1  0
  3  4  1  0
  4  5  1  0
  5  6  1  0
  6  7  1  0
  7  8  1  0
  7  9  2  0
  7 10  2  0
 10 11  1  0
 11 12  1  0
 12 13  1  0
 13 14  1  0
 13 15  1  0
 15 16  1  0
 16 17  1  0
 17 18  1  0
 18 19  2  0
 19 20  1  0
 20 21  2  0
 21 22  1  0
 22 23  2  0
 17 24  1  0
 24 25  2  0
 25 26  1  0
 26 27  2  0
 27 28  1  0
 28 29  2  0
  6 30  1  0
 30 31  1  0
 31 32  1  0
 30  2  1  0
 16 12  1  0
 23 18  1  0
 29 24  1  0
  1 33  1  0
  1 34  1  0
  1 35  1  0
  2 36  1  0
  3 37  1  0
  3 38  1  0
  4 39  1  0
  4 40  1  0
  5 41  1  0
  5 42  1  0
  8 43  1  0
  8 44  1  0
  8 45  1  0
 11 46  1  0
 11 47  1  0
 12 48  1  0
 13 49  1  0
 14 50  1  0
 15 51  1  0
 15 52  1  0
 17 53  1  0
 19 54  1  0
 20 55  1  0
 21 56  1  0
 22 57  1  0
 23 58  1  0
 25 59  1  0
 26 60  1  0
 27 61  1  0
 28 62  1  0
 29 63  1  0
 30 64  1  0
 31 65  1  0
 31 66  1  0
 32 67  1  0
M  END
>  <Energy>  (841) 
89.360763509034868

>  <compound_id>  (841) 
1124

>  <target_id>  (841) 
1

>  <reference_id>  (841) 
81

>  <inspiration_ids>  (841) 
[81, 146]

>  <energy_score>  (841) 
-39.79040294031114

>  <distance_score>  (841) 
3.2964387842696143

>  <path>  (841) 
/opt/xchem-fragalysis-2/maxwin/BulkDock/SCRATCH/505733/C1124-P81/C1124-P81.minimised.mol

>  <scratch_subdir>  (841) 
/opt/xchem-fragalysis-2/maxwin/BulkDock/SCRATCH/505733/C1124-P81

>  <fragmenstein_runtime>  (841) 
39.30608153343201

>  <fragmenstein_outcome>  (841) 
too moved

>  <fragmenstein_mode>  (841) 
expansion

>  <fragmenstein_error>  (841) 


$$$$
C1124-P146
     RDKit          3D

 67 70  0  0  0  0  0  0  0  0999 V2000
   13.0733    3.4403   13.5078 C   0  0  0  0  0  0  0  0  0  0  0  0
   11.7168    3.0902   14.1341 C   0  0  0  0  0  0  0  0  0  0  0  0
   11.6213    3.7531   15.5092 C   0  0  0  0  0  0  0  0  0  0  0  0
   10.5764    3.1493   16.4349 C   0  0  0  0  0  0  0  0  0  0  0  0
    9.5741    2.3470   15.6386 C   0  0  0  0  0  0  0  0  0  0  0  0
   10.1826    1.2288   14.9041 N   0  0  0  0  0  0  0  0  0  0  0  0
    9.9857   -0.3476   15.4816 S   0  0  0  0  0  0  0  0  0  0  0  0
    8.5929   -1.1402   14.8134 C   0  0  0  0  0  0  0  0  0  0  0  0
    9.6538   -0.2159   16.8883 O   0  0  0  0  0  0  0  0  0  0  0  0
   11.2323   -1.0997   14.9849 N   0  0  0  0  0  0  0  0  0  0  0  0
   11.6419   -2.1237   15.8993 C   0  0  0  0  0  0  0  0  0  0  0  0
   12.6514   -3.1151   15.4369 C   0  0  0  0  0  0  0  0  0  0  0  0
   12.7674   -3.9631   16.7328 C   0  0  0  0  0  0  0  0  0  0  0  0
   12.1804   -5.2573   16.7567 O   0  0  0  0  0  0  0  0  0  0  0  0
   14.2514   -3.8674   16.5784 C   0  0  0  0  0  0  0  0  0  0  0  0
   14.1024   -2.9173   15.4305 N   0  0  0  0  0  0  0  0  0  0  0  0
   14.6554   -1.5551   15.6088 C   0  0  0  0  0  0  0  0  0  0  0  0
   15.8425   -1.7054   16.5662 C   0  0  0  0  0  0  0  0  0  0  0  0
   16.8611   -2.6265   16.2763 C   0  0  0  0  0  0  0  0  0  0  0  0
   17.5203   -3.2633   17.3225 C   0  0  0  0  0  0  0  0  0  0  0  0
   17.2094   -2.9457   18.6416 C   0  0  0  0  0  0  0  0  0  0  0  0
   16.3255   -1.9119   18.9177 C   0  0  0  0  0  0  0  0  0  0  0  0
   15.6921   -1.2537   17.8767 C   0  0  0  0  0  0  0  0  0  0  0  0
   15.0431   -0.8234   14.3184 C   0  0  0  0  0  0  0  0  0  0  0  0
   16.0149    0.2042   14.3600 C   0  0  0  0  0  0  0  0  0  0  0  0
   16.3429    0.9597   13.2324 C   0  0  0  0  0  0  0  0  0  0  0  0
   15.6740    0.7372   12.0399 C   0  0  0  0  0  0  0  0  0  0  0  0
   14.6894   -0.2432   11.9869 C   0  0  0  0  0  0  0  0  0  0  0  0
   14.3845   -1.0309   13.1052 C   0  0  0  0  0  0  0  0  0  0  0  0
   11.4387    1.5872   14.1955 C   0  0  0  0  0  0  0  0  0  0  0  0
   11.4571    0.9924   12.7680 C   0  0  0  0  0  0  0  0  0  0  0  0
   10.7004    1.7580   11.8215 O   0  0  0  0  0  0  0  0  0  0  0  0
   13.8918    2.9407   14.0361 H   0  0  0  0  0  0  0  0  0  0  0  0
   13.2529    4.5202   13.5534 H   0  0  0  0  0  0  0  0  0  0  0  0
   13.1197    3.1543   12.4531 H   0  0  0  0  0  0  0  0  0  0  0  0
   10.9495    3.5655   13.5060 H   0  0  0  0  0  0  0  0  0  0  0  0
   11.3568    4.8078   15.3447 H   0  0  0  0  0  0  0  0  0  0  0  0
   12.5894    3.8046   16.0142 H   0  0  0  0  0  0  0  0  0  0  0  0
   11.0363    2.5184   17.1954 H   0  0  0  0  0  0  0  0  0  0  0  0
   10.0665    3.9510   16.9824 H   0  0  0  0  0  0  0  0  0  0  0  0
    9.0997    3.0473   14.9444 H   0  0  0  0  0  0  0  0  0  0  0  0
    8.7610    2.0043   16.2886 H   0  0  0  0  0  0  0  0  0  0  0  0
    8.7767   -2.2096   14.7105 H   0  0  0  0  0  0  0  0  0  0  0  0
    8.4062   -0.6781   13.8584 H   0  0  0  0  0  0  0  0  0  0  0  0
    7.7540   -1.0009   15.4935 H   0  0  0  0  0  0  0  0  0  0  0  0
   11.9419   -1.6760   16.8320 H   0  0  0  0  0  0  0  0  0  0  0  0
   10.7614   -2.7177   16.0990 H   0  0  0  0  0  0  0  0  0  0  0  0
   12.2987   -3.6505   14.5497 H   0  0  0  0  0  0  0  0  0  0  0  0
   12.4971   -3.4624   17.6703 H   0  0  0  0  0  0  0  0  0  0  0  0
   11.2471   -5.1430   16.4948 H   0  0  0  0  0  0  0  0  0  0  0  0
   14.6549   -3.5483   17.5370 H   0  0  0  0  0  0  0  0  0  0  0  0
   14.7503   -4.8117   16.3404 H   0  0  0  0  0  0  0  0  0  0  0  0
   13.9229   -0.9017   16.0883 H   0  0  0  0  0  0  0  0  0  0  0  0
   17.0130   -2.9777   15.2580 H   0  0  0  0  0  0  0  0  0  0  0  0
   18.2445   -4.0458   17.1091 H   0  0  0  0  0  0  0  0  0  0  0  0
   17.7064   -3.4684   19.4551 H   0  0  0  0  0  0  0  0  0  0  0  0
   16.1418   -1.6158   19.9475 H   0  0  0  0  0  0  0  0  0  0  0  0
   15.0263   -0.4465   18.1182 H   0  0  0  0  0  0  0  0  0  0  0  0
   16.5281    0.4429   15.2901 H   0  0  0  0  0  0  0  0  0  0  0  0
   17.0993    1.7367   13.3009 H   0  0  0  0  0  0  0  0  0  0  0  0
   15.8958    1.3423   11.1658 H   0  0  0  0  0  0  0  0  0  0  0  0
   14.1070   -0.3658   11.0779 H   0  0  0  0  0  0  0  0  0  0  0  0
   13.5933   -1.7724   13.0218 H   0  0  0  0  0  0  0  0  0  0  0  0
   12.2730    1.1452   14.7536 H   0  0  0  0  0  0  0  0  0  0  0  0
   11.0952   -0.0320   12.7239 H   0  0  0  0  0  0  0  0  0  0  0  0
   12.4836    0.9832   12.4078 H   0  0  0  0  0  0  0  0  0  0  0  0
   11.2376    1.7363   11.0053 H   0  0  0  0  0  0  0  0  0  0  0  0
  1  2  1  0
  2  3  1  0
  3  4  1  0
  4  5  1  0
  5  6  1  0
  6  7  1  0
  7  8  1  0
  7  9  2  0
  7 10  2  0
 10 11  1  0
 11 12  1  0
 12 13  1  0
 13 14  1  0
 13 15  1  0
 15 16  1  0
 16 17  1  0
 17 18  1  0
 18 19  2  0
 19 20  1  0
 20 21  2  0
 21 22  1  0
 22 23  2  0
 17 24  1  0
 24 25  2  0
 25 26  1  0
 26 27  2  0
 27 28  1  0
 28 29  2  0
  6 30  1  0
 30 31  1  0
 31 32  1  0
 30  2  1  0
 16 12  1  0
 23 18  1  0
 29 24  1  0
  1 33  1  0
  1 34  1  0
  1 35  1  0
  2 36  1  0
  3 37  1  0
  3 38  1  0
  4 39  1  0
  4 40  1  0
  5 41  1  0
  5 42  1  0
  8 43  1  0
  8 44  1  0
  8 45  1  0
 11 46  1  0
 11 47  1  0
 12 48  1  0
 13 49  1  0
 14 50  1  0
 15 51  1  0
 15 52  1  0
 17 53  1  0
 19 54  1  0
 20 55  1  0
 21 56  1  0
 22 57  1  0
 23 58  1  0
 25 59  1  0
 26 60  1  0
 27 61  1  0
 28 62  1  0
 29 63  1  0
 30 64  1  0
 31 65  1  0
 31 66  1  0
 32 67  1  0
M  END
>  <Energy>  (842) 
102.84787888389937

>  <compound_id>  (842) 
1124

>  <target_id>  (842) 
1

>  <reference_id>  (842) 
146

>  <inspiration_ids>  (842) 
[81, 146]

>  <energy_score>  (842) 
-26.30328756544401

>  <distance_score>  (842) 
3.827824465785035

>  <path>  (842) 
/opt/xchem-fragalysis-2/maxwin/BulkDock/SCRATCH/505733/C1124-P146/C1124-P146.minimised.mol

>  <scratch_subdir>  (842) 
/opt/xchem-fragalysis-2/maxwin/BulkDock/SCRATCH/505733/C1124-P146

>  <fragmenstein_runtime>  (842) 
37.21293258666992

>  <fragmenstein_outcome>  (842) 
too moved

>  <fragmenstein_mode>  (842) 
expansion

>  <fragmenstein_error>  (842) 


$$$$
C1126-P82
     RDKit          3D

 67 68  0  0  0  0  0  0  0  0999 V2000
   -9.5427  -26.0695   28.2917 C   0  0  0  0  0  0  0  0  0  0  0  0
  -10.5754  -26.1180   27.1910 C   0  0  0  0  0  0  0  0  0  0  0  0
  -11.9443  -26.5971   27.6403 C   0  0  0  0  0  0  0  0  0  0  0  0
  -13.0208  -25.6741   27.0796 C   0  0  0  0  0  0  0  0  0  0  0  0
  -13.5764  -26.1869   25.7601 C   0  0  0  0  0  0  0  0  0  0  0  0
  -12.0075  -26.8575   29.1559 C   0  0  0  0  0  0  0  0  0  0  0  0
  -12.1658  -27.9897   29.5241 O   0  0  0  0  0  0  0  0  0  0  0  0
  -11.8305  -25.6460   29.9004 N   0  0  0  0  0  0  0  0  0  0  0  0
  -11.6943  -25.4227   31.2839 C   0  0  0  0  0  0  0  0  0  0  0  0
  -10.5639  -25.9695   31.8785 C   0  0  0  0  0  0  0  0  0  0  0  0
   -9.6185  -26.6239   31.1670 O   0  0  0  0  0  0  0  0  0  0  0  0
  -10.3164  -25.7885   33.2150 C   0  0  0  0  0  0  0  0  0  0  0  0
  -11.2740  -25.2485   34.0199 C   0  0  0  0  0  0  0  0  0  0  0  0
  -12.4330  -24.7441   33.4781 C   0  0  0  0  0  0  0  0  0  0  0  0
  -12.6066  -24.6749   32.1024 C   0  0  0  0  0  0  0  0  0  0  0  0
  -13.9417  -24.1046   31.6689 C   0  0  0  0  0  0  0  0  0  0  0  0
  -14.9918  -22.9609   31.4200 C   0  0  0  0  0  0  0  0  0  0  0  0
  -14.3906  -21.7541   30.8373 N   0  0  0  0  0  0  0  0  0  0  0  0
  -12.8748  -21.8161   30.9647 S   0  0  0  0  0  0  0  0  0  0  0  0
  -12.2364  -22.7625   29.6778 C   0  0  0  0  0  0  0  0  0  0  0  0
  -11.7676  -20.9095   30.8104 O   0  0  0  0  0  0  0  0  0  0  0  0
  -13.0437  -21.7620   32.6878 N   0  0  0  0  0  0  0  0  0  0  0  0
  -14.2697  -21.3639   33.4520 C   0  0  0  0  0  0  0  0  0  0  0  0
  -14.3823  -20.0951   34.2448 C   0  0  0  0  0  0  0  0  0  0  0  0
  -13.1182  -19.7253   34.9064 C   0  0  0  0  0  0  0  0  0  0  0  0
  -11.8950  -20.5310   34.4195 C   0  0  0  0  0  0  0  0  0  0  0  0
  -11.0752  -19.4938   33.7639 C   0  0  0  0  0  0  0  0  0  0  0  0
  -11.9210  -21.8513   33.5556 C   0  0  0  0  0  0  0  0  0  0  0  0
  -10.7509  -22.3520   32.5826 C   0  0  0  0  0  0  0  0  0  0  0  0
   -9.7384  -23.2892   32.9381 O   0  0  0  0  0  0  0  0  0  0  0  0
   -8.5781  -26.4172   27.9571 H   0  0  0  0  0  0  0  0  0  0  0  0
   -9.7454  -26.7840   29.0680 H   0  0  0  0  0  0  0  0  0  0  0  0
   -9.4601  -25.0767   28.7359 H   0  0  0  0  0  0  0  0  0  0  0  0
  -10.6163  -25.1362   26.7064 H   0  0  0  0  0  0  0  0  0  0  0  0
  -10.2567  -26.8254   26.4179 H   0  0  0  0  0  0  0  0  0  0  0  0
  -12.1024  -27.5929   27.1976 H   0  0  0  0  0  0  0  0  0  0  0  0
  -12.6542  -24.6499   26.9439 H   0  0  0  0  0  0  0  0  0  0  0  0
  -13.8251  -25.6003   27.7920 H   0  0  0  0  0  0  0  0  0  0  0  0
  -12.7712  -26.3821   25.0471 H   0  0  0  0  0  0  0  0  0  0  0  0
  -14.1305  -27.1196   25.9087 H   0  0  0  0  0  0  0  0  0  0  0  0
  -14.2604  -25.4543   25.3213 H   0  0  0  0  0  0  0  0  0  0  0  0
  -11.8092  -24.8790   29.2685 H   0  0  0  0  0  0  0  0  0  0  0  0
   -9.1929  -27.2707   31.7772 H   0  0  0  0  0  0  0  0  0  0  0  0
   -9.3303  -25.9487   33.6181 H   0  0  0  0  0  0  0  0  0  0  0  0
  -11.0782  -25.1578   35.0699 H   0  0  0  0  0  0  0  0  0  0  0  0
  -13.2016  -24.3559   34.1402 H   0  0  0  0  0  0  0  0  0  0  0  0
  -14.5563  -24.5374   32.4512 H   0  0  0  0  0  0  0  0  0  0  0  0
  -13.8570  -24.4896   30.6742 H   0  0  0  0  0  0  0  0  0  0  0  0
  -15.5708  -22.8255   32.3356 H   0  0  0  0  0  0  0  0  0  0  0  0
  -15.8580  -23.1853   30.7941 H   0  0  0  0  0  0  0  0  0  0  0  0
  -12.8497  -23.5464   29.3207 H   0  0  0  0  0  0  0  0  0  0  0  0
  -11.2162  -23.0931   29.8447 H   0  0  0  0  0  0  0  0  0  0  0  0
  -12.1580  -22.0946   28.8069 H   0  0  0  0  0  0  0  0  0  0  0  0
  -15.1364  -21.1660   32.8221 H   0  0  0  0  0  0  0  0  0  0  0  0
  -14.5480  -22.2108   34.0889 H   0  0  0  0  0  0  0  0  0  0  0  0
  -15.2059  -20.1644   34.9659 H   0  0  0  0  0  0  0  0  0  0  0  0
  -14.7162  -19.2852   33.6060 H   0  0  0  0  0  0  0  0  0  0  0  0
  -12.9906  -18.6393   34.7814 H   0  0  0  0  0  0  0  0  0  0  0  0
  -13.2138  -19.7826   35.9929 H   0  0  0  0  0  0  0  0  0  0  0  0
  -11.5347  -20.8393   35.3777 H   0  0  0  0  0  0  0  0  0  0  0  0
  -10.9243  -18.6014   34.3830 H   0  0  0  0  0  0  0  0  0  0  0  0
  -10.1410  -19.7633   33.2763 H   0  0  0  0  0  0  0  0  0  0  0  0
  -11.7475  -19.2695   32.9925 H   0  0  0  0  0  0  0  0  0  0  0  0
  -12.0414  -22.6307   34.2906 H   0  0  0  0  0  0  0  0  0  0  0  0
  -11.1390  -22.9352   31.7872 H   0  0  0  0  0  0  0  0  0  0  0  0
  -10.2557  -21.4675   32.1811 H   0  0  0  0  0  0  0  0  0  0  0  0
   -9.4476  -23.7755   32.1504 H   0  0  0  0  0  0  0  0  0  0  0  0
  1  2  1  0
  2  3  1  0
  3  4  1  0
  4  5  1  0
  3  6  1  0
  6  7  2  0
  6  8  1  0
  8  9  1  0
  9 10  2  0
 10 11  1  0
 10 12  1  0
 12 13  2  0
 13 14  1  0
 14 15  2  0
 15 16  1  0
 16 17  1  0
 17 18  1  0
 18 19  2  0
 19 20  1  0
 19 21  2  0
 19 22  1  0
 22 23  1  0
 23 24  1  0
 24 25  1  0
 25 26  1  0
 26 27  1  0
 26 28  1  0
 28 29  1  0
 29 30  1  0
 15  9  1  0
 28 22  1  0
  1 31  1  0
  1 32  1  0
  1 33  1  0
  2 34  1  0
  2 35  1  0
  3 36  1  0
  4 37  1  0
  4 38  1  0
  5 39  1  0
  5 40  1  0
  5 41  1  0
  8 42  1  0
 11 43  1  0
 12 44  1  0
 13 45  1  0
 14 46  1  0
 16 47  1  0
 16 48  1  0
 17 49  1  0
 17 50  1  0
 20 51  1  0
 20 52  1  0
 20 53  1  0
 23 54  1  0
 23 55  1  0
 24 56  1  0
 24 57  1  0
 25 58  1  0
 25 59  1  0
 26 60  1  0
 27 61  1  0
 27 62  1  0
 27 63  1  0
 28 64  1  0
 29 65  1  0
 29 66  1  0
 30 67  1  0
M  END
>  <Energy>  (843) 
275.97654844246762

>  <compound_id>  (843) 
1126

>  <target_id>  (843) 
1

>  <reference_id>  (843) 
82

>  <inspiration_ids>  (843) 
[82, 3]

>  <energy_score>  (843) 
214.91966385838296

>  <distance_score>  (843) 
2.637273540282676

>  <path>  (843) 
/opt/xchem-fragalysis-2/maxwin/BulkDock/SCRATCH/505733/C1126-P82/C1126-P82.minimised.mol

>  <scratch_subdir>  (843) 
/opt/xchem-fragalysis-2/maxwin/BulkDock/SCRATCH/505733/C1126-P82

>  <fragmenstein_runtime>  (843) 
26.407015562057495

>  <fragmenstein_outcome>  (843) 
too moved

>  <fragmenstein_mode>  (843) 
expansion

>  <fragmenstein_error>  (843) 


$$$$
C1126-P3
     RDKit          3D

 67 68  0  0  0  0  0  0  0  0999 V2000
  -17.9791  -26.9229   26.5583 C   0  0  0  0  0  0  0  0  0  0  0  0
  -17.1050  -28.0717   26.0689 C   0  0  0  0  0  0  0  0  0  0  0  0
  -16.3052  -28.7341   27.2072 C   0  0  0  0  0  0  0  0  0  0  0  0
  -15.7275  -30.0873   26.7499 C   0  0  0  0  0  0  0  0  0  0  0  0
  -16.7061  -31.2330   26.9728 C   0  0  0  0  0  0  0  0  0  0  0  0
  -15.1784  -27.8101   27.7259 C   0  0  0  0  0  0  0  0  0  0  0  0
  -14.8249  -26.8357   27.1807 O   0  0  0  0  0  0  0  0  0  0  0  0
  -14.7511  -28.4108   29.1052 N   0  0  0  0  0  0  0  0  0  0  0  0
  -13.9011  -27.8980   30.0997 C   0  0  0  0  0  0  0  0  0  0  0  0
  -13.4925  -28.8668   31.0451 C   0  0  0  0  0  0  0  0  0  0  0  0
  -13.7233  -30.2013   30.7961 O   0  0  0  0  0  0  0  0  0  0  0  0
  -12.8954  -28.5660   32.2623 C   0  0  0  0  0  0  0  0  0  0  0  0
  -12.6171  -27.2650   32.5519 C   0  0  0  0  0  0  0  0  0  0  0  0
  -13.0095  -26.3144   31.6255 C   0  0  0  0  0  0  0  0  0  0  0  0
  -13.6090  -26.5639   30.3757 C   0  0  0  0  0  0  0  0  0  0  0  0
  -13.9491  -25.3617   29.5204 C   0  0  0  0  0  0  0  0  0  0  0  0
  -12.9102  -25.0481   28.4324 C   0  0  0  0  0  0  0  0  0  0  0  0
  -11.6162  -24.6227   28.9960 N   0  0  0  0  0  0  0  0  0  0  0  0
  -11.2958  -23.1504   29.2595 S   0  0  0  0  0  0  0  0  0  0  0  0
  -10.6914  -22.4066   27.7926 C   0  0  0  0  0  0  0  0  0  0  0  0
  -12.2311  -22.1827   29.7495 O   0  0  0  0  0  0  0  0  0  0  0  0
  -10.1883  -23.2260   30.5194 N   0  0  0  0  0  0  0  0  0  0  0  0
  -10.2795  -24.1774   31.5891 C   0  0  0  0  0  0  0  0  0  0  0  0
   -9.8129  -23.6807   32.9647 C   0  0  0  0  0  0  0  0  0  0  0  0
  -10.0999  -22.2046   33.3289 C   0  0  0  0  0  0  0  0  0  0  0  0
   -9.8870  -21.2682   32.1566 C   0  0  0  0  0  0  0  0  0  0  0  0
  -11.0393  -20.3138   31.8813 C   0  0  0  0  0  0  0  0  0  0  0  0
   -9.3953  -22.1123   30.9746 C   0  0  0  0  0  0  0  0  0  0  0  0
   -8.0019  -22.6572   31.3021 C   0  0  0  0  0  0  0  0  0  0  0  0
   -7.3969  -22.1374   32.4746 O   0  0  0  0  0  0  0  0  0  0  0  0
  -17.3830  -26.1170   26.9960 H   0  0  0  0  0  0  0  0  0  0  0  0
  -18.6936  -27.2695   27.3118 H   0  0  0  0  0  0  0  0  0  0  0  0
  -18.5479  -26.5023   25.7228 H   0  0  0  0  0  0  0  0  0  0  0  0
  -17.7587  -28.8118   25.5928 H   0  0  0  0  0  0  0  0  0  0  0  0
  -16.4289  -27.6981   25.2916 H   0  0  0  0  0  0  0  0  0  0  0  0
  -16.9920  -28.8976   28.0494 H   0  0  0  0  0  0  0  0  0  0  0  0
  -14.7934  -30.3257   27.2707 H   0  0  0  0  0  0  0  0  0  0  0  0
  -15.4808  -30.0466   25.6849 H   0  0  0  0  0  0  0  0  0  0  0  0
  -17.6419  -31.0703   26.4298 H   0  0  0  0  0  0  0  0  0  0  0  0
  -16.2710  -32.1738   26.6209 H   0  0  0  0  0  0  0  0  0  0  0  0
  -16.9393  -31.3459   28.0364 H   0  0  0  0  0  0  0  0  0  0  0  0
  -15.1957  -29.3135   29.2349 H   0  0  0  0  0  0  0  0  0  0  0  0
  -13.3758  -30.3549   29.8991 H   0  0  0  0  0  0  0  0  0  0  0  0
  -12.7258  -29.3345   33.0038 H   0  0  0  0  0  0  0  0  0  0  0  0
  -12.1574  -26.9938   33.4918 H   0  0  0  0  0  0  0  0  0  0  0  0
  -12.9012  -25.3159   31.9466 H   0  0  0  0  0  0  0  0  0  0  0  0
  -14.9327  -25.5232   29.0706 H   0  0  0  0  0  0  0  0  0  0  0  0
  -14.1342  -24.4941   30.1384 H   0  0  0  0  0  0  0  0  0  0  0  0
  -12.7043  -25.9417   27.8342 H   0  0  0  0  0  0  0  0  0  0  0  0
  -13.2996  -24.2849   27.7488 H   0  0  0  0  0  0  0  0  0  0  0  0
   -9.8900  -21.7137   28.0265 H   0  0  0  0  0  0  0  0  0  0  0  0
  -10.4029  -23.1525   27.0576 H   0  0  0  0  0  0  0  0  0  0  0  0
  -11.5121  -21.8309   27.3516 H   0  0  0  0  0  0  0  0  0  0  0  0
   -9.6925  -25.0426   31.3129 H   0  0  0  0  0  0  0  0  0  0  0  0
  -11.2799  -24.5400   31.6221 H   0  0  0  0  0  0  0  0  0  0  0  0
  -10.1053  -24.3771   33.7377 H   0  0  0  0  0  0  0  0  0  0  0  0
   -8.7524  -23.8493   33.0189 H   0  0  0  0  0  0  0  0  0  0  0  0
  -11.0822  -22.0235   33.7377 H   0  0  0  0  0  0  0  0  0  0  0  0
   -9.4218  -21.9323   34.1486 H   0  0  0  0  0  0  0  0  0  0  0  0
   -9.0879  -20.5846   32.4644 H   0  0  0  0  0  0  0  0  0  0  0  0
  -11.2599  -19.7128   32.7705 H   0  0  0  0  0  0  0  0  0  0  0  0
  -10.7941  -19.6204   31.0708 H   0  0  0  0  0  0  0  0  0  0  0  0
  -11.9484  -20.8253   31.6047 H   0  0  0  0  0  0  0  0  0  0  0  0
   -9.3491  -21.5717   30.0514 H   0  0  0  0  0  0  0  0  0  0  0  0
   -7.3897  -22.4306   30.4666 H   0  0  0  0  0  0  0  0  0  0  0  0
   -7.9457  -23.7449   31.3372 H   0  0  0  0  0  0  0  0  0  0  0  0
   -6.6800  -22.7612   32.7064 H   0  0  0  0  0  0  0  0  0  0  0  0
  1  2  1  0
  2  3  1  0
  3  4  1  0
  4  5  1  0
  3  6  1  0
  6  7  2  0
  6  8  1  0
  8  9  1  0
  9 10  2  0
 10 11  1  0
 10 12  1  0
 12 13  2  0
 13 14  1  0
 14 15  2  0
 15 16  1  0
 16 17  1  0
 17 18  1  0
 18 19  2  0
 19 20  1  0
 19 21  2  0
 19 22  1  0
 22 23  1  0
 23 24  1  0
 24 25  1  0
 25 26  1  0
 26 27  1  0
 26 28  1  0
 28 29  1  0
 29 30  1  0
 15  9  1  0
 28 22  1  0
  1 31  1  0
  1 32  1  0
  1 33  1  0
  2 34  1  0
  2 35  1  0
  3 36  1  0
  4 37  1  0
  4 38  1  0
  5 39  1  0
  5 40  1  0
  5 41  1  0
  8 42  1  0
 11 43  1  0
 12 44  1  0
 13 45  1  0
 14 46  1  0
 16 47  1  0
 16 48  1  0
 17 49  1  0
 17 50  1  0
 20 51  1  0
 20 52  1  0
 20 53  1  0
 23 54  1  0
 23 55  1  0
 24 56  1  0
 24 57  1  0
 25 58  1  0
 25 59  1  0
 26 60  1  0
 27 61  1  0
 27 62  1  0
 27 63  1  0
 28 64  1  0
 29 65  1  0
 29 66  1  0
 30 67  1  0
M  END
>  <Energy>  (844) 
35.795713144848591

>  <compound_id>  (844) 
1126

>  <target_id>  (844) 
1

>  <reference_id>  (844) 
3

>  <inspiration_ids>  (844) 
[82, 3]

>  <energy_score>  (844) 
-30.084106444946343

>  <distance_score>  (844) 
3.384501884473931

>  <path>  (844) 
/opt/xchem-fragalysis-2/maxwin/BulkDock/SCRATCH/505733/C1126-P3/C1126-P3.minimised.mol

>  <scratch_subdir>  (844) 
/opt/xchem-fragalysis-2/maxwin/BulkDock/SCRATCH/505733/C1126-P3

>  <fragmenstein_runtime>  (844) 
21.48654842376709

>  <fragmenstein_outcome>  (844) 
too moved

>  <fragmenstein_mode>  (844) 
expansion

>  <fragmenstein_error>  (844) 


$$$$
C1127-P82
     RDKit          3D

 51 52  0  0  0  0  0  0  0  0999 V2000
  -12.7307  -25.3164   27.4704 C   0  0  0  0  0  0  0  0  0  0  0  0
  -11.4955  -25.2160   28.3099 C   0  0  0  0  0  0  0  0  0  0  0  0
  -10.4503  -25.6386   27.8057 O   0  0  0  0  0  0  0  0  0  0  0  0
  -11.5176  -24.3929   29.6393 C   0  0  0  0  0  0  0  0  0  0  0  0
  -11.5641  -22.9848   28.9951 C   0  0  0  0  0  0  0  0  0  0  0  0
  -12.5938  -24.8751   30.6660 C   0  0  0  0  0  0  0  0  0  0  0  0
  -12.4568  -24.8781   32.2938 C   0  0  0  0  0  0  0  0  0  0  0  0
  -11.0447  -25.0452   32.7253 C   0  0  0  0  0  0  0  0  0  0  0  0
  -10.4026  -25.5551   34.0477 C   0  0  0  0  0  0  0  0  0  0  0  0
   -8.7711  -25.4963   34.1406 C   0  0  0  0  0  0  0  0  0  0  0  0
   -7.9246  -25.5257   35.5413 C   0  0  0  0  0  0  0  0  0  0  0  0
   -6.8072  -25.7083   36.2709 C   0  0  0  0  0  0  0  0  0  0  0  0
   -6.2173  -24.1931   37.0895 C   0  0  0  0  0  0  0  0  0  0  0  0
   -6.5073  -23.7606   38.2486 C   0  0  0  0  0  0  0  0  0  0  0  0
   -7.6596  -24.1414   37.9442 C   0  0  0  0  0  0  0  0  0  0  0  0
   -8.3546  -24.9428   36.5645 C   0  0  0  0  0  0  0  0  0  0  0  0
  -10.4206  -23.9534   31.9828 N   0  0  0  0  0  0  0  0  0  0  0  0
  -11.4903  -22.2603   32.0993 S   0  0  0  0  0  0  0  0  0  0  0  0
  -12.1379  -22.2621   33.7438 C   0  0  0  0  0  0  0  0  0  0  0  0
  -10.6031  -21.1271   32.0043 O   0  0  0  0  0  0  0  0  0  0  0  0
  -12.6694  -22.2708   31.2636 O   0  0  0  0  0  0  0  0  0  0  0  0
  -10.2901  -24.6602   30.4550 C   0  0  0  0  0  0  0  0  0  0  0  0
   -9.9485  -26.1929   30.4505 C   0  0  0  0  0  0  0  0  0  0  0  0
   -8.9899  -26.3790   31.4494 O   0  0  0  0  0  0  0  0  0  0  0  0
  -13.5834  -25.5166   28.0952 H   0  0  0  0  0  0  0  0  0  0  0  0
  -12.8773  -24.3936   26.9054 H   0  0  0  0  0  0  0  0  0  0  0  0
  -12.6310  -26.1511   26.7701 H   0  0  0  0  0  0  0  0  0  0  0  0
  -10.9812  -22.9507   28.0640 H   0  0  0  0  0  0  0  0  0  0  0  0
  -11.1400  -22.1697   29.5691 H   0  0  0  0  0  0  0  0  0  0  0  0
  -12.5784  -22.7049   28.7134 H   0  0  0  0  0  0  0  0  0  0  0  0
  -12.6577  -25.9216   30.4049 H   0  0  0  0  0  0  0  0  0  0  0  0
  -13.5170  -24.3723   30.4601 H   0  0  0  0  0  0  0  0  0  0  0  0
  -13.0628  -24.0758   32.6901 H   0  0  0  0  0  0  0  0  0  0  0  0
  -12.9109  -25.6494   32.8552 H   0  0  0  0  0  0  0  0  0  0  0  0
  -10.9229  -26.0085   32.2700 H   0  0  0  0  0  0  0  0  0  0  0  0
  -10.9104  -25.0700   34.8744 H   0  0  0  0  0  0  0  0  0  0  0  0
  -10.6645  -26.6037   34.1726 H   0  0  0  0  0  0  0  0  0  0  0  0
   -8.7218  -24.5513   33.5887 H   0  0  0  0  0  0  0  0  0  0  0  0
   -8.1940  -26.0853   33.4437 H   0  0  0  0  0  0  0  0  0  0  0  0
   -5.9817  -26.2984   35.8299 H   0  0  0  0  0  0  0  0  0  0  0  0
   -5.1605  -24.0669   36.8480 H   0  0  0  0  0  0  0  0  0  0  0  0
   -6.1724  -24.1784   39.1953 H   0  0  0  0  0  0  0  0  0  0  0  0
   -8.2101  -24.0626   38.8835 H   0  0  0  0  0  0  0  0  0  0  0  0
   -9.4316  -25.0561   36.4745 H   0  0  0  0  0  0  0  0  0  0  0  0
  -13.2278  -22.3353   33.6811 H   0  0  0  0  0  0  0  0  0  0  0  0
  -11.9288  -21.2964   34.2063 H   0  0  0  0  0  0  0  0  0  0  0  0
  -11.7445  -23.0864   34.3204 H   0  0  0  0  0  0  0  0  0  0  0  0
   -9.3694  -24.3712   30.0278 H   0  0  0  0  0  0  0  0  0  0  0  0
  -10.7896  -26.8755   30.5909 H   0  0  0  0  0  0  0  0  0  0  0  0
   -9.4941  -26.5029   29.5132 H   0  0  0  0  0  0  0  0  0  0  0  0
   -8.9516  -27.3230   31.7124 H   0  0  0  0  0  0  0  0  0  0  0  0
  1  2  1  0
  2  3  2  0
  2  4  1  0
  4  5  1  0
  4  6  1  0
  6  7  1  0
  7  8  1  0
  8  9  1  0
  9 10  1  0
 10 11  1  0
 11 12  2  0
 12 13  1  0
 13 14  2  0
 14 15  1  0
 15 16  2  0
  8 17  1  0
 17 18  1  0
 18 19  1  0
 18 20  2  0
 18 21  2  0
 17 22  1  0
 22 23  1  0
 23 24  1  0
 22  4  1  0
 16 11  1  0
  1 25  1  0
  1 26  1  0
  1 27  1  0
  5 28  1  0
  5 29  1  0
  5 30  1  0
  6 31  1  0
  6 32  1  0
  7 33  1  0
  7 34  1  0
  8 35  1  0
  9 36  1  0
  9 37  1  0
 10 38  1  0
 10 39  1  0
 12 40  1  0
 13 41  1  0
 14 42  1  0
 15 43  1  0
 16 44  1  0
 19 45  1  0
 19 46  1  0
 19 47  1  0
 22 48  1  0
 23 49  1  0
 23 50  1  0
 24 51  1  0
M  END
>  <Energy>  (845) 
429.8710568453335

>  <compound_id>  (845) 
1127

>  <target_id>  (845) 
1

>  <reference_id>  (845) 
82

>  <inspiration_ids>  (845) 
[82, 16]

>  <energy_score>  (845) 
326.61040441112937

>  <distance_score>  (845) 
1.8778147852184126

>  <path>  (845) 
/opt/xchem-fragalysis-2/maxwin/BulkDock/SCRATCH/505733/C1127-P82/C1127-P82.minimised.mol

>  <scratch_subdir>  (845) 
/opt/xchem-fragalysis-2/maxwin/BulkDock/SCRATCH/505733/C1127-P82

>  <fragmenstein_runtime>  (845) 
14.68086314201355

>  <fragmenstein_outcome>  (845) 
too moved

>  <fragmenstein_mode>  (845) 
expansion

>  <fragmenstein_error>  (845) 


$$$$
C1127-P16
     RDKit          3D

 51 52  0  0  0  0  0  0  0  0999 V2000
  -15.1626  -29.7897   26.3320 C   0  0  0  0  0  0  0  0  0  0  0  0
  -14.3193  -28.6764   25.7732 C   0  0  0  0  0  0  0  0  0  0  0  0
  -14.0636  -28.6548   24.5658 O   0  0  0  0  0  0  0  0  0  0  0  0
  -13.8539  -27.5682   26.7199 C   0  0  0  0  0  0  0  0  0  0  0  0
  -15.0329  -26.5732   26.7496 C   0  0  0  0  0  0  0  0  0  0  0  0
  -13.5979  -28.0932   28.1359 C   0  0  0  0  0  0  0  0  0  0  0  0
  -12.4281  -27.4205   28.8441 C   0  0  0  0  0  0  0  0  0  0  0  0
  -12.0513  -25.9892   28.4559 C   0  0  0  0  0  0  0  0  0  0  0  0
  -10.6081  -25.6793   28.9308 C   0  0  0  0  0  0  0  0  0  0  0  0
  -10.3423  -25.7269   30.4325 C   0  0  0  0  0  0  0  0  0  0  0  0
  -11.1393  -24.8114   31.3137 C   0  0  0  0  0  0  0  0  0  0  0  0
  -11.2637  -25.1587   32.6499 C   0  0  0  0  0  0  0  0  0  0  0  0
  -12.0230  -24.3698   33.4998 C   0  0  0  0  0  0  0  0  0  0  0  0
  -12.6430  -23.2080   33.0649 C   0  0  0  0  0  0  0  0  0  0  0  0
  -12.4626  -22.8107   31.7562 C   0  0  0  0  0  0  0  0  0  0  0  0
  -11.6973  -23.5998   30.9016 C   0  0  0  0  0  0  0  0  0  0  0  0
  -12.0678  -25.8084   26.9854 N   0  0  0  0  0  0  0  0  0  0  0  0
  -12.2212  -24.3038   26.2488 S   0  0  0  0  0  0  0  0  0  0  0  0
  -11.9456  -23.0353   27.4589 C   0  0  0  0  0  0  0  0  0  0  0  0
  -13.5974  -24.1899   25.8314 O   0  0  0  0  0  0  0  0  0  0  0  0
  -11.1619  -24.2649   25.2672 O   0  0  0  0  0  0  0  0  0  0  0  0
  -12.5771  -26.9416   26.1202 C   0  0  0  0  0  0  0  0  0  0  0  0
  -11.4180  -27.9140   25.7653 C   0  0  0  0  0  0  0  0  0  0  0  0
  -11.4855  -29.1668   26.4393 O   0  0  0  0  0  0  0  0  0  0  0  0
  -15.8918  -29.4069   27.0492 H   0  0  0  0  0  0  0  0  0  0  0  0
  -15.7182  -30.2629   25.5164 H   0  0  0  0  0  0  0  0  0  0  0  0
  -14.5263  -30.5435   26.8007 H   0  0  0  0  0  0  0  0  0  0  0  0
  -14.8289  -25.7151   27.3927 H   0  0  0  0  0  0  0  0  0  0  0  0
  -15.9483  -27.0434   27.1280 H   0  0  0  0  0  0  0  0  0  0  0  0
  -15.2680  -26.2053   25.7442 H   0  0  0  0  0  0  0  0  0  0  0  0
  -13.3658  -29.1661   28.1224 H   0  0  0  0  0  0  0  0  0  0  0  0
  -14.5215  -28.0591   28.7170 H   0  0  0  0  0  0  0  0  0  0  0  0
  -11.6002  -28.0507   28.5941 H   0  0  0  0  0  0  0  0  0  0  0  0
  -12.4973  -27.5436   29.9243 H   0  0  0  0  0  0  0  0  0  0  0  0
  -12.7751  -25.3033   28.9005 H   0  0  0  0  0  0  0  0  0  0  0  0
   -9.9202  -26.3814   28.4459 H   0  0  0  0  0  0  0  0  0  0  0  0
  -10.2685  -24.7135   28.5663 H   0  0  0  0  0  0  0  0  0  0  0  0
   -9.2968  -25.4545   30.6010 H   0  0  0  0  0  0  0  0  0  0  0  0
  -10.4566  -26.7615   30.7771 H   0  0  0  0  0  0  0  0  0  0  0  0
  -10.7919  -26.0594   33.0368 H   0  0  0  0  0  0  0  0  0  0  0  0
  -12.1232  -24.6827   34.5213 H   0  0  0  0  0  0  0  0  0  0  0  0
  -13.2449  -22.6223   33.7516 H   0  0  0  0  0  0  0  0  0  0  0  0
  -12.9131  -21.8945   31.4006 H   0  0  0  0  0  0  0  0  0  0  0  0
  -11.5219  -23.2293   29.9093 H   0  0  0  0  0  0  0  0  0  0  0  0
  -12.0407  -22.0816   26.9444 H   0  0  0  0  0  0  0  0  0  0  0  0
  -12.7177  -23.1019   28.2213 H   0  0  0  0  0  0  0  0  0  0  0  0
  -10.9332  -23.0741   27.8408 H   0  0  0  0  0  0  0  0  0  0  0  0
  -12.8506  -26.5068   25.1493 H   0  0  0  0  0  0  0  0  0  0  0  0
  -11.4396  -28.1280   24.6910 H   0  0  0  0  0  0  0  0  0  0  0  0
  -10.4487  -27.4689   25.9936 H   0  0  0  0  0  0  0  0  0  0  0  0
  -10.7584  -29.7116   26.0853 H   0  0  0  0  0  0  0  0  0  0  0  0
  1  2  1  0
  2  3  2  0
  2  4  1  0
  4  5  1  0
  4  6  1  0
  6  7  1  0
  7  8  1  0
  8  9  1  0
  9 10  1  0
 10 11  1  0
 11 12  2  0
 12 13  1  0
 13 14  2  0
 14 15  1  0
 15 16  2  0
  8 17  1  0
 17 18  1  0
 18 19  1  0
 18 20  2  0
 18 21  2  0
 17 22  1  0
 22 23  1  0
 23 24  1  0
 22  4  1  0
 16 11  1  0
  1 25  1  0
  1 26  1  0
  1 27  1  0
  5 28  1  0
  5 29  1  0
  5 30  1  0
  6 31  1  0
  6 32  1  0
  7 33  1  0
  7 34  1  0
  8 35  1  0
  9 36  1  0
  9 37  1  0
 10 38  1  0
 10 39  1  0
 12 40  1  0
 13 41  1  0
 14 42  1  0
 15 43  1  0
 16 44  1  0
 19 45  1  0
 19 46  1  0
 19 47  1  0
 22 48  1  0
 23 49  1  0
 23 50  1  0
 24 51  1  0
M  END
>  <Energy>  (846) 
31.069984468891445

>  <compound_id>  (846) 
1127

>  <target_id>  (846) 
1

>  <reference_id>  (846) 
16

>  <inspiration_ids>  (846) 
[82, 16]

>  <energy_score>  (846) 
-72.19066796531052

>  <distance_score>  (846) 
5.86205690925769

>  <path>  (846) 
/opt/xchem-fragalysis-2/maxwin/BulkDock/SCRATCH/505733/C1127-P16/C1127-P16.minimised.mol

>  <scratch_subdir>  (846) 
/opt/xchem-fragalysis-2/maxwin/BulkDock/SCRATCH/505733/C1127-P16

>  <fragmenstein_runtime>  (846) 
17.096988677978516

>  <fragmenstein_outcome>  (846) 
too moved

>  <fragmenstein_mode>  (846) 
expansion

>  <fragmenstein_error>  (846) 


$$$$
C366-P82
     RDKit          3D

 55 58  0  0  0  0  0  0  0  0999 V2000
  -10.8667  -24.9444   25.7790 C   0  0  0  0  0  0  0  0  0  0  0  0
  -11.1155  -25.7612   27.0388 C   0  0  0  0  0  0  0  0  0  0  0  0
  -10.1994  -25.8109   28.2961 C   0  0  0  0  0  0  0  0  0  0  0  0
  -10.9968  -25.9137   29.6269 C   0  0  0  0  0  0  0  0  0  0  0  0
  -11.8270  -24.6315   29.8316 C   0  0  0  0  0  0  0  0  0  0  0  0
  -12.8906  -24.6581   30.7959 N   0  0  0  0  0  0  0  0  0  0  0  0
  -13.3957  -23.7018   31.8388 C   0  0  0  0  0  0  0  0  0  0  0  0
  -14.5924  -22.7274   31.5920 C   0  0  0  0  0  0  0  0  0  0  0  0
  -14.5675  -21.7873   32.7524 C   0  0  0  0  0  0  0  0  0  0  0  0
  -15.5444  -20.8523   33.0799 C   0  0  0  0  0  0  0  0  0  0  0  0
  -15.2342  -19.8684   34.0150 C   0  0  0  0  0  0  0  0  0  0  0  0
  -13.9346  -19.7858   34.5291 C   0  0  0  0  0  0  0  0  0  0  0  0
  -12.9801  -20.7643   34.2046 C   0  0  0  0  0  0  0  0  0  0  0  0
  -13.3337  -21.8294   33.3842 C   0  0  0  0  0  0  0  0  0  0  0  0
  -12.5414  -23.0250   32.9322 C   0  0  0  0  0  0  0  0  0  0  0  0
  -12.1608  -24.0215   33.8942 N   0  0  0  0  0  0  0  0  0  0  0  0
  -11.0121  -24.6421   33.4757 C   0  0  0  0  0  0  0  0  0  0  0  0
  -10.5336  -25.6495   33.9624 O   0  0  0  0  0  0  0  0  0  0  0  0
  -10.4226  -23.8324   32.5609 N   0  0  0  0  0  0  0  0  0  0  0  0
  -11.1909  -22.7055   32.4226 C   0  0  0  0  0  0  0  0  0  0  0  0
  -10.8846  -21.6103   31.9730 O   0  0  0  0  0  0  0  0  0  0  0  0
  -12.4330  -24.2957   28.5398 N   0  0  0  0  0  0  0  0  0  0  0  0
  -11.6913  -22.8575   27.9811 S   0  0  0  0  0  0  0  0  0  0  0  0
  -11.9811  -21.6609   29.2296 C   0  0  0  0  0  0  0  0  0  0  0  0
  -10.2761  -23.0819   27.9973 O   0  0  0  0  0  0  0  0  0  0  0  0
  -12.3295  -22.5283   26.7492 O   0  0  0  0  0  0  0  0  0  0  0  0
  -12.5054  -25.3318   27.4094 C   0  0  0  0  0  0  0  0  0  0  0  0
  -13.3314  -26.6095   27.3089 C   0  0  0  0  0  0  0  0  0  0  0  0
  -13.1883  -27.2433   26.0142 O   0  0  0  0  0  0  0  0  0  0  0  0
  -10.7656  -25.6348   24.9450 H   0  0  0  0  0  0  0  0  0  0  0  0
  -11.6758  -24.3153   25.4010 H   0  0  0  0  0  0  0  0  0  0  0  0
  -10.0345  -24.2777   25.9134 H   0  0  0  0  0  0  0  0  0  0  0  0
  -11.0762  -26.8008   26.6883 H   0  0  0  0  0  0  0  0  0  0  0  0
   -9.5096  -24.9831   28.3755 H   0  0  0  0  0  0  0  0  0  0  0  0
   -9.5133  -26.6447   28.2182 H   0  0  0  0  0  0  0  0  0  0  0  0
  -11.6243  -26.8089   29.6148 H   0  0  0  0  0  0  0  0  0  0  0  0
  -10.3017  -26.0414   30.4654 H   0  0  0  0  0  0  0  0  0  0  0  0
  -11.1030  -23.8900   30.1553 H   0  0  0  0  0  0  0  0  0  0  0  0
  -13.7100  -24.7186   30.1752 H   0  0  0  0  0  0  0  0  0  0  0  0
  -13.9328  -24.4166   32.4673 H   0  0  0  0  0  0  0  0  0  0  0  0
  -15.5710  -23.2023   31.5617 H   0  0  0  0  0  0  0  0  0  0  0  0
  -14.4568  -22.1119   30.7148 H   0  0  0  0  0  0  0  0  0  0  0  0
  -16.5179  -20.8716   32.5988 H   0  0  0  0  0  0  0  0  0  0  0  0
  -15.9819  -19.1345   34.3048 H   0  0  0  0  0  0  0  0  0  0  0  0
  -13.6636  -18.9788   35.2069 H   0  0  0  0  0  0  0  0  0  0  0  0
  -11.9880  -20.6960   34.6327 H   0  0  0  0  0  0  0  0  0  0  0  0
  -12.7671  -24.5067   34.5574 H   0  0  0  0  0  0  0  0  0  0  0  0
   -9.4437  -23.9254   32.3564 H   0  0  0  0  0  0  0  0  0  0  0  0
  -12.4901  -20.8136   28.8211 H   0  0  0  0  0  0  0  0  0  0  0  0
  -12.5582  -22.0756   30.0332 H   0  0  0  0  0  0  0  0  0  0  0  0
  -11.0203  -21.3271   29.6061 H   0  0  0  0  0  0  0  0  0  0  0  0
  -13.0211  -24.7727   26.6173 H   0  0  0  0  0  0  0  0  0  0  0  0
  -14.3797  -26.3804   27.3144 H   0  0  0  0  0  0  0  0  0  0  0  0
  -13.0307  -27.3636   28.0314 H   0  0  0  0  0  0  0  0  0  0  0  0
  -13.7555  -28.0357   26.0123 H   0  0  0  0  0  0  0  0  0  0  0  0
  1  2  1  0
  2  3  1  0
  3  4  1  0
  4  5  1  0
  5  6  1  0
  6  7  1  0
  7  8  1  0
  8  9  1  0
  9 10  2  0
 10 11  1  0
 11 12  2  0
 12 13  1  0
 13 14  2  0
 14 15  1  0
 15 16  1  0
 16 17  1  0
 17 18  2  0
 17 19  1  0
 19 20  1  0
 20 21  2  0
  5 22  1  0
 22 23  1  0
 23 24  1  0
 23 25  2  0
 23 26  2  0
 22 27  1  0
 27 28  1  0
 28 29  1  0
 27  2  1  0
 15  7  1  0
 14  9  1  0
 20 15  1  0
  1 30  1  0
  1 31  1  0
  1 32  1  0
  2 33  1  0
  3 34  1  0
  3 35  1  0
  4 36  1  0
  4 37  1  0
  5 38  1  0
  6 39  1  0
  7 40  1  0
  8 41  1  0
  8 42  1  0
 10 43  1  0
 11 44  1  0
 12 45  1  0
 13 46  1  0
 16 47  1  0
 19 48  1  0
 24 49  1  0
 24 50  1  0
 24 51  1  0
 27 52  1  0
 28 53  1  0
 28 54  1  0
 29 55  1  0
M  END
>  <Energy>  (847) 
37.871140275652557

>  <compound_id>  (847) 
366

>  <target_id>  (847) 
1

>  <reference_id>  (847) 
82

>  <inspiration_ids>  (847) 
[82, 39]

>  <energy_score>  (847) 
37.709218612489934

>  <distance_score>  (847) 
2.420799088999051

>  <path>  (847) 
/opt/xchem-fragalysis-2/maxwin/BulkDock/SCRATCH/505733/C366-P82/C366-P82.minimised.mol

>  <scratch_subdir>  (847) 
/opt/xchem-fragalysis-2/maxwin/BulkDock/SCRATCH/505733/C366-P82

>  <fragmenstein_runtime>  (847) 
11.714704275131226

>  <fragmenstein_outcome>  (847) 
too moved

>  <fragmenstein_mode>  (847) 
expansion

>  <fragmenstein_error>  (847) 


$$$$
C366-P39
     RDKit          3D

 55 58  0  0  0  0  0  0  0  0999 V2000
   -9.7377  -26.5913   27.4644 C   0  0  0  0  0  0  0  0  0  0  0  0
  -11.0365  -26.9029   28.1889 C   0  0  0  0  0  0  0  0  0  0  0  0
  -10.7441  -26.8459   29.6883 C   0  0  0  0  0  0  0  0  0  0  0  0
  -10.2471  -25.4791   30.0628 C   0  0  0  0  0  0  0  0  0  0  0  0
  -11.3321  -24.5143   29.6993 C   0  0  0  0  0  0  0  0  0  0  0  0
  -12.4356  -24.8767   30.4974 N   0  0  0  0  0  0  0  0  0  0  0  0
  -12.9523  -23.8894   31.4172 C   0  0  0  0  0  0  0  0  0  0  0  0
  -13.5434  -22.6333   30.8113 C   0  0  0  0  0  0  0  0  0  0  0  0
  -14.1608  -22.0155   32.0181 C   0  0  0  0  0  0  0  0  0  0  0  0
  -15.3519  -21.2930   32.0526 C   0  0  0  0  0  0  0  0  0  0  0  0
  -16.0017  -21.1358   33.2639 C   0  0  0  0  0  0  0  0  0  0  0  0
  -15.4867  -21.7783   34.3820 C   0  0  0  0  0  0  0  0  0  0  0  0
  -14.2821  -22.4949   34.3022 C   0  0  0  0  0  0  0  0  0  0  0  0
  -13.5484  -22.5327   33.1475 C   0  0  0  0  0  0  0  0  0  0  0  0
  -12.4116  -23.4418   32.7649 C   0  0  0  0  0  0  0  0  0  0  0  0
  -12.1352  -24.5318   33.6273 N   0  0  0  0  0  0  0  0  0  0  0  0
  -10.8179  -24.8281   33.5990 C   0  0  0  0  0  0  0  0  0  0  0  0
  -10.3154  -25.6609   34.3246 O   0  0  0  0  0  0  0  0  0  0  0  0
  -10.1713  -23.9159   32.8327 N   0  0  0  0  0  0  0  0  0  0  0  0
  -11.0420  -22.9165   32.4901 C   0  0  0  0  0  0  0  0  0  0  0  0
  -10.7578  -21.8607   31.9425 O   0  0  0  0  0  0  0  0  0  0  0  0
  -11.5603  -24.5877   28.2724 N   0  0  0  0  0  0  0  0  0  0  0  0
  -11.8628  -23.2249   27.4612 S   0  0  0  0  0  0  0  0  0  0  0  0
  -10.7195  -22.0778   28.1120 C   0  0  0  0  0  0  0  0  0  0  0  0
  -11.6763  -23.4863   26.0579 O   0  0  0  0  0  0  0  0  0  0  0  0
  -13.1227  -22.9159   28.0504 O   0  0  0  0  0  0  0  0  0  0  0  0
  -11.9429  -25.8427   27.6156 C   0  0  0  0  0  0  0  0  0  0  0  0
  -13.4227  -26.1907   27.4694 C   0  0  0  0  0  0  0  0  0  0  0  0
  -14.3066  -25.3375   28.1711 O   0  0  0  0  0  0  0  0  0  0  0  0
   -9.7911  -27.0565   26.4747 H   0  0  0  0  0  0  0  0  0  0  0  0
   -9.6098  -25.5138   27.3405 H   0  0  0  0  0  0  0  0  0  0  0  0
   -8.8377  -26.9044   27.9910 H   0  0  0  0  0  0  0  0  0  0  0  0
  -11.4502  -27.8790   27.9299 H   0  0  0  0  0  0  0  0  0  0  0  0
  -11.6230  -27.1642   30.2606 H   0  0  0  0  0  0  0  0  0  0  0  0
   -9.9329  -27.4852   30.0095 H   0  0  0  0  0  0  0  0  0  0  0  0
  -10.0058  -25.4962   31.1230 H   0  0  0  0  0  0  0  0  0  0  0  0
   -9.3093  -25.2216   29.5616 H   0  0  0  0  0  0  0  0  0  0  0  0
  -11.0052  -23.5323   29.9850 H   0  0  0  0  0  0  0  0  0  0  0  0
  -13.2078  -25.2199   29.9269 H   0  0  0  0  0  0  0  0  0  0  0  0
  -13.7495  -24.4536   31.8349 H   0  0  0  0  0  0  0  0  0  0  0  0
  -14.3120  -22.9331   30.1150 H   0  0  0  0  0  0  0  0  0  0  0  0
  -12.8039  -21.9738   30.3623 H   0  0  0  0  0  0  0  0  0  0  0  0
  -15.8389  -20.9775   31.1409 H   0  0  0  0  0  0  0  0  0  0  0  0
  -16.9609  -20.6298   33.3143 H   0  0  0  0  0  0  0  0  0  0  0  0
  -16.0634  -21.7850   35.3023 H   0  0  0  0  0  0  0  0  0  0  0  0
  -13.9640  -23.1247   35.1130 H   0  0  0  0  0  0  0  0  0  0  0  0
  -12.7109  -24.8449   34.4041 H   0  0  0  0  0  0  0  0  0  0  0  0
   -9.1696  -23.8380   32.8376 H   0  0  0  0  0  0  0  0  0  0  0  0
   -9.7368  -22.5446   28.1084 H   0  0  0  0  0  0  0  0  0  0  0  0
  -10.7671  -21.2449   27.4433 H   0  0  0  0  0  0  0  0  0  0  0  0
  -11.0150  -21.7218   29.0959 H   0  0  0  0  0  0  0  0  0  0  0  0
  -11.6531  -25.7704   26.5553 H   0  0  0  0  0  0  0  0  0  0  0  0
  -13.7117  -26.1262   26.4136 H   0  0  0  0  0  0  0  0  0  0  0  0
  -13.6230  -27.2221   27.7745 H   0  0  0  0  0  0  0  0  0  0  0  0
  -13.8842  -24.4538   28.2014 H   0  0  0  0  0  0  0  0  0  0  0  0
  1  2  1  0
  2  3  1  0
  3  4  1  0
  4  5  1  0
  5  6  1  0
  6  7  1  0
  7  8  1  0
  8  9  1  0
  9 10  2  0
 10 11  1  0
 11 12  2  0
 12 13  1  0
 13 14  2  0
 14 15  1  0
 15 16  1  0
 16 17  1  0
 17 18  2  0
 17 19  1  0
 19 20  1  0
 20 21  2  0
  5 22  1  0
 22 23  1  0
 23 24  1  0
 23 25  2  0
 23 26  2  0
 22 27  1  0
 27 28  1  0
 28 29  1  0
 27  2  1  0
 15  7  1  0
 14  9  1  0
 20 15  1  0
  1 30  1  0
  1 31  1  0
  1 32  1  0
  2 33  1  0
  3 34  1  0
  3 35  1  0
  4 36  1  0
  4 37  1  0
  5 38  1  0
  6 39  1  0
  7 40  1  0
  8 41  1  0
  8 42  1  0
 10 43  1  0
 11 44  1  0
 12 45  1  0
 13 46  1  0
 16 47  1  0
 19 48  1  0
 24 49  1  0
 24 50  1  0
 24 51  1  0
 27 52  1  0
 28 53  1  0
 28 54  1  0
 29 55  1  0
M  END
>  <Energy>  (848) 
-0.94952664097786332

>  <compound_id>  (848) 
366

>  <target_id>  (848) 
1

>  <reference_id>  (848) 
39

>  <inspiration_ids>  (848) 
[82, 39]

>  <energy_score>  (848) 
-22.483945464345993

>  <distance_score>  (848) 
2.1623436352162315

>  <path>  (848) 
/opt/xchem-fragalysis-2/maxwin/BulkDock/SCRATCH/505733/C366-P39/C366-P39.minimised.mol

>  <scratch_subdir>  (848) 
/opt/xchem-fragalysis-2/maxwin/BulkDock/SCRATCH/505733/C366-P39

>  <fragmenstein_runtime>  (848) 
5.701138496398926

>  <fragmenstein_outcome>  (848) 
too moved

>  <fragmenstein_mode>  (848) 
expansion

>  <fragmenstein_error>  (848) 


$$$$
C484-P82
     RDKit          3D

 67 69  0  0  0  0  0  0  0  0999 V2000
  -17.6999  -21.7927   32.1507 C   0  0  0  0  0  0  0  0  0  0  0  0
  -16.3645  -21.7194   31.4219 C   0  0  0  0  0  0  0  0  0  0  0  0
  -15.2740  -22.4513   32.1967 C   0  0  0  0  0  0  0  0  0  0  0  0
  -13.7860  -22.2734   31.6746 C   0  0  0  0  0  0  0  0  0  0  0  0
  -12.9294  -22.0529   32.5556 N   0  0  0  0  0  0  0  0  0  0  0  0
  -13.0347  -23.1809   33.5950 C   0  0  0  0  0  0  0  0  0  0  0  0
  -13.0394  -24.6654   33.0598 C   0  0  0  0  0  0  0  0  0  0  0  0
  -11.7954  -25.5506   32.8386 N   0  0  0  0  0  0  0  0  0  0  0  0
  -11.1916  -26.1952   31.5294 S   0  0  0  0  0  0  0  0  0  0  0  0
  -10.5643  -27.8056   31.5605 C   0  0  0  0  0  0  0  0  0  0  0  0
  -11.8626  -26.2704   30.2420 O   0  0  0  0  0  0  0  0  0  0  0  0
   -9.7018  -25.4250   31.3641 N   0  0  0  0  0  0  0  0  0  0  0  0
   -9.5303  -25.0648   30.0005 C   0  0  0  0  0  0  0  0  0  0  0  0
  -10.6366  -24.0870   29.8234 C   0  0  0  0  0  0  0  0  0  0  0  0
  -11.2612  -23.5438   31.0736 C   0  0  0  0  0  0  0  0  0  0  0  0
  -10.4561  -23.2634   32.3207 C   0  0  0  0  0  0  0  0  0  0  0  0
  -10.4223  -21.5696   32.2462 C   0  0  0  0  0  0  0  0  0  0  0  0
   -9.4132  -24.4249   32.4128 C   0  0  0  0  0  0  0  0  0  0  0  0
   -9.1597  -25.3727   33.6327 C   0  0  0  0  0  0  0  0  0  0  0  0
  -10.1652  -25.9572   34.4330 O   0  0  0  0  0  0  0  0  0  0  0  0
  -13.6817  -22.3031   30.2403 N   0  0  0  0  0  0  0  0  0  0  0  0
  -12.4299  -21.9541   29.2192 C   0  0  0  0  0  0  0  0  0  0  0  0
  -12.2030  -22.9185   27.8015 C   0  0  0  0  0  0  0  0  0  0  0  0
  -11.1510  -23.6594   27.4191 N   0  0  0  0  0  0  0  0  0  0  0  0
  -11.6857  -24.7508   26.7664 C   0  0  0  0  0  0  0  0  0  0  0  0
  -11.2264  -26.0561   26.5767 C   0  0  0  0  0  0  0  0  0  0  0  0
  -12.0423  -26.9685   25.8911 C   0  0  0  0  0  0  0  0  0  0  0  0
  -13.2821  -26.5770   25.3797 C   0  0  0  0  0  0  0  0  0  0  0  0
  -13.7464  -25.2689   25.5401 C   0  0  0  0  0  0  0  0  0  0  0  0
  -12.9279  -24.4256   26.2889 C   0  0  0  0  0  0  0  0  0  0  0  0
  -13.0589  -23.1512   26.7515 N   0  0  0  0  0  0  0  0  0  0  0  0
  -18.0189  -22.8322   32.2773 H   0  0  0  0  0  0  0  0  0  0  0  0
  -18.4739  -21.2669   31.5846 H   0  0  0  0  0  0  0  0  0  0  0  0
  -17.6343  -21.3299   33.1407 H   0  0  0  0  0  0  0  0  0  0  0  0
  -16.4984  -22.1481   30.4273 H   0  0  0  0  0  0  0  0  0  0  0  0
  -16.0802  -20.6697   31.3048 H   0  0  0  0  0  0  0  0  0  0  0  0
  -15.5174  -23.5052   32.3050 H   0  0  0  0  0  0  0  0  0  0  0  0
  -15.3197  -22.0096   33.2006 H   0  0  0  0  0  0  0  0  0  0  0  0
  -13.9750  -23.0566   34.1344 H   0  0  0  0  0  0  0  0  0  0  0  0
  -12.2481  -23.0412   34.3312 H   0  0  0  0  0  0  0  0  0  0  0  0
  -13.5636  -25.1708   33.8756 H   0  0  0  0  0  0  0  0  0  0  0  0
  -13.6448  -24.6565   32.1697 H   0  0  0  0  0  0  0  0  0  0  0  0
  -10.6567  -28.0306   32.5858 H   0  0  0  0  0  0  0  0  0  0  0  0
   -9.5628  -27.8263   31.1350 H   0  0  0  0  0  0  0  0  0  0  0  0
  -11.1765  -28.4977   30.9961 H   0  0  0  0  0  0  0  0  0  0  0  0
   -8.5284  -24.7681   29.7303 H   0  0  0  0  0  0  0  0  0  0  0  0
   -9.6739  -25.9188   29.3240 H   0  0  0  0  0  0  0  0  0  0  0  0
  -10.3786  -23.2611   29.2027 H   0  0  0  0  0  0  0  0  0  0  0  0
  -11.4440  -24.5728   29.2932 H   0  0  0  0  0  0  0  0  0  0  0  0
  -12.2028  -24.0461   31.1441 H   0  0  0  0  0  0  0  0  0  0  0  0
  -11.6207  -22.6005   30.8795 H   0  0  0  0  0  0  0  0  0  0  0  0
  -10.9161  -23.3975   33.2665 H   0  0  0  0  0  0  0  0  0  0  0  0
   -9.4085  -21.1788   32.2879 H   0  0  0  0  0  0  0  0  0  0  0  0
  -10.8267  -21.0882   31.3551 H   0  0  0  0  0  0  0  0  0  0  0  0
  -11.0354  -21.0947   33.0243 H   0  0  0  0  0  0  0  0  0  0  0  0
   -8.4442  -24.0152   32.3886 H   0  0  0  0  0  0  0  0  0  0  0  0
   -8.4165  -26.0695   33.2595 H   0  0  0  0  0  0  0  0  0  0  0  0
   -8.5867  -25.0184   34.4520 H   0  0  0  0  0  0  0  0  0  0  0  0
  -11.0144  -25.7127   33.9985 H   0  0  0  0  0  0  0  0  0  0  0  0
  -14.5565  -22.5992   29.8611 H   0  0  0  0  0  0  0  0  0  0  0  0
  -12.6965  -20.9958   28.7967 H   0  0  0  0  0  0  0  0  0  0  0  0
  -11.4660  -21.5908   29.5755 H   0  0  0  0  0  0  0  0  0  0  0  0
  -10.2870  -26.3627   27.0158 H   0  0  0  0  0  0  0  0  0  0  0  0
  -11.7055  -27.9958   25.7710 H   0  0  0  0  0  0  0  0  0  0  0  0
  -13.8958  -27.3021   24.8493 H   0  0  0  0  0  0  0  0  0  0  0  0
  -14.7080  -24.9536   25.1540 H   0  0  0  0  0  0  0  0  0  0  0  0
  -13.6521  -22.4908   26.2968 H   0  0  0  0  0  0  0  0  0  0  0  0
  1  2  1  0
  2  3  1  0
  3  4  1  0
  4  5  2  3
  5  6  1  0
  6  7  1  0
  7  8  1  0
  8  9  2  0
  9 10  1  0
  9 11  2  0
  9 12  1  0
 12 13  1  0
 13 14  1  0
 14 15  1  0
 15 16  1  0
 16 17  1  0
 16 18  1  0
 18 19  1  0
 19 20  1  0
  4 21  1  0
 21 22  1  0
 22 23  1  0
 23 24  2  0
 24 25  1  0
 25 26  2  0
 26 27  1  0
 27 28  2  0
 28 29  1  0
 29 30  2  0
 30 31  1  0
 18 12  1  0
 31 23  1  0
 30 25  1  0
  1 32  1  0
  1 33  1  0
  1 34  1  0
  2 35  1  0
  2 36  1  0
  3 37  1  0
  3 38  1  0
  6 39  1  0
  6 40  1  0
  7 41  1  0
  7 42  1  0
 10 43  1  0
 10 44  1  0
 10 45  1  0
 13 46  1  0
 13 47  1  0
 14 48  1  0
 14 49  1  0
 15 50  1  0
 15 51  1  0
 16 52  1  0
 17 53  1  0
 17 54  1  0
 17 55  1  0
 18 56  1  0
 19 57  1  0
 19 58  1  0
 20 59  1  0
 21 60  1  0
 22 61  1  0
 22 62  1  0
 26 63  1  0
 27 64  1  0
 28 65  1  0
 29 66  1  0
 31 67  1  0
M  END
>  <Energy>  (849) 
320.54965820381472

>  <compound_id>  (849) 
484

>  <target_id>  (849) 
1

>  <reference_id>  (849) 
82

>  <inspiration_ids>  (849) 
[82, 42]

>  <energy_score>  (849) 
286.24712130396426

>  <distance_score>  (849) 
2.170426867616505

>  <path>  (849) 
/opt/xchem-fragalysis-2/maxwin/BulkDock/SCRATCH/505733/C484-P82/C484-P82.minimised.mol

>  <scratch_subdir>  (849) 
/opt/xchem-fragalysis-2/maxwin/BulkDock/SCRATCH/505733/C484-P82

>  <fragmenstein_runtime>  (849) 
20.94093918800354

>  <fragmenstein_outcome>  (849) 
too moved

>  <fragmenstein_mode>  (849) 
expansion

>  <fragmenstein_error>  (849) 


$$$$
C484-P42
     RDKit          3D

 67 69  0  0  0  0  0  0  0  0999 V2000
  -16.7509  -21.0955   33.1295 C   0  0  0  0  0  0  0  0  0  0  0  0
  -15.4051  -20.6049   32.6060 C   0  0  0  0  0  0  0  0  0  0  0  0
  -14.4323  -21.7711   32.3768 C   0  0  0  0  0  0  0  0  0  0  0  0
  -12.7311  -21.4630   32.0265 C   0  0  0  0  0  0  0  0  0  0  0  0
  -12.0144  -21.0017   32.9314 N   0  0  0  0  0  0  0  0  0  0  0  0
  -12.5810  -21.2863   34.1993 C   0  0  0  0  0  0  0  0  0  0  0  0
  -12.5902  -22.8087   34.3737 C   0  0  0  0  0  0  0  0  0  0  0  0
  -12.3563  -23.7555   33.3023 N   0  0  0  0  0  0  0  0  0  0  0  0
  -11.2426  -24.0375   32.3222 S   0  0  0  0  0  0  0  0  0  0  0  0
  -11.4451  -24.3165   30.5841 C   0  0  0  0  0  0  0  0  0  0  0  0
  -10.1165  -23.1542   32.4223 O   0  0  0  0  0  0  0  0  0  0  0  0
  -10.7599  -26.0995   32.6665 N   0  0  0  0  0  0  0  0  0  0  0  0
  -10.4641  -26.7286   31.3941 C   0  0  0  0  0  0  0  0  0  0  0  0
   -9.1818  -26.0558   31.0462 C   0  0  0  0  0  0  0  0  0  0  0  0
   -8.6666  -25.0375   32.1577 C   0  0  0  0  0  0  0  0  0  0  0  0
   -9.3683  -25.0040   33.7659 C   0  0  0  0  0  0  0  0  0  0  0  0
  -10.6530  -25.1968   34.8038 C   0  0  0  0  0  0  0  0  0  0  0  0
   -9.4931  -26.3627   33.5068 C   0  0  0  0  0  0  0  0  0  0  0  0
   -8.9717  -26.7874   34.8355 C   0  0  0  0  0  0  0  0  0  0  0  0
   -9.8072  -27.8137   35.2375 O   0  0  0  0  0  0  0  0  0  0  0  0
  -12.4485  -21.7202   30.6525 N   0  0  0  0  0  0  0  0  0  0  0  0
  -11.3043  -21.4456   29.8600 C   0  0  0  0  0  0  0  0  0  0  0  0
  -11.2288  -22.2039   28.5218 C   0  0  0  0  0  0  0  0  0  0  0  0
  -10.4978  -23.2535   28.1918 N   0  0  0  0  0  0  0  0  0  0  0  0
  -11.2747  -23.9571   27.3138 C   0  0  0  0  0  0  0  0  0  0  0  0
  -11.1591  -25.2877   26.9167 C   0  0  0  0  0  0  0  0  0  0  0  0
  -12.1720  -25.8222   26.1242 C   0  0  0  0  0  0  0  0  0  0  0  0
  -13.2614  -25.0481   25.7168 C   0  0  0  0  0  0  0  0  0  0  0  0
  -13.3536  -23.6948   26.0484 C   0  0  0  0  0  0  0  0  0  0  0  0
  -12.3577  -23.2022   26.8896 C   0  0  0  0  0  0  0  0  0  0  0  0
  -12.1820  -22.0090   27.5401 N   0  0  0  0  0  0  0  0  0  0  0  0
  -17.2040  -21.8122   32.4371 H   0  0  0  0  0  0  0  0  0  0  0  0
  -17.4404  -20.2533   33.2454 H   0  0  0  0  0  0  0  0  0  0  0  0
  -16.6389  -21.5799   34.1049 H   0  0  0  0  0  0  0  0  0  0  0  0
  -15.5915  -20.1017   31.6545 H   0  0  0  0  0  0  0  0  0  0  0  0
  -15.0171  -19.8719   33.3137 H   0  0  0  0  0  0  0  0  0  0  0  0
  -14.5740  -22.4536   33.2033 H   0  0  0  0  0  0  0  0  0  0  0  0
  -14.9020  -22.2941   31.5537 H   0  0  0  0  0  0  0  0  0  0  0  0
  -13.5621  -20.8396   34.3705 H   0  0  0  0  0  0  0  0  0  0  0  0
  -12.0243  -20.7897   34.9934 H   0  0  0  0  0  0  0  0  0  0  0  0
  -12.0304  -23.0073   35.2679 H   0  0  0  0  0  0  0  0  0  0  0  0
  -13.6096  -23.1002   34.6550 H   0  0  0  0  0  0  0  0  0  0  0  0
  -10.4644  -24.3087   30.1494 H   0  0  0  0  0  0  0  0  0  0  0  0
  -12.0208  -23.6343   30.0351 H   0  0  0  0  0  0  0  0  0  0  0  0
  -11.9390  -25.2247   30.3084 H   0  0  0  0  0  0  0  0  0  0  0  0
  -11.2208  -26.7483   30.6188 H   0  0  0  0  0  0  0  0  0  0  0  0
  -10.3261  -27.8006   31.4870 H   0  0  0  0  0  0  0  0  0  0  0  0
   -8.5065  -26.9064   31.0903 H   0  0  0  0  0  0  0  0  0  0  0  0
   -9.1420  -25.6386   30.0392 H   0  0  0  0  0  0  0  0  0  0  0  0
   -8.5950  -24.0748   31.7558 H   0  0  0  0  0  0  0  0  0  0  0  0
   -7.6183  -25.3256   32.2449 H   0  0  0  0  0  0  0  0  0  0  0  0
   -8.6995  -24.6935   34.5461 H   0  0  0  0  0  0  0  0  0  0  0  0
  -11.4815  -24.5891   34.7853 H   0  0  0  0  0  0  0  0  0  0  0  0
  -11.1857  -26.1180   34.8441 H   0  0  0  0  0  0  0  0  0  0  0  0
  -10.2863  -24.9873   35.8080 H   0  0  0  0  0  0  0  0  0  0  0  0
   -8.6642  -26.7615   32.9575 H   0  0  0  0  0  0  0  0  0  0  0  0
   -7.8981  -26.9043   34.5972 H   0  0  0  0  0  0  0  0  0  0  0  0
   -8.8031  -26.1347   35.6803 H   0  0  0  0  0  0  0  0  0  0  0  0
  -10.2892  -28.0252   34.4021 H   0  0  0  0  0  0  0  0  0  0  0  0
  -13.2306  -22.1647   30.2461 H   0  0  0  0  0  0  0  0  0  0  0  0
  -11.5929  -20.5058   29.4578 H   0  0  0  0  0  0  0  0  0  0  0  0
  -10.4304  -21.2783   30.4562 H   0  0  0  0  0  0  0  0  0  0  0  0
  -10.3363  -25.8967   27.2713 H   0  0  0  0  0  0  0  0  0  0  0  0
  -12.0947  -26.8566   25.8171 H   0  0  0  0  0  0  0  0  0  0  0  0
  -14.0312  -25.5074   25.0972 H   0  0  0  0  0  0  0  0  0  0  0  0
  -14.1775  -23.0895   25.6969 H   0  0  0  0  0  0  0  0  0  0  0  0
  -12.8250  -21.2345   27.5371 H   0  0  0  0  0  0  0  0  0  0  0  0
  1  2  1  0
  2  3  1  0
  3  4  1  0
  4  5  2  3
  5  6  1  0
  6  7  1  0
  7  8  1  0
  8  9  2  0
  9 10  1  0
  9 11  2  0
  9 12  1  0
 12 13  1  0
 13 14  1  0
 14 15  1  0
 15 16  1  0
 16 17  1  0
 16 18  1  0
 18 19  1  0
 19 20  1  0
  4 21  1  0
 21 22  1  0
 22 23  1  0
 23 24  2  0
 24 25  1  0
 25 26  2  0
 26 27  1  0
 27 28  2  0
 28 29  1  0
 29 30  2  0
 30 31  1  0
 18 12  1  0
 31 23  1  0
 30 25  1  0
  1 32  1  0
  1 33  1  0
  1 34  1  0
  2 35  1  0
  2 36  1  0
  3 37  1  0
  3 38  1  0
  6 39  1  0
  6 40  1  0
  7 41  1  0
  7 42  1  0
 10 43  1  0
 10 44  1  0
 10 45  1  0
 13 46  1  0
 13 47  1  0
 14 48  1  0
 14 49  1  0
 15 50  1  0
 15 51  1  0
 16 52  1  0
 17 53  1  0
 17 54  1  0
 17 55  1  0
 18 56  1  0
 19 57  1  0
 19 58  1  0
 20 59  1  0
 21 60  1  0
 22 61  1  0
 22 62  1  0
 26 63  1  0
 27 64  1  0
 28 65  1  0
 29 66  1  0
 31 67  1  0
M  END
>  <Energy>  (850) 
451.17636917501505

>  <compound_id>  (850) 
484

>  <target_id>  (850) 
1

>  <reference_id>  (850) 
42

>  <inspiration_ids>  (850) 
[82, 42]

>  <energy_score>  (850) 
416.8738322751686

>  <distance_score>  (850) 
2.596357744402857

>  <path>  (850) 
/opt/xchem-fragalysis-2/maxwin/BulkDock/SCRATCH/505733/C484-P42/C484-P42.minimised.mol

>  <scratch_subdir>  (850) 
/opt/xchem-fragalysis-2/maxwin/BulkDock/SCRATCH/505733/C484-P42

>  <fragmenstein_runtime>  (850) 
22.005481243133545

>  <fragmenstein_outcome>  (850) 
too moved

>  <fragmenstein_mode>  (850) 
expansion

>  <fragmenstein_error>  (850) 


$$$$
C625-P82
     RDKit          3D

 65 67  0  0  0  0  0  0  0  0999 V2000
  -14.2052  -27.1722   25.8065 C   0  0  0  0  0  0  0  0  0  0  0  0
  -12.9727  -26.2836   25.6122 C   0  0  0  0  0  0  0  0  0  0  0  0
  -13.3070  -24.8221   25.7935 C   0  0  0  0  0  0  0  0  0  0  0  0
  -12.0429  -23.9978   25.7468 C   0  0  0  0  0  0  0  0  0  0  0  0
  -11.2296  -24.3444   26.9631 C   0  0  0  0  0  0  0  0  0  0  0  0
  -10.8601  -25.7389   27.0668 N   0  0  0  0  0  0  0  0  0  0  0  0
   -9.8965  -26.2014   28.3977 S   0  0  0  0  0  0  0  0  0  0  0  0
   -9.3090  -24.9541   29.3738 C   0  0  0  0  0  0  0  0  0  0  0  0
   -8.7258  -26.7385   27.7945 O   0  0  0  0  0  0  0  0  0  0  0  0
  -10.8341  -26.9293   29.3069 N   0  0  0  0  0  0  0  0  0  0  0  0
  -11.9604  -26.2299   29.7668 C   0  0  0  0  0  0  0  0  0  0  0  0
  -11.8089  -25.2495   30.8911 C   0  0  0  0  0  0  0  0  0  0  0  0
  -12.7553  -24.0815   30.5785 C   0  0  0  0  0  0  0  0  0  0  0  0
  -13.6234  -23.5806   31.7182 N   0  0  0  0  0  0  0  0  0  0  0  0
  -14.6317  -22.5579   31.7558 C   0  0  0  0  0  0  0  0  0  0  0  0
  -14.9880  -21.7719   30.9065 O   0  0  0  0  0  0  0  0  0  0  0  0
  -15.3155  -22.5318   33.1432 C   0  0  0  0  0  0  0  0  0  0  0  0
  -16.6409  -23.3039   33.0804 C   0  0  0  0  0  0  0  0  0  0  0  0
  -17.4754  -23.1066   34.2334 O   0  0  0  0  0  0  0  0  0  0  0  0
  -17.4539  -21.7681   34.7321 C   0  0  0  0  0  0  0  0  0  0  0  0
  -16.8204  -20.7769   33.7648 C   0  0  0  0  0  0  0  0  0  0  0  0
  -15.4616  -21.1368   33.5188 O   0  0  0  0  0  0  0  0  0  0  0  0
  -12.3543  -23.0612   32.1528 C   0  0  0  0  0  0  0  0  0  0  0  0
  -12.0096  -21.7451   31.9125 C   0  0  0  0  0  0  0  0  0  0  0  0
  -11.8416  -20.9632   33.0142 C   0  0  0  0  0  0  0  0  0  0  0  0
  -12.0240  -21.5611   34.2181 C   0  0  0  0  0  0  0  0  0  0  0  0
  -11.9163  -22.9492   34.2607 C   0  0  0  0  0  0  0  0  0  0  0  0
  -11.9714  -23.7264   33.2196 N   0  0  0  0  0  0  0  0  0  0  0  0
  -11.7777  -26.7475   26.4745 C   0  0  0  0  0  0  0  0  0  0  0  0
  -10.9975  -27.8596   25.7366 C   0  0  0  0  0  0  0  0  0  0  0  0
  -11.1993  -27.8577   24.3287 O   0  0  0  0  0  0  0  0  0  0  0  0
  -14.5652  -27.1382   26.8362 H   0  0  0  0  0  0  0  0  0  0  0  0
  -13.9760  -28.2151   25.5635 H   0  0  0  0  0  0  0  0  0  0  0  0
  -15.0228  -26.8500   25.1528 H   0  0  0  0  0  0  0  0  0  0  0  0
  -12.7289  -26.3950   24.5660 H   0  0  0  0  0  0  0  0  0  0  0  0
  -14.0176  -24.4834   25.0318 H   0  0  0  0  0  0  0  0  0  0  0  0
  -13.7697  -24.6902   26.7654 H   0  0  0  0  0  0  0  0  0  0  0  0
  -11.4608  -24.1710   24.8385 H   0  0  0  0  0  0  0  0  0  0  0  0
  -12.2964  -22.9367   25.7702 H   0  0  0  0  0  0  0  0  0  0  0  0
  -10.3198  -23.7503   26.9747 H   0  0  0  0  0  0  0  0  0  0  0  0
  -11.7982  -24.0342   27.8436 H   0  0  0  0  0  0  0  0  0  0  0  0
   -9.1464  -25.3054   30.3933 H   0  0  0  0  0  0  0  0  0  0  0  0
  -10.0808  -24.1898   29.3389 H   0  0  0  0  0  0  0  0  0  0  0  0
   -8.3262  -24.6847   29.0145 H   0  0  0  0  0  0  0  0  0  0  0  0
  -12.5477  -25.8527   28.9297 H   0  0  0  0  0  0  0  0  0  0  0  0
  -12.4516  -27.0856   30.1264 H   0  0  0  0  0  0  0  0  0  0  0  0
  -12.0886  -25.7184   31.8325 H   0  0  0  0  0  0  0  0  0  0  0  0
  -10.8201  -24.8775   31.1228 H   0  0  0  0  0  0  0  0  0  0  0  0
  -13.4877  -24.5814   29.9879 H   0  0  0  0  0  0  0  0  0  0  0  0
  -12.3627  -23.3128   29.8920 H   0  0  0  0  0  0  0  0  0  0  0  0
  -14.6852  -22.9866   33.9092 H   0  0  0  0  0  0  0  0  0  0  0  0
  -16.4543  -24.3778   33.0135 H   0  0  0  0  0  0  0  0  0  0  0  0
  -17.2263  -23.0211   32.1972 H   0  0  0  0  0  0  0  0  0  0  0  0
  -18.4833  -21.4785   34.9636 H   0  0  0  0  0  0  0  0  0  0  0  0
  -16.8907  -21.7889   35.6712 H   0  0  0  0  0  0  0  0  0  0  0  0
  -16.8272  -19.7699   34.1928 H   0  0  0  0  0  0  0  0  0  0  0  0
  -17.3558  -20.7396   32.8094 H   0  0  0  0  0  0  0  0  0  0  0  0
  -12.0545  -21.3447   30.9137 H   0  0  0  0  0  0  0  0  0  0  0  0
  -11.6163  -19.9120   33.0076 H   0  0  0  0  0  0  0  0  0  0  0  0
  -12.0093  -20.9497   35.1095 H   0  0  0  0  0  0  0  0  0  0  0  0
  -11.7604  -23.4983   35.1768 H   0  0  0  0  0  0  0  0  0  0  0  0
  -12.2443  -27.2595   27.3217 H   0  0  0  0  0  0  0  0  0  0  0  0
   -9.9223  -27.8003   25.8790 H   0  0  0  0  0  0  0  0  0  0  0  0
  -11.3387  -28.8223   26.1294 H   0  0  0  0  0  0  0  0  0  0  0  0
  -10.8026  -28.7094   24.0161 H   0  0  0  0  0  0  0  0  0  0  0  0
  1  2  1  0
  2  3  1  0
  3  4  1  0
  4  5  1  0
  5  6  1  0
  6  7  1  0
  7  8  1  0
  7  9  2  0
  7 10  2  0
 10 11  1  0
 11 12  1  0
 12 13  1  0
 13 14  1  0
 14 15  1  0
 15 16  2  0
 15 17  1  0
 17 18  1  0
 18 19  1  0
 19 20  1  0
 20 21  1  0
 21 22  1  0
 14 23  1  0
 23 24  2  0
 24 25  1  0
 25 26  2  0
 26 27  1  0
 27 28  2  0
  6 29  1  0
 29 30  1  0
 30 31  1  0
 29  2  1  0
 22 17  1  0
 28 23  1  0
  1 32  1  0
  1 33  1  0
  1 34  1  0
  2 35  1  0
  3 36  1  0
  3 37  1  0
  4 38  1  0
  4 39  1  0
  5 40  1  0
  5 41  1  0
  8 42  1  0
  8 43  1  0
  8 44  1  0
 11 45  1  0
 11 46  1  0
 12 47  1  0
 12 48  1  0
 13 49  1  0
 13 50  1  0
 17 51  1  0
 18 52  1  0
 18 53  1  0
 20 54  1  0
 20 55  1  0
 21 56  1  0
 21 57  1  0
 24 58  1  0
 25 59  1  0
 26 60  1  0
 27 61  1  0
 29 62  1  0
 30 63  1  0
 30 64  1  0
 31 65  1  0
M  END
>  <Energy>  (851) 
176.34292394166968

>  <compound_id>  (851) 
625

>  <target_id>  (851) 
1

>  <reference_id>  (851) 
82

>  <inspiration_ids>  (851) 
[82, 45]

>  <energy_score>  (851) 
39.58421381665181

>  <distance_score>  (851) 
4.561358121470009

>  <path>  (851) 
/opt/xchem-fragalysis-2/maxwin/BulkDock/SCRATCH/505733/C625-P82/C625-P82.minimised.mol

>  <scratch_subdir>  (851) 
/opt/xchem-fragalysis-2/maxwin/BulkDock/SCRATCH/505733/C625-P82

>  <fragmenstein_runtime>  (851) 
33.79838562011719

>  <fragmenstein_outcome>  (851) 
too moved

>  <fragmenstein_mode>  (851) 
expansion

>  <fragmenstein_error>  (851) 


$$$$
C625-P45
     RDKit          3D

 65 67  0  0  0  0  0  0  0  0999 V2000
   -8.9128  -30.1978   26.6668 C   0  0  0  0  0  0  0  0  0  0  0  0
   -9.6547  -28.8721   26.6238 C   0  0  0  0  0  0  0  0  0  0  0  0
  -10.9976  -28.9187   27.3733 C   0  0  0  0  0  0  0  0  0  0  0  0
  -11.8401  -27.6948   27.0368 C   0  0  0  0  0  0  0  0  0  0  0  0
  -11.0191  -26.6452   26.3007 C   0  0  0  0  0  0  0  0  0  0  0  0
   -9.7160  -26.3913   26.9347 N   0  0  0  0  0  0  0  0  0  0  0  0
   -9.5964  -25.1063   28.0726 S   0  0  0  0  0  0  0  0  0  0  0  0
  -10.0674  -25.8354   29.6221 C   0  0  0  0  0  0  0  0  0  0  0  0
   -8.1871  -24.7976   28.1350 O   0  0  0  0  0  0  0  0  0  0  0  0
  -10.7056  -24.1700   27.5873 N   0  0  0  0  0  0  0  0  0  0  0  0
  -11.0253  -22.8747   28.2034 C   0  0  0  0  0  0  0  0  0  0  0  0
  -11.8293  -23.1203   29.4566 C   0  0  0  0  0  0  0  0  0  0  0  0
  -12.4464  -21.8483   30.0770 C   0  0  0  0  0  0  0  0  0  0  0  0
  -13.7473  -22.2984   31.0568 N   0  0  0  0  0  0  0  0  0  0  0  0
  -15.0270  -21.6358   31.3202 C   0  0  0  0  0  0  0  0  0  0  0  0
  -15.4413  -20.5412   30.9643 O   0  0  0  0  0  0  0  0  0  0  0  0
  -16.1521  -22.4571   32.0942 C   0  0  0  0  0  0  0  0  0  0  0  0
  -16.0810  -23.0206   33.5342 C   0  0  0  0  0  0  0  0  0  0  0  0
  -16.4263  -24.4030   33.7402 O   0  0  0  0  0  0  0  0  0  0  0  0
  -17.3898  -24.8753   32.8025 C   0  0  0  0  0  0  0  0  0  0  0  0
  -16.9513  -24.5734   31.3796 C   0  0  0  0  0  0  0  0  0  0  0  0
  -17.0000  -23.1670   31.1732 O   0  0  0  0  0  0  0  0  0  0  0  0
  -12.7406  -21.9686   32.1309 C   0  0  0  0  0  0  0  0  0  0  0  0
  -13.1062  -21.2493   33.2373 C   0  0  0  0  0  0  0  0  0  0  0  0
  -12.5023  -21.5924   34.4007 C   0  0  0  0  0  0  0  0  0  0  0  0
  -11.8138  -22.7989   34.4468 C   0  0  0  0  0  0  0  0  0  0  0  0
  -11.3272  -23.3621   33.3145 C   0  0  0  0  0  0  0  0  0  0  0  0
  -11.7239  -22.8889   32.1532 N   0  0  0  0  0  0  0  0  0  0  0  0
   -8.8866  -27.6196   27.1296 C   0  0  0  0  0  0  0  0  0  0  0  0
   -7.5026  -27.4756   26.4783 C   0  0  0  0  0  0  0  0  0  0  0  0
   -6.4418  -28.0050   27.2608 O   0  0  0  0  0  0  0  0  0  0  0  0
   -9.4754  -30.9807   27.1816 H   0  0  0  0  0  0  0  0  0  0  0  0
   -8.7486  -30.5591   25.6444 H   0  0  0  0  0  0  0  0  0  0  0  0
   -7.9292  -30.1003   27.1176 H   0  0  0  0  0  0  0  0  0  0  0  0
   -9.8435  -28.7243   25.5563 H   0  0  0  0  0  0  0  0  0  0  0  0
  -11.5561  -29.8405   27.1912 H   0  0  0  0  0  0  0  0  0  0  0  0
  -10.8397  -28.9032   28.4513 H   0  0  0  0  0  0  0  0  0  0  0  0
  -12.2753  -27.2781   27.9520 H   0  0  0  0  0  0  0  0  0  0  0  0
  -12.6857  -27.9913   26.4049 H   0  0  0  0  0  0  0  0  0  0  0  0
  -10.8808  -26.9702   25.2658 H   0  0  0  0  0  0  0  0  0  0  0  0
  -11.6320  -25.7480   26.1734 H   0  0  0  0  0  0  0  0  0  0  0  0
   -9.5472  -26.7746   29.7841 H   0  0  0  0  0  0  0  0  0  0  0  0
  -11.1360  -26.0365   29.5807 H   0  0  0  0  0  0  0  0  0  0  0  0
   -9.8052  -25.1598   30.4355 H   0  0  0  0  0  0  0  0  0  0  0  0
  -11.6189  -22.3041   27.4850 H   0  0  0  0  0  0  0  0  0  0  0  0
  -10.1258  -22.3012   28.4193 H   0  0  0  0  0  0  0  0  0  0  0  0
  -11.1626  -23.5852   30.1746 H   0  0  0  0  0  0  0  0  0  0  0  0
  -12.5855  -23.8783   29.2678 H   0  0  0  0  0  0  0  0  0  0  0  0
  -12.8264  -21.2272   29.2794 H   0  0  0  0  0  0  0  0  0  0  0  0
  -11.6621  -21.2042   30.5089 H   0  0  0  0  0  0  0  0  0  0  0  0
  -16.8128  -21.5978   32.3109 H   0  0  0  0  0  0  0  0  0  0  0  0
  -16.8053  -22.4673   34.1486 H   0  0  0  0  0  0  0  0  0  0  0  0
  -15.1243  -22.8281   34.0183 H   0  0  0  0  0  0  0  0  0  0  0  0
  -17.4932  -25.9545   32.9484 H   0  0  0  0  0  0  0  0  0  0  0  0
  -18.3517  -24.4016   33.0292 H   0  0  0  0  0  0  0  0  0  0  0  0
  -17.6448  -25.0332   30.6691 H   0  0  0  0  0  0  0  0  0  0  0  0
  -15.9485  -24.9445   31.1598 H   0  0  0  0  0  0  0  0  0  0  0  0
  -13.9324  -20.5583   33.2825 H   0  0  0  0  0  0  0  0  0  0  0  0
  -12.7188  -21.0054   35.2801 H   0  0  0  0  0  0  0  0  0  0  0  0
  -11.5972  -23.3032   35.3716 H   0  0  0  0  0  0  0  0  0  0  0  0
  -10.6898  -24.2363   33.3120 H   0  0  0  0  0  0  0  0  0  0  0  0
   -8.7224  -27.7691   28.1978 H   0  0  0  0  0  0  0  0  0  0  0  0
   -7.2611  -26.4274   26.2942 H   0  0  0  0  0  0  0  0  0  0  0  0
   -7.4868  -28.0496   25.5595 H   0  0  0  0  0  0  0  0  0  0  0  0
   -5.6294  -27.8188   26.7489 H   0  0  0  0  0  0  0  0  0  0  0  0
  1  2  1  0
  2  3  1  0
  3  4  1  0
  4  5  1  0
  5  6  1  0
  6  7  1  0
  7  8  1  0
  7  9  2  0
  7 10  2  0
 10 11  1  0
 11 12  1  0
 12 13  1  0
 13 14  1  0
 14 15  1  0
 15 16  2  0
 15 17  1  0
 17 18  1  0
 18 19  1  0
 19 20  1  0
 20 21  1  0
 21 22  1  0
 14 23  1  0
 23 24  2  0
 24 25  1  0
 25 26  2  0
 26 27  1  0
 27 28  2  0
  6 29  1  0
 29 30  1  0
 30 31  1  0
 29  2  1  0
 22 17  1  0
 28 23  1  0
  1 32  1  0
  1 33  1  0
  1 34  1  0
  2 35  1  0
  3 36  1  0
  3 37  1  0
  4 38  1  0
  4 39  1  0
  5 40  1  0
  5 41  1  0
  8 42  1  0
  8 43  1  0
  8 44  1  0
 11 45  1  0
 11 46  1  0
 12 47  1  0
 12 48  1  0
 13 49  1  0
 13 50  1  0
 17 51  1  0
 18 52  1  0
 18 53  1  0
 20 54  1  0
 20 55  1  0
 21 56  1  0
 21 57  1  0
 24 58  1  0
 25 59  1  0
 26 60  1  0
 27 61  1  0
 29 62  1  0
 30 63  1  0
 30 64  1  0
 31 65  1  0
M  END
>  <Energy>  (852) 
144.50222168087882

>  <compound_id>  (852) 
625

>  <target_id>  (852) 
1

>  <reference_id>  (852) 
45

>  <inspiration_ids>  (852) 
[82, 45]

>  <energy_score>  (852) 
7.743511555861119

>  <distance_score>  (852) 
3.510800089510288

>  <path>  (852) 
/opt/xchem-fragalysis-2/maxwin/BulkDock/SCRATCH/505733/C625-P45/C625-P45.minimised.mol

>  <scratch_subdir>  (852) 
/opt/xchem-fragalysis-2/maxwin/BulkDock/SCRATCH/505733/C625-P45

>  <fragmenstein_runtime>  (852) 
23.649779081344604

>  <fragmenstein_outcome>  (852) 
too moved

>  <fragmenstein_mode>  (852) 
expansion

>  <fragmenstein_error>  (852) 


$$$$
C657-P82
     RDKit          3D

 50 51  0  0  0  0  0  0  0  0999 V2000
  -12.8256  -23.7853   27.8870 C   0  0  0  0  0  0  0  0  0  0  0  0
  -12.2392  -23.4982   29.2654 C   0  0  0  0  0  0  0  0  0  0  0  0
  -11.3024  -22.3693   28.8742 C   0  0  0  0  0  0  0  0  0  0  0  0
  -11.2796  -21.2898   29.9078 C   0  0  0  0  0  0  0  0  0  0  0  0
  -11.3185  -21.5942   31.4187 C   0  0  0  0  0  0  0  0  0  0  0  0
  -11.6208  -22.9873   31.5286 N   0  0  0  0  0  0  0  0  0  0  0  0
  -10.5775  -24.2084   32.1143 S   0  0  0  0  0  0  0  0  0  0  0  0
  -11.4216  -24.9676   33.4507 C   0  0  0  0  0  0  0  0  0  0  0  0
   -9.5130  -23.4936   32.7627 O   0  0  0  0  0  0  0  0  0  0  0  0
  -10.2081  -25.1490   30.9635 N   0  0  0  0  0  0  0  0  0  0  0  0
  -10.9892  -26.3405   30.8599 C   0  0  0  0  0  0  0  0  0  0  0  0
  -12.2567  -25.8829   30.8550 F   0  0  0  0  0  0  0  0  0  0  0  0
  -10.9578  -27.3025   29.8000 O   0  0  0  0  0  0  0  0  0  0  0  0
  -11.2211  -26.8544   28.5460 C   0  0  0  0  0  0  0  0  0  0  0  0
  -10.3994  -25.8449   28.0770 C   0  0  0  0  0  0  0  0  0  0  0  0
  -10.6134  -25.3261   26.8255 C   0  0  0  0  0  0  0  0  0  0  0  0
  -11.5243  -25.8986   25.9583 C   0  0  0  0  0  0  0  0  0  0  0  0
  -12.2163  -27.0266   26.3254 C   0  0  0  0  0  0  0  0  0  0  0  0
  -12.0755  -27.5073   27.6284 C   0  0  0  0  0  0  0  0  0  0  0  0
  -12.8484  -29.0695   27.9290 S   0  0  0  0  0  0  0  0  0  0  0  0
  -14.3627  -28.9490   27.1900 N   0  0  0  0  0  0  0  0  0  0  0  0
  -13.1163  -29.2137   29.3416 O   0  0  0  0  0  0  0  0  0  0  0  0
  -12.1235  -30.0514   27.1606 O   0  0  0  0  0  0  0  0  0  0  0  0
  -12.8324  -23.1373   30.6905 C   0  0  0  0  0  0  0  0  0  0  0  0
  -13.8660  -23.4800   31.7603 C   0  0  0  0  0  0  0  0  0  0  0  0
  -15.1718  -22.9500   31.5512 O   0  0  0  0  0  0  0  0  0  0  0  0
  -13.3072  -24.7623   27.8198 H   0  0  0  0  0  0  0  0  0  0  0  0
  -13.4238  -22.9717   27.5065 H   0  0  0  0  0  0  0  0  0  0  0  0
  -12.0825  -23.7300   27.1011 H   0  0  0  0  0  0  0  0  0  0  0  0
  -11.6472  -24.3676   29.4287 H   0  0  0  0  0  0  0  0  0  0  0  0
  -11.6145  -21.8650   27.9484 H   0  0  0  0  0  0  0  0  0  0  0  0
  -10.3495  -22.7765   28.5773 H   0  0  0  0  0  0  0  0  0  0  0  0
  -10.4345  -20.6926   29.6950 H   0  0  0  0  0  0  0  0  0  0  0  0
  -12.1450  -20.7239   29.5981 H   0  0  0  0  0  0  0  0  0  0  0  0
  -10.4351  -21.2448   31.9549 H   0  0  0  0  0  0  0  0  0  0  0  0
  -12.1082  -21.0477   31.9351 H   0  0  0  0  0  0  0  0  0  0  0  0
  -11.6849  -24.1893   34.1683 H   0  0  0  0  0  0  0  0  0  0  0  0
  -12.3329  -25.4225   33.1011 H   0  0  0  0  0  0  0  0  0  0  0  0
  -10.7603  -25.6975   33.9194 H   0  0  0  0  0  0  0  0  0  0  0  0
  -10.7933  -26.9239   31.7638 H   0  0  0  0  0  0  0  0  0  0  0  0
   -9.6225  -25.4030   28.6927 H   0  0  0  0  0  0  0  0  0  0  0  0
  -10.1004  -24.4126   26.5395 H   0  0  0  0  0  0  0  0  0  0  0  0
  -11.6754  -25.4379   25.0012 H   0  0  0  0  0  0  0  0  0  0  0  0
  -12.8245  -27.5260   25.5767 H   0  0  0  0  0  0  0  0  0  0  0  0
  -14.4341  -29.7047   26.5000 H   0  0  0  0  0  0  0  0  0  0  0  0
  -14.5635  -28.0513   26.7585 H   0  0  0  0  0  0  0  0  0  0  0  0
  -13.2970  -22.1746   30.4465 H   0  0  0  0  0  0  0  0  0  0  0  0
  -13.5939  -22.9798   32.7022 H   0  0  0  0  0  0  0  0  0  0  0  0
  -13.8625  -24.5099   32.0442 H   0  0  0  0  0  0  0  0  0  0  0  0
  -15.6625  -23.7552   31.2694 H   0  0  0  0  0  0  0  0  0  0  0  0
  1  2  1  0
  2  3  1  0
  3  4  1  0
  4  5  1  0
  5  6  1  0
  6  7  1  0
  7  8  1  0
  7  9  2  0
  7 10  2  0
 10 11  1  0
 11 12  1  0
 11 13  1  0
 13 14  1  0
 14 15  2  0
 15 16  1  0
 16 17  2  0
 17 18  1  0
 18 19  2  0
 19 20  1  0
 20 21  1  0
 20 22  2  0
 20 23  2  0
  6 24  1  0
 24 25  1  0
 25 26  1  0
 24  2  1  0
 19 14  1  0
  1 27  1  0
  1 28  1  0
  1 29  1  0
  2 30  1  0
  3 31  1  0
  3 32  1  0
  4 33  1  0
  4 34  1  0
  5 35  1  0
  5 36  1  0
  8 37  1  0
  8 38  1  0
  8 39  1  0
 11 40  1  0
 15 41  1  0
 16 42  1  0
 17 43  1  0
 18 44  1  0
 21 45  1  0
 21 46  1  0
 24 47  1  0
 25 48  1  0
 25 49  1  0
 26 50  1  0
M  END
>  <Energy>  (853) 
-31.439681166805435

>  <compound_id>  (853) 
657

>  <target_id>  (853) 
1

>  <reference_id>  (853) 
82

>  <inspiration_ids>  (853) 
[82, 46]

>  <energy_score>  (853) 
42.90891610599682

>  <distance_score>  (853) 
4.276795465994915

>  <path>  (853) 
/opt/xchem-fragalysis-2/maxwin/BulkDock/SCRATCH/505733/C657-P82/C657-P82.minimised.mol

>  <scratch_subdir>  (853) 
/opt/xchem-fragalysis-2/maxwin/BulkDock/SCRATCH/505733/C657-P82

>  <fragmenstein_runtime>  (853) 
9.323467016220093

>  <fragmenstein_outcome>  (853) 
too moved

>  <fragmenstein_mode>  (853) 
expansion

>  <fragmenstein_error>  (853) 


$$$$
C657-P46
     RDKit          3D

 50 51  0  0  0  0  0  0  0  0999 V2000
  -16.8687  -26.6215   26.1078 C   0  0  0  0  0  0  0  0  0  0  0  0
  -15.4503  -26.7892   26.6646 C   0  0  0  0  0  0  0  0  0  0  0  0
  -14.4848  -25.7411   26.0414 C   0  0  0  0  0  0  0  0  0  0  0  0
  -13.3488  -25.3713   26.9685 C   0  0  0  0  0  0  0  0  0  0  0  0
  -12.9021  -26.6084   27.7363 C   0  0  0  0  0  0  0  0  0  0  0  0
  -13.9131  -27.5639   28.2864 N   0  0  0  0  0  0  0  0  0  0  0  0
  -13.4202  -28.7954   29.3914 S   0  0  0  0  0  0  0  0  0  0  0  0
  -13.2833  -30.3271   28.5432 C   0  0  0  0  0  0  0  0  0  0  0  0
  -14.5206  -28.9554   30.3131 O   0  0  0  0  0  0  0  0  0  0  0  0
  -12.0800  -28.2129   29.8534 N   0  0  0  0  0  0  0  0  0  0  0  0
  -11.6679  -28.1264   31.2773 C   0  0  0  0  0  0  0  0  0  0  0  0
  -11.3671  -29.3910   31.6825 F   0  0  0  0  0  0  0  0  0  0  0  0
  -10.5320  -27.2917   31.5450 O   0  0  0  0  0  0  0  0  0  0  0  0
  -10.8942  -25.9920   31.7972 C   0  0  0  0  0  0  0  0  0  0  0  0
  -11.0629  -25.5373   33.1014 C   0  0  0  0  0  0  0  0  0  0  0  0
  -11.5660  -24.2615   33.3701 C   0  0  0  0  0  0  0  0  0  0  0  0
  -11.7674  -23.3578   32.3407 C   0  0  0  0  0  0  0  0  0  0  0  0
  -11.4759  -23.7505   31.0437 C   0  0  0  0  0  0  0  0  0  0  0  0
  -11.0220  -25.0572   30.7894 C   0  0  0  0  0  0  0  0  0  0  0  0
  -10.0973  -25.2509   29.3439 S   0  0  0  0  0  0  0  0  0  0  0  0
  -10.1104  -26.7723   28.7383 N   0  0  0  0  0  0  0  0  0  0  0  0
   -8.7568  -25.0451   29.7843 O   0  0  0  0  0  0  0  0  0  0  0  0
  -10.6832  -24.4314   28.3108 O   0  0  0  0  0  0  0  0  0  0  0  0
  -15.2483  -26.9086   28.2066 C   0  0  0  0  0  0  0  0  0  0  0  0
  -16.4831  -27.3739   29.0203 C   0  0  0  0  0  0  0  0  0  0  0  0
  -16.6334  -26.7314   30.2930 O   0  0  0  0  0  0  0  0  0  0  0  0
  -17.3872  -25.7426   26.4943 H   0  0  0  0  0  0  0  0  0  0  0  0
  -16.8382  -26.5295   25.0159 H   0  0  0  0  0  0  0  0  0  0  0  0
  -17.4799  -27.5027   26.3298 H   0  0  0  0  0  0  0  0  0  0  0  0
  -15.1532  -27.7636   26.2509 H   0  0  0  0  0  0  0  0  0  0  0  0
  -15.0176  -24.8395   25.7227 H   0  0  0  0  0  0  0  0  0  0  0  0
  -14.0708  -26.1703   25.1191 H   0  0  0  0  0  0  0  0  0  0  0  0
  -12.5161  -24.9595   26.3868 H   0  0  0  0  0  0  0  0  0  0  0  0
  -13.6489  -24.5813   27.6646 H   0  0  0  0  0  0  0  0  0  0  0  0
  -12.3645  -26.1921   28.5671 H   0  0  0  0  0  0  0  0  0  0  0  0
  -12.2040  -27.1681   27.1150 H   0  0  0  0  0  0  0  0  0  0  0  0
  -13.2755  -31.1202   29.2938 H   0  0  0  0  0  0  0  0  0  0  0  0
  -12.3721  -30.3664   27.9528 H   0  0  0  0  0  0  0  0  0  0  0  0
  -14.1615  -30.4549   27.9066 H   0  0  0  0  0  0  0  0  0  0  0  0
  -12.4666  -27.8268   31.9270 H   0  0  0  0  0  0  0  0  0  0  0  0
  -10.8373  -26.1829   33.9410 H   0  0  0  0  0  0  0  0  0  0  0  0
  -11.8195  -23.9850   34.3903 H   0  0  0  0  0  0  0  0  0  0  0  0
  -12.1424  -22.3614   32.5523 H   0  0  0  0  0  0  0  0  0  0  0  0
  -11.5436  -23.0164   30.2437 H   0  0  0  0  0  0  0  0  0  0  0  0
  -10.2539  -26.7759   27.7334 H   0  0  0  0  0  0  0  0  0  0  0  0
  -10.7372  -27.4291   29.2211 H   0  0  0  0  0  0  0  0  0  0  0  0
  -15.0744  -25.9381   28.6390 H   0  0  0  0  0  0  0  0  0  0  0  0
  -16.5190  -28.4594   29.1438 H   0  0  0  0  0  0  0  0  0  0  0  0
  -17.4048  -27.1144   28.4965 H   0  0  0  0  0  0  0  0  0  0  0  0
  -15.8194  -26.9248   30.7849 H   0  0  0  0  0  0  0  0  0  0  0  0
  1  2  1  0
  2  3  1  0
  3  4  1  0
  4  5  1  0
  5  6  1  0
  6  7  1  0
  7  8  1  0
  7  9  2  0
  7 10  2  0
 10 11  1  0
 11 12  1  0
 11 13  1  0
 13 14  1  0
 14 15  2  0
 15 16  1  0
 16 17  2  0
 17 18  1  0
 18 19  2  0
 19 20  1  0
 20 21  1  0
 20 22  2  0
 20 23  2  0
  6 24  1  0
 24 25  1  0
 25 26  1  0
 24  2  1  0
 19 14  1  0
  1 27  1  0
  1 28  1  0
  1 29  1  0
  2 30  1  0
  3 31  1  0
  3 32  1  0
  4 33  1  0
  4 34  1  0
  5 35  1  0
  5 36  1  0
  8 37  1  0
  8 38  1  0
  8 39  1  0
 11 40  1  0
 15 41  1  0
 16 42  1  0
 17 43  1  0
 18 44  1  0
 21 45  1  0
 21 46  1  0
 24 47  1  0
 25 48  1  0
 25 49  1  0
 26 50  1  0
M  END
>  <Energy>  (854) 
-120.6751128982438

>  <compound_id>  (854) 
657

>  <target_id>  (854) 
1

>  <reference_id>  (854) 
46

>  <inspiration_ids>  (854) 
[82, 46]

>  <energy_score>  (854) 
-25.577696932219517

>  <distance_score>  (854) 
3.823660605862754

>  <path>  (854) 
/opt/xchem-fragalysis-2/maxwin/BulkDock/SCRATCH/505733/C657-P46/C657-P46.minimised.mol

>  <scratch_subdir>  (854) 
/opt/xchem-fragalysis-2/maxwin/BulkDock/SCRATCH/505733/C657-P46

>  <fragmenstein_runtime>  (854) 
8.247049808502197

>  <fragmenstein_outcome>  (854) 
too moved

>  <fragmenstein_mode>  (854) 
expansion

>  <fragmenstein_error>  (854) 


$$$$
C1130-P82
     RDKit          3D

 52 53  0  0  0  0  0  0  0  0999 V2000
  -11.9897  -24.3435   33.5068 C   0  0  0  0  0  0  0  0  0  0  0  0
  -11.0767  -24.3732   32.3034 C   0  0  0  0  0  0  0  0  0  0  0  0
  -10.3804  -25.7119   32.3499 C   0  0  0  0  0  0  0  0  0  0  0  0
   -9.7275  -26.0278   31.0494 C   0  0  0  0  0  0  0  0  0  0  0  0
  -10.6507  -25.8018   29.8895 C   0  0  0  0  0  0  0  0  0  0  0  0
  -11.0378  -24.3797   29.8178 N   0  0  0  0  0  0  0  0  0  0  0  0
  -11.3994  -23.9155   28.2212 S   0  0  0  0  0  0  0  0  0  0  0  0
  -11.6526  -22.2128   28.0782 C   0  0  0  0  0  0  0  0  0  0  0  0
  -10.1669  -24.1854   27.5143 O   0  0  0  0  0  0  0  0  0  0  0  0
  -12.6668  -24.6836   27.9331 N   0  0  0  0  0  0  0  0  0  0  0  0
  -12.6305  -25.8537   27.0887 C   0  0  0  0  0  0  0  0  0  0  0  0
  -13.4247  -25.5525   25.8255 C   0  0  0  0  0  0  0  0  0  0  0  0
  -13.9621  -26.7566   25.0439 C   0  0  0  0  0  0  0  0  0  0  0  0
  -14.8199  -27.7886   25.8013 C   0  0  0  0  0  0  0  0  0  0  0  0
  -15.7304  -27.1900   26.7931 N   0  0  0  0  0  0  0  0  0  0  0  0
  -14.0462  -28.8700   26.4938 C   0  0  0  0  0  0  0  0  0  0  0  0
  -12.6900  -29.0956   26.5627 C   0  0  0  0  0  0  0  0  0  0  0  0
  -12.5455  -30.2010   27.3458 N   0  0  0  0  0  0  0  0  0  0  0  0
  -13.7895  -30.6203   27.7113 C   0  0  0  0  0  0  0  0  0  0  0  0
  -14.7191  -29.8439   27.2070 N   0  0  0  0  0  0  0  0  0  0  0  0
  -11.8601  -24.0424   31.0116 C   0  0  0  0  0  0  0  0  0  0  0  0
  -12.2693  -22.5528   31.1765 C   0  0  0  0  0  0  0  0  0  0  0  0
  -13.6564  -22.3190   30.9792 O   0  0  0  0  0  0  0  0  0  0  0  0
  -12.9109  -24.9036   33.3437 H   0  0  0  0  0  0  0  0  0  0  0  0
  -11.4832  -24.7801   34.3692 H   0  0  0  0  0  0  0  0  0  0  0  0
  -12.2752  -23.3302   33.7966 H   0  0  0  0  0  0  0  0  0  0  0  0
  -10.2943  -23.6172   32.4466 H   0  0  0  0  0  0  0  0  0  0  0  0
  -11.0698  -26.5108   32.6023 H   0  0  0  0  0  0  0  0  0  0  0  0
   -9.6296  -25.6874   33.1483 H   0  0  0  0  0  0  0  0  0  0  0  0
   -8.8665  -25.3700   30.9557 H   0  0  0  0  0  0  0  0  0  0  0  0
   -9.3891  -27.0655   31.0365 H   0  0  0  0  0  0  0  0  0  0  0  0
  -10.1005  -26.1108   28.9931 H   0  0  0  0  0  0  0  0  0  0  0  0
  -11.5322  -26.4506   29.9454 H   0  0  0  0  0  0  0  0  0  0  0  0
  -11.7448  -21.9773   27.0203 H   0  0  0  0  0  0  0  0  0  0  0  0
  -12.5443  -21.9223   28.6072 H   0  0  0  0  0  0  0  0  0  0  0  0
  -10.7800  -21.7220   28.4992 H   0  0  0  0  0  0  0  0  0  0  0  0
  -11.6176  -26.1777   26.8278 H   0  0  0  0  0  0  0  0  0  0  0  0
  -13.0779  -26.6626   27.6593 H   0  0  0  0  0  0  0  0  0  0  0  0
  -12.7813  -24.9496   25.1786 H   0  0  0  0  0  0  0  0  0  0  0  0
  -14.2680  -24.8915   26.0280 H   0  0  0  0  0  0  0  0  0  0  0  0
  -14.5827  -26.3455   24.2354 H   0  0  0  0  0  0  0  0  0  0  0  0
  -13.1229  -27.2586   24.5478 H   0  0  0  0  0  0  0  0  0  0  0  0
  -15.4379  -28.3022   25.0516 H   0  0  0  0  0  0  0  0  0  0  0  0
  -16.4703  -26.7099   26.2731 H   0  0  0  0  0  0  0  0  0  0  0  0
  -16.1978  -27.9889   27.2456 H   0  0  0  0  0  0  0  0  0  0  0  0
  -11.8351  -28.5782   26.1499 H   0  0  0  0  0  0  0  0  0  0  0  0
  -11.6648  -30.6190   27.6094 H   0  0  0  0  0  0  0  0  0  0  0  0
  -13.9556  -31.4865   28.3387 H   0  0  0  0  0  0  0  0  0  0  0  0
  -12.7645  -24.6543   30.9724 H   0  0  0  0  0  0  0  0  0  0  0  0
  -12.0375  -22.1377   32.1605 H   0  0  0  0  0  0  0  0  0  0  0  0
  -11.7067  -21.8982   30.5148 H   0  0  0  0  0  0  0  0  0  0  0  0
  -14.0270  -23.0715   30.4540 H   0  0  0  0  0  0  0  0  0  0  0  0
  1  2  1  0
  2  3  1  0
  3  4  1  0
  4  5  1  0
  5  6  1  0
  6  7  1  0
  7  8  1  0
  7  9  2  0
  7 10  2  0
 10 11  1  0
 11 12  1  0
 12 13  1  0
 13 14  1  0
 14 15  1  0
 14 16  1  0
 16 17  2  0
 17 18  1  0
 18 19  1  0
 19 20  2  0
  6 21  1  0
 21 22  1  0
 22 23  1  0
 21  2  1  0
 20 16  1  0
  1 24  1  0
  1 25  1  0
  1 26  1  0
  2 27  1  0
  3 28  1  0
  3 29  1  0
  4 30  1  0
  4 31  1  0
  5 32  1  0
  5 33  1  0
  8 34  1  0
  8 35  1  0
  8 36  1  0
 11 37  1  0
 11 38  1  0
 12 39  1  0
 12 40  1  0
 13 41  1  0
 13 42  1  0
 14 43  1  0
 15 44  1  0
 15 45  1  0
 17 46  1  0
 18 47  1  0
 19 48  1  0
 21 49  1  0
 22 50  1  0
 22 51  1  0
 23 52  1  0
M  END
>  <Energy>  (855) 
-39.224945071582084

>  <compound_id>  (855) 
1130

>  <target_id>  (855) 
1

>  <reference_id>  (855) 
82

>  <inspiration_ids>  (855) 
[82, 47]

>  <energy_score>  (855) 
-61.331538508585794

>  <distance_score>  (855) 
2.5244535900155403

>  <path>  (855) 
/opt/xchem-fragalysis-2/maxwin/BulkDock/SCRATCH/505733/C1130-P82/C1130-P82.minimised.mol

>  <scratch_subdir>  (855) 
/opt/xchem-fragalysis-2/maxwin/BulkDock/SCRATCH/505733/C1130-P82

>  <fragmenstein_runtime>  (855) 
6.310792446136475

>  <fragmenstein_outcome>  (855) 
too moved

>  <fragmenstein_mode>  (855) 
expansion

>  <fragmenstein_error>  (855) 


$$$$
C1130-P47
     RDKit          3D

 52 53  0  0  0  0  0  0  0  0999 V2000
   -8.7558  -25.8519   31.7534 C   0  0  0  0  0  0  0  0  0  0  0  0
   -9.7984  -25.0569   31.0542 C   0  0  0  0  0  0  0  0  0  0  0  0
   -9.6523  -25.2945   29.5352 C   0  0  0  0  0  0  0  0  0  0  0  0
  -10.3654  -26.5467   29.0830 C   0  0  0  0  0  0  0  0  0  0  0  0
  -11.7359  -26.6249   29.7274 C   0  0  0  0  0  0  0  0  0  0  0  0
  -12.0906  -25.4550   30.5630 N   0  0  0  0  0  0  0  0  0  0  0  0
  -12.6647  -23.9961   29.9224 S   0  0  0  0  0  0  0  0  0  0  0  0
  -13.8592  -23.3866   31.0807 C   0  0  0  0  0  0  0  0  0  0  0  0
  -11.5854  -23.0340   29.9816 O   0  0  0  0  0  0  0  0  0  0  0  0
  -13.2518  -24.5504   28.6448 N   0  0  0  0  0  0  0  0  0  0  0  0
  -12.5268  -24.4825   27.3691 C   0  0  0  0  0  0  0  0  0  0  0  0
  -13.0169  -25.6654   26.5276 C   0  0  0  0  0  0  0  0  0  0  0  0
  -14.5205  -25.5843   26.2352 C   0  0  0  0  0  0  0  0  0  0  0  0
  -14.8693  -25.0130   24.8656 C   0  0  0  0  0  0  0  0  0  0  0  0
  -14.6681  -26.1084   23.9008 N   0  0  0  0  0  0  0  0  0  0  0  0
  -14.1127  -23.7808   24.4450 C   0  0  0  0  0  0  0  0  0  0  0  0
  -14.6444  -22.6031   23.9843 C   0  0  0  0  0  0  0  0  0  0  0  0
  -13.5874  -21.7995   23.6499 N   0  0  0  0  0  0  0  0  0  0  0  0
  -12.4580  -22.5098   23.8756 C   0  0  0  0  0  0  0  0  0  0  0  0
  -12.7284  -23.6447   24.4799 N   0  0  0  0  0  0  0  0  0  0  0  0
  -11.1445  -25.4419   31.6435 C   0  0  0  0  0  0  0  0  0  0  0  0
  -11.5941  -24.6277   32.8640 C   0  0  0  0  0  0  0  0  0  0  0  0
  -11.5216  -23.2174   32.7268 O   0  0  0  0  0  0  0  0  0  0  0  0
   -8.6936  -26.8421   31.3068 H   0  0  0  0  0  0  0  0  0  0  0  0
   -8.9678  -25.8990   32.8227 H   0  0  0  0  0  0  0  0  0  0  0  0
   -7.7742  -25.4110   31.6556 H   0  0  0  0  0  0  0  0  0  0  0  0
   -9.6094  -24.0332   31.3227 H   0  0  0  0  0  0  0  0  0  0  0  0
   -8.6181  -25.3290   29.2235 H   0  0  0  0  0  0  0  0  0  0  0  0
  -10.0412  -24.4528   28.9673 H   0  0  0  0  0  0  0  0  0  0  0  0
  -10.4356  -26.5682   27.9908 H   0  0  0  0  0  0  0  0  0  0  0  0
   -9.7852  -27.4262   29.3750 H   0  0  0  0  0  0  0  0  0  0  0  0
  -11.7360  -27.5266   30.3510 H   0  0  0  0  0  0  0  0  0  0  0  0
  -12.4891  -26.8635   28.9858 H   0  0  0  0  0  0  0  0  0  0  0  0
  -13.9782  -24.0673   31.9179 H   0  0  0  0  0  0  0  0  0  0  0  0
  -13.5335  -22.4119   31.4493 H   0  0  0  0  0  0  0  0  0  0  0  0
  -14.8235  -23.2564   30.6411 H   0  0  0  0  0  0  0  0  0  0  0  0
  -11.4488  -24.5614   27.4863 H   0  0  0  0  0  0  0  0  0  0  0  0
  -12.7205  -23.5154   26.9032 H   0  0  0  0  0  0  0  0  0  0  0  0
  -12.8378  -26.6072   27.0521 H   0  0  0  0  0  0  0  0  0  0  0  0
  -12.4133  -25.7557   25.6195 H   0  0  0  0  0  0  0  0  0  0  0  0
  -14.9373  -26.5995   26.3156 H   0  0  0  0  0  0  0  0  0  0  0  0
  -15.0542  -25.0316   27.0068 H   0  0  0  0  0  0  0  0  0  0  0  0
  -15.9434  -24.8034   24.8308 H   0  0  0  0  0  0  0  0  0  0  0  0
  -15.4425  -26.7529   24.0220 H   0  0  0  0  0  0  0  0  0  0  0  0
  -13.8196  -26.5753   24.2102 H   0  0  0  0  0  0  0  0  0  0  0  0
  -15.6606  -22.2386   23.9285 H   0  0  0  0  0  0  0  0  0  0  0  0
  -13.6513  -20.8491   23.3115 H   0  0  0  0  0  0  0  0  0  0  0  0
  -11.4887  -22.1449   23.5760 H   0  0  0  0  0  0  0  0  0  0  0  0
  -11.0611  -26.4637   32.0263 H   0  0  0  0  0  0  0  0  0  0  0  0
  -12.6061  -24.9013   33.1751 H   0  0  0  0  0  0  0  0  0  0  0  0
  -10.9656  -24.9463   33.6922 H   0  0  0  0  0  0  0  0  0  0  0  0
  -11.1784  -22.9892   31.8412 H   0  0  0  0  0  0  0  0  0  0  0  0
  1  2  1  0
  2  3  1  0
  3  4  1  0
  4  5  1  0
  5  6  1  0
  6  7  1  0
  7  8  1  0
  7  9  2  0
  7 10  2  0
 10 11  1  0
 11 12  1  0
 12 13  1  0
 13 14  1  0
 14 15  1  0
 14 16  1  0
 16 17  2  0
 17 18  1  0
 18 19  1  0
 19 20  2  0
  6 21  1  0
 21 22  1  0
 22 23  1  0
 21  2  1  0
 20 16  1  0
  1 24  1  0
  1 25  1  0
  1 26  1  0
  2 27  1  0
  3 28  1  0
  3 29  1  0
  4 30  1  0
  4 31  1  0
  5 32  1  0
  5 33  1  0
  8 34  1  0
  8 35  1  0
  8 36  1  0
 11 37  1  0
 11 38  1  0
 12 39  1  0
 12 40  1  0
 13 41  1  0
 13 42  1  0
 14 43  1  0
 15 44  1  0
 15 45  1  0
 17 46  1  0
 18 47  1  0
 19 48  1  0
 21 49  1  0
 22 50  1  0
 22 51  1  0
 23 52  1  0
M  END
>  <Energy>  (856) 
-18.553981209739849

>  <compound_id>  (856) 
1130

>  <target_id>  (856) 
1

>  <reference_id>  (856) 
47

>  <inspiration_ids>  (856) 
[82, 47]

>  <energy_score>  (856) 
-40.660574646743754

>  <distance_score>  (856) 
2.660142208970381

>  <path>  (856) 
/opt/xchem-fragalysis-2/maxwin/BulkDock/SCRATCH/505733/C1130-P47/C1130-P47.minimised.mol

>  <scratch_subdir>  (856) 
/opt/xchem-fragalysis-2/maxwin/BulkDock/SCRATCH/505733/C1130-P47

>  <fragmenstein_runtime>  (856) 
5.342651128768921

>  <fragmenstein_outcome>  (856) 
too moved

>  <fragmenstein_mode>  (856) 
expansion

>  <fragmenstein_error>  (856) 


$$$$
C784-P82
     RDKit          3D

 47 48  0  0  0  0  0  0  0  0999 V2000
  -11.8848  -21.8602   31.7398 C   0  0  0  0  0  0  0  0  0  0  0  0
  -13.2039  -22.4087   32.1460 C   0  0  0  0  0  0  0  0  0  0  0  0
  -14.4911  -21.9875   31.7215 C   0  0  0  0  0  0  0  0  0  0  0  0
  -15.5104  -22.5537   32.4454 C   0  0  0  0  0  0  0  0  0  0  0  0
  -14.9248  -23.6485   33.6018 S   0  0  0  0  0  0  0  0  0  0  0  0
  -13.3484  -23.4337   33.0523 C   0  0  0  0  0  0  0  0  0  0  0  0
  -12.2600  -24.1204   33.6391 C   0  0  0  0  0  0  0  0  0  0  0  0
  -11.7047  -23.7696   34.6581 O   0  0  0  0  0  0  0  0  0  0  0  0
  -11.8541  -25.1529   32.8798 O   0  0  0  0  0  0  0  0  0  0  0  0
  -10.4878  -24.9714   32.6156 C   0  0  0  0  0  0  0  0  0  0  0  0
  -10.2611  -24.5682   31.2610 N   0  0  0  0  0  0  0  0  0  0  0  0
  -10.2214  -25.5414   30.1057 S   0  0  0  0  0  0  0  0  0  0  0  0
  -10.3274  -27.1822   30.6956 C   0  0  0  0  0  0  0  0  0  0  0  0
   -9.1875  -25.4974   29.0985 O   0  0  0  0  0  0  0  0  0  0  0  0
  -11.5930  -25.1657   29.1317 N   0  0  0  0  0  0  0  0  0  0  0  0
  -11.6883  -23.7626   28.6971 C   0  0  0  0  0  0  0  0  0  0  0  0
  -11.7995  -23.5002   27.2008 C   0  0  0  0  0  0  0  0  0  0  0  0
  -10.9948  -24.5049   26.3715 C   0  0  0  0  0  0  0  0  0  0  0  0
  -11.0467  -25.9726   26.8487 C   0  0  0  0  0  0  0  0  0  0  0  0
  -11.3993  -26.9815   25.7484 C   0  0  0  0  0  0  0  0  0  0  0  0
  -11.9730  -26.1010   28.0467 C   0  0  0  0  0  0  0  0  0  0  0  0
  -13.3791  -25.8751   27.5078 C   0  0  0  0  0  0  0  0  0  0  0  0
  -14.1595  -27.0595   27.3099 O   0  0  0  0  0  0  0  0  0  0  0  0
  -11.0550  -22.4560   32.0874 H   0  0  0  0  0  0  0  0  0  0  0  0
  -11.8156  -21.7096   30.6624 H   0  0  0  0  0  0  0  0  0  0  0  0
  -11.7353  -20.9019   32.2421 H   0  0  0  0  0  0  0  0  0  0  0  0
  -14.7271  -21.2882   30.9467 H   0  0  0  0  0  0  0  0  0  0  0  0
  -16.5740  -22.3992   32.3354 H   0  0  0  0  0  0  0  0  0  0  0  0
   -9.9212  -25.8486   32.9194 H   0  0  0  0  0  0  0  0  0  0  0  0
  -10.0253  -24.1716   33.1893 H   0  0  0  0  0  0  0  0  0  0  0  0
   -9.3278  -27.6044   30.6928 H   0  0  0  0  0  0  0  0  0  0  0  0
  -11.0181  -27.7292   30.0714 H   0  0  0  0  0  0  0  0  0  0  0  0
  -10.6959  -27.2363   31.7083 H   0  0  0  0  0  0  0  0  0  0  0  0
  -10.8198  -23.1980   29.0313 H   0  0  0  0  0  0  0  0  0  0  0  0
  -12.5224  -23.2897   29.2126 H   0  0  0  0  0  0  0  0  0  0  0  0
  -12.8436  -23.4803   26.8833 H   0  0  0  0  0  0  0  0  0  0  0  0
  -11.4595  -22.4798   27.0069 H   0  0  0  0  0  0  0  0  0  0  0  0
   -9.9617  -24.1921   26.4806 H   0  0  0  0  0  0  0  0  0  0  0  0
  -11.2503  -24.4090   25.3114 H   0  0  0  0  0  0  0  0  0  0  0  0
  -10.0493  -26.2725   27.1674 H   0  0  0  0  0  0  0  0  0  0  0  0
  -10.5242  -27.1982   25.1418 H   0  0  0  0  0  0  0  0  0  0  0  0
  -12.1974  -26.6276   25.0912 H   0  0  0  0  0  0  0  0  0  0  0  0
  -11.7006  -27.9447   26.1744 H   0  0  0  0  0  0  0  0  0  0  0  0
  -11.9352  -27.1276   28.4165 H   0  0  0  0  0  0  0  0  0  0  0  0
  -13.8698  -25.3071   28.2639 H   0  0  0  0  0  0  0  0  0  0  0  0
  -13.4612  -25.3291   26.5670 H   0  0  0  0  0  0  0  0  0  0  0  0
  -13.8384  -27.4956   26.5007 H   0  0  0  0  0  0  0  0  0  0  0  0
  1  2  1  0
  2  3  1  0
  3  4  2  0
  4  5  1  0
  5  6  1  0
  6  7  1  0
  7  8  2  0
  7  9  1  0
  9 10  1  0
 10 11  1  0
 11 12  2  0
 12 13  1  0
 12 14  2  0
 12 15  1  0
 15 16  1  0
 16 17  1  0
 17 18  1  0
 18 19  1  0
 19 20  1  0
 19 21  1  0
 21 22  1  0
 22 23  1  0
  6  2  2  0
 21 15  1  0
  1 24  1  0
  1 25  1  0
  1 26  1  0
  3 27  1  0
  4 28  1  0
 10 29  1  0
 10 30  1  0
 13 31  1  0
 13 32  1  0
 13 33  1  0
 16 34  1  0
 16 35  1  0
 17 36  1  0
 17 37  1  0
 18 38  1  0
 18 39  1  0
 19 40  1  0
 20 41  1  0
 20 42  1  0
 20 43  1  0
 21 44  1  0
 22 45  1  0
 22 46  1  0
 23 47  1  0
M  END
>  <Energy>  (857) 
-38.827687199873552

>  <compound_id>  (857) 
784

>  <target_id>  (857) 
1

>  <reference_id>  (857) 
82

>  <inspiration_ids>  (857) 
[82, 52]

>  <energy_score>  (857) 
-19.58333897984724

>  <distance_score>  (857) 
2.9212375348486233

>  <path>  (857) 
/opt/xchem-fragalysis-2/maxwin/BulkDock/SCRATCH/505733/C784-P82/C784-P82.minimised.mol

>  <scratch_subdir>  (857) 
/opt/xchem-fragalysis-2/maxwin/BulkDock/SCRATCH/505733/C784-P82

>  <fragmenstein_runtime>  (857) 
9.261664390563965

>  <fragmenstein_outcome>  (857) 
too moved

>  <fragmenstein_mode>  (857) 
expansion

>  <fragmenstein_error>  (857) 


$$$$
C784-P52
     RDKit          3D

 47 48  0  0  0  0  0  0  0  0999 V2000
   -9.1556  -21.8918   33.1878 C   0  0  0  0  0  0  0  0  0  0  0  0
  -10.5143  -21.4882   32.7444 C   0  0  0  0  0  0  0  0  0  0  0  0
  -10.8875  -20.6788   31.6370 C   0  0  0  0  0  0  0  0  0  0  0  0
  -12.2170  -20.8029   31.3446 C   0  0  0  0  0  0  0  0  0  0  0  0
  -13.0711  -21.2530   32.7257 S   0  0  0  0  0  0  0  0  0  0  0  0
  -11.6528  -21.9578   33.3436 C   0  0  0  0  0  0  0  0  0  0  0  0
  -11.7709  -22.9462   34.3541 C   0  0  0  0  0  0  0  0  0  0  0  0
  -12.7064  -22.9660   35.1326 O   0  0  0  0  0  0  0  0  0  0  0  0
  -10.7200  -23.8342   34.4252 O   0  0  0  0  0  0  0  0  0  0  0  0
  -10.2905  -24.5690   33.2448 C   0  0  0  0  0  0  0  0  0  0  0  0
  -11.0690  -24.3879   32.0259 N   0  0  0  0  0  0  0  0  0  0  0  0
  -10.9275  -25.3658   30.8832 S   0  0  0  0  0  0  0  0  0  0  0  0
  -11.6505  -26.9250   31.4110 C   0  0  0  0  0  0  0  0  0  0  0  0
   -9.6941  -25.5543   30.1679 O   0  0  0  0  0  0  0  0  0  0  0  0
  -12.0052  -24.8711   29.6680 N   0  0  0  0  0  0  0  0  0  0  0  0
  -12.3195  -23.4845   29.4225 C   0  0  0  0  0  0  0  0  0  0  0  0
  -11.3017  -22.7852   28.5373 C   0  0  0  0  0  0  0  0  0  0  0  0
  -10.6782  -23.7384   27.5292 C   0  0  0  0  0  0  0  0  0  0  0  0
  -11.5963  -24.9052   27.1536 C   0  0  0  0  0  0  0  0  0  0  0  0
  -12.7149  -24.4402   26.2235 C   0  0  0  0  0  0  0  0  0  0  0  0
  -12.0680  -25.6640   28.4298 C   0  0  0  0  0  0  0  0  0  0  0  0
  -13.4741  -26.2658   28.3053 C   0  0  0  0  0  0  0  0  0  0  0  0
  -13.7691  -27.1597   29.3789 O   0  0  0  0  0  0  0  0  0  0  0  0
   -8.6542  -22.5115   32.4436 H   0  0  0  0  0  0  0  0  0  0  0  0
   -9.1141  -22.4530   34.1146 H   0  0  0  0  0  0  0  0  0  0  0  0
   -8.5549  -21.0200   33.4395 H   0  0  0  0  0  0  0  0  0  0  0  0
  -10.2467  -20.1526   30.9585 H   0  0  0  0  0  0  0  0  0  0  0  0
  -12.7054  -20.5407   30.4252 H   0  0  0  0  0  0  0  0  0  0  0  0
  -10.3085  -25.6186   33.5583 H   0  0  0  0  0  0  0  0  0  0  0  0
   -9.2300  -24.3882   33.0634 H   0  0  0  0  0  0  0  0  0  0  0  0
  -11.6309  -27.6287   30.5792 H   0  0  0  0  0  0  0  0  0  0  0  0
  -12.6908  -26.8108   31.6816 H   0  0  0  0  0  0  0  0  0  0  0  0
  -11.1244  -27.2907   32.2934 H   0  0  0  0  0  0  0  0  0  0  0  0
  -12.4513  -22.9670   30.3613 H   0  0  0  0  0  0  0  0  0  0  0  0
  -13.3040  -23.4211   28.9562 H   0  0  0  0  0  0  0  0  0  0  0  0
  -11.7885  -21.9535   28.0148 H   0  0  0  0  0  0  0  0  0  0  0  0
  -10.5018  -22.3506   29.1426 H   0  0  0  0  0  0  0  0  0  0  0  0
   -9.7697  -24.1489   27.9795 H   0  0  0  0  0  0  0  0  0  0  0  0
  -10.3583  -23.1930   26.6383 H   0  0  0  0  0  0  0  0  0  0  0  0
  -10.9835  -25.6015   26.5654 H   0  0  0  0  0  0  0  0  0  0  0  0
  -12.3779  -23.6390   25.5603 H   0  0  0  0  0  0  0  0  0  0  0  0
  -13.5773  -24.0693   26.7668 H   0  0  0  0  0  0  0  0  0  0  0  0
  -13.0654  -25.2725   25.6042 H   0  0  0  0  0  0  0  0  0  0  0  0
  -11.3895  -26.5206   28.5336 H   0  0  0  0  0  0  0  0  0  0  0  0
  -14.2550  -25.5024   28.2976 H   0  0  0  0  0  0  0  0  0  0  0  0
  -13.5500  -26.8475   27.3802 H   0  0  0  0  0  0  0  0  0  0  0  0
  -14.6289  -27.5691   29.1729 H   0  0  0  0  0  0  0  0  0  0  0  0
  1  2  1  0
  2  3  1  0
  3  4  2  0
  4  5  1  0
  5  6  1  0
  6  7  1  0
  7  8  2  0
  7  9  1  0
  9 10  1  0
 10 11  1  0
 11 12  2  0
 12 13  1  0
 12 14  2  0
 12 15  1  0
 15 16  1  0
 16 17  1  0
 17 18  1  0
 18 19  1  0
 19 20  1  0
 19 21  1  0
 21 22  1  0
 22 23  1  0
  6  2  2  0
 21 15  1  0
  1 24  1  0
  1 25  1  0
  1 26  1  0
  3 27  1  0
  4 28  1  0
 10 29  1  0
 10 30  1  0
 13 31  1  0
 13 32  1  0
 13 33  1  0
 16 34  1  0
 16 35  1  0
 17 36  1  0
 17 37  1  0
 18 38  1  0
 18 39  1  0
 19 40  1  0
 20 41  1  0
 20 42  1  0
 20 43  1  0
 21 44  1  0
 22 45  1  0
 22 46  1  0
 23 47  1  0
M  END
>  <Energy>  (858) 
-43.422328832938206

>  <compound_id>  (858) 
784

>  <target_id>  (858) 
1

>  <reference_id>  (858) 
52

>  <inspiration_ids>  (858) 
[82, 52]

>  <energy_score>  (858) 
-24.177980612912584

>  <distance_score>  (858) 
2.1474469098595335

>  <path>  (858) 
/opt/xchem-fragalysis-2/maxwin/BulkDock/SCRATCH/505733/C784-P52/C784-P52.minimised.mol

>  <scratch_subdir>  (858) 
/opt/xchem-fragalysis-2/maxwin/BulkDock/SCRATCH/505733/C784-P52

>  <fragmenstein_runtime>  (858) 
9.31455135345459

>  <fragmenstein_outcome>  (858) 
too moved

>  <fragmenstein_mode>  (858) 
expansion

>  <fragmenstein_error>  (858) 


$$$$
C1131-P82
     RDKit          3D

 62 63  0  0  0  0  0  0  0  0999 V2000
  -12.1868  -23.4332   25.1104 C   0  0  0  0  0  0  0  0  0  0  0  0
  -11.6168  -24.6886   25.6717 C   0  0  0  0  0  0  0  0  0  0  0  0
  -10.5777  -24.7492   26.6551 C   0  0  0  0  0  0  0  0  0  0  0  0
  -10.3506  -26.0424   27.1176 C   0  0  0  0  0  0  0  0  0  0  0  0
  -11.2749  -27.1338   26.1438 S   0  0  0  0  0  0  0  0  0  0  0  0
  -12.3490  -25.8230   25.9633 C   0  0  0  0  0  0  0  0  0  0  0  0
  -13.5122  -25.6836   26.8664 C   0  0  0  0  0  0  0  0  0  0  0  0
  -12.9548  -25.4441   28.3332 C   0  0  0  0  0  0  0  0  0  0  0  0
  -12.3594  -24.1804   28.8184 N   0  0  0  0  0  0  0  0  0  0  0  0
  -12.3631  -24.0925   30.4320 S   0  0  0  0  0  0  0  0  0  0  0  0
  -11.5101  -22.3189   31.8402 C   0  0  0  0  0  0  0  0  0  0  0  0
  -12.4341  -25.4082   31.0052 O   0  0  0  0  0  0  0  0  0  0  0  0
  -10.8573  -23.6310   30.2470 N   0  0  0  0  0  0  0  0  0  0  0  0
  -12.0072  -22.2124   29.8937 C   0  0  0  0  0  0  0  0  0  0  0  0
  -13.5227  -22.2012   31.1272 C   0  0  0  0  0  0  0  0  0  0  0  0
  -13.4644  -23.3841   32.5398 C   0  0  0  0  0  0  0  0  0  0  0  0
  -11.8701  -24.0874   33.0161 C   0  0  0  0  0  0  0  0  0  0  0  0
  -11.9928  -25.2997   33.7925 C   0  0  0  0  0  0  0  0  0  0  0  0
  -10.5763  -24.3966   31.7581 C   0  0  0  0  0  0  0  0  0  0  0  0
   -9.2189  -24.5854   32.4218 C   0  0  0  0  0  0  0  0  0  0  0  0
   -9.2621  -25.4823   33.5253 O   0  0  0  0  0  0  0  0  0  0  0  0
  -14.4552  -26.8414   26.8912 N   0  0  0  0  0  0  0  0  0  0  0  0
  -15.2245  -27.1721   25.6655 C   0  0  0  0  0  0  0  0  0  0  0  0
  -16.6115  -27.6305   26.1749 C   0  0  0  0  0  0  0  0  0  0  0  0
  -15.4464  -26.0478   24.6443 C   0  0  0  0  0  0  0  0  0  0  0  0
  -14.5590  -28.3787   24.9522 C   0  0  0  0  0  0  0  0  0  0  0  0
  -14.1824  -29.3920   25.8913 O   0  0  0  0  0  0  0  0  0  0  0  0
  -11.6368  -23.1275   24.2171 H   0  0  0  0  0  0  0  0  0  0  0  0
  -12.1437  -22.6490   25.8671 H   0  0  0  0  0  0  0  0  0  0  0  0
  -13.2337  -23.5540   24.8144 H   0  0  0  0  0  0  0  0  0  0  0  0
  -10.0749  -23.8945   27.0804 H   0  0  0  0  0  0  0  0  0  0  0  0
   -9.6370  -26.3540   27.8669 H   0  0  0  0  0  0  0  0  0  0  0  0
  -14.0418  -24.7921   26.5396 H   0  0  0  0  0  0  0  0  0  0  0  0
  -13.8605  -25.3967   28.8674 H   0  0  0  0  0  0  0  0  0  0  0  0
  -12.3775  -26.3059   28.6864 H   0  0  0  0  0  0  0  0  0  0  0  0
  -12.0848  -21.9589   32.7110 H   0  0  0  0  0  0  0  0  0  0  0  0
  -11.2926  -21.3085   31.4607 H   0  0  0  0  0  0  0  0  0  0  0  0
  -10.5220  -22.4873   32.2665 H   0  0  0  0  0  0  0  0  0  0  0  0
  -11.3959  -21.2969   29.8148 H   0  0  0  0  0  0  0  0  0  0  0  0
  -12.3996  -22.1574   28.8588 H   0  0  0  0  0  0  0  0  0  0  0  0
  -13.5976  -21.2601   31.6580 H   0  0  0  0  0  0  0  0  0  0  0  0
  -14.4828  -22.3380   30.6457 H   0  0  0  0  0  0  0  0  0  0  0  0
  -13.8545  -22.8427   33.4138 H   0  0  0  0  0  0  0  0  0  0  0  0
  -14.1849  -24.1708   32.3467 H   0  0  0  0  0  0  0  0  0  0  0  0
  -11.4698  -23.3923   33.7675 H   0  0  0  0  0  0  0  0  0  0  0  0
  -13.0397  -25.4175   34.0652 H   0  0  0  0  0  0  0  0  0  0  0  0
  -11.6017  -26.0854   33.1528 H   0  0  0  0  0  0  0  0  0  0  0  0
  -11.3402  -25.2963   34.6649 H   0  0  0  0  0  0  0  0  0  0  0  0
  -10.5963  -25.4624   31.4614 H   0  0  0  0  0  0  0  0  0  0  0  0
   -8.8497  -23.6488   32.8087 H   0  0  0  0  0  0  0  0  0  0  0  0
   -8.5487  -25.0704   31.7209 H   0  0  0  0  0  0  0  0  0  0  0  0
   -9.2653  -26.3856   33.1303 H   0  0  0  0  0  0  0  0  0  0  0  0
  -13.8744  -27.6721   27.0885 H   0  0  0  0  0  0  0  0  0  0  0  0
  -17.2174  -28.0343   25.3550 H   0  0  0  0  0  0  0  0  0  0  0  0
  -17.1774  -26.8023   26.6141 H   0  0  0  0  0  0  0  0  0  0  0  0
  -16.5332  -28.4134   26.9383 H   0  0  0  0  0  0  0  0  0  0  0  0
  -16.0788  -26.3969   23.8192 H   0  0  0  0  0  0  0  0  0  0  0  0
  -14.5089  -25.7077   24.2001 H   0  0  0  0  0  0  0  0  0  0  0  0
  -15.9479  -25.1808   25.0828 H   0  0  0  0  0  0  0  0  0  0  0  0
  -13.6553  -28.0761   24.4174 H   0  0  0  0  0  0  0  0  0  0  0  0
  -15.2464  -28.8254   24.2296 H   0  0  0  0  0  0  0  0  0  0  0  0
  -14.9995  -29.8251   26.1940 H   0  0  0  0  0  0  0  0  0  0  0  0
  1  2  1  0
  2  3  1  0
  3  4  2  0
  4  5  1  0
  5  6  1  0
  6  7  1  0
  7  8  1  0
  8  9  1  0
  9 10  2  0
 10 11  1  0
 10 12  2  0
 10 13  1  0
 13 14  1  0
 14 15  1  0
 15 16  1  0
 16 17  1  0
 17 18  1  0
 17 19  1  0
 19 20  1  0
 20 21  1  0
  7 22  1  0
 22 23  1  0
 23 24  1  0
 23 25  1  0
 23 26  1  0
 26 27  1  0
  6  2  2  0
 19 13  1  0
  1 28  1  0
  1 29  1  0
  1 30  1  0
  3 31  1  0
  4 32  1  0
  7 33  1  0
  8 34  1  0
  8 35  1  0
 11 36  1  0
 11 37  1  0
 11 38  1  0
 14 39  1  0
 14 40  1  0
 15 41  1  0
 15 42  1  0
 16 43  1  0
 16 44  1  0
 17 45  1  0
 18 46  1  0
 18 47  1  0
 18 48  1  0
 19 49  1  0
 20 50  1  0
 20 51  1  0
 21 52  1  0
 22 53  1  0
 24 54  1  0
 24 55  1  0
 24 56  1  0
 25 57  1  0
 25 58  1  0
 25 59  1  0
 26 60  1  0
 26 61  1  0
 27 62  1  0
M  END
>  <Energy>  (859) 
827.2675184113067

>  <compound_id>  (859) 
1131

>  <target_id>  (859) 
1

>  <reference_id>  (859) 
82

>  <inspiration_ids>  (859) 
[82, 64]

>  <energy_score>  (859) 
706.3101904405132

>  <distance_score>  (859) 
2.6001512560645135

>  <path>  (859) 
/opt/xchem-fragalysis-2/maxwin/BulkDock/SCRATCH/505733/C1131-P82/C1131-P82.minimised.mol

>  <scratch_subdir>  (859) 
/opt/xchem-fragalysis-2/maxwin/BulkDock/SCRATCH/505733/C1131-P82

>  <fragmenstein_runtime>  (859) 
12.832711696624756

>  <fragmenstein_outcome>  (859) 
too moved

>  <fragmenstein_mode>  (859) 
expansion

>  <fragmenstein_error>  (859) 


$$$$
C1131-P64
     RDKit          3D

 62 63  0  0  0  0  0  0  0  0999 V2000
  -11.8870  -24.1861   25.4091 C   0  0  0  0  0  0  0  0  0  0  0  0
  -13.3716  -24.3142   25.2813 C   0  0  0  0  0  0  0  0  0  0  0  0
  -14.0548  -23.2677   24.6018 C   0  0  0  0  0  0  0  0  0  0  0  0
  -15.4091  -23.3726   24.6969 C   0  0  0  0  0  0  0  0  0  0  0  0
  -15.8816  -24.8664   25.3090 S   0  0  0  0  0  0  0  0  0  0  0  0
  -14.2691  -25.2700   25.7647 C   0  0  0  0  0  0  0  0  0  0  0  0
  -14.1430  -26.4677   26.7264 C   0  0  0  0  0  0  0  0  0  0  0  0
  -12.6177  -26.8079   27.0087 C   0  0  0  0  0  0  0  0  0  0  0  0
  -12.0089  -25.6553   27.7522 N   0  0  0  0  0  0  0  0  0  0  0  0
  -10.8814  -25.7659   28.7911 S   0  0  0  0  0  0  0  0  0  0  0  0
   -9.4516  -25.4661   27.9320 C   0  0  0  0  0  0  0  0  0  0  0  0
  -10.5695  -26.9167   29.5932 O   0  0  0  0  0  0  0  0  0  0  0  0
  -11.0292  -24.3938   29.8375 N   0  0  0  0  0  0  0  0  0  0  0  0
  -11.5994  -23.2090   29.2445 C   0  0  0  0  0  0  0  0  0  0  0  0
  -12.1512  -22.1452   30.1482 C   0  0  0  0  0  0  0  0  0  0  0  0
  -11.3863  -21.8442   31.3843 C   0  0  0  0  0  0  0  0  0  0  0  0
  -11.1178  -23.0945   32.1549 C   0  0  0  0  0  0  0  0  0  0  0  0
  -12.2204  -23.2620   33.2213 C   0  0  0  0  0  0  0  0  0  0  0  0
  -10.8800  -24.3792   31.3063 C   0  0  0  0  0  0  0  0  0  0  0  0
   -9.6555  -25.0974   31.8197 C   0  0  0  0  0  0  0  0  0  0  0  0
   -9.6269  -24.9442   33.2387 O   0  0  0  0  0  0  0  0  0  0  0  0
  -15.0700  -27.5706   26.3368 N   0  0  0  0  0  0  0  0  0  0  0  0
  -15.9882  -28.2003   27.3242 C   0  0  0  0  0  0  0  0  0  0  0  0
  -16.7581  -27.2098   28.2147 C   0  0  0  0  0  0  0  0  0  0  0  0
  -17.0500  -28.9331   26.4602 C   0  0  0  0  0  0  0  0  0  0  0  0
  -15.3213  -29.2981   28.1988 C   0  0  0  0  0  0  0  0  0  0  0  0
  -14.2666  -28.8121   29.0119 O   0  0  0  0  0  0  0  0  0  0  0  0
  -11.3612  -25.1362   25.3192 H   0  0  0  0  0  0  0  0  0  0  0  0
  -11.6225  -23.6626   26.3284 H   0  0  0  0  0  0  0  0  0  0  0  0
  -11.4954  -23.5694   24.5930 H   0  0  0  0  0  0  0  0  0  0  0  0
  -13.5707  -22.4044   24.1583 H   0  0  0  0  0  0  0  0  0  0  0  0
  -16.1412  -22.6486   24.3659 H   0  0  0  0  0  0  0  0  0  0  0  0
  -14.6090  -26.0426   27.6058 H   0  0  0  0  0  0  0  0  0  0  0  0
  -12.5270  -27.7235   27.5942 H   0  0  0  0  0  0  0  0  0  0  0  0
  -12.0706  -26.9720   26.0766 H   0  0  0  0  0  0  0  0  0  0  0  0
   -9.6455  -24.6571   27.2281 H   0  0  0  0  0  0  0  0  0  0  0  0
   -9.1840  -26.4093   27.4593 H   0  0  0  0  0  0  0  0  0  0  0  0
   -8.7179  -25.1719   28.6729 H   0  0  0  0  0  0  0  0  0  0  0  0
  -10.8542  -22.7547   28.5799 H   0  0  0  0  0  0  0  0  0  0  0  0
  -12.4377  -23.4610   28.5878 H   0  0  0  0  0  0  0  0  0  0  0  0
  -12.1859  -21.2294   29.5547 H   0  0  0  0  0  0  0  0  0  0  0  0
  -13.1607  -22.4087   30.4605 H   0  0  0  0  0  0  0  0  0  0  0  0
  -10.4718  -21.3164   31.1314 H   0  0  0  0  0  0  0  0  0  0  0  0
  -11.9294  -21.1420   32.0199 H   0  0  0  0  0  0  0  0  0  0  0  0
  -10.1934  -22.8809   32.6846 H   0  0  0  0  0  0  0  0  0  0  0  0
  -13.2250  -23.2018   32.8019 H   0  0  0  0  0  0  0  0  0  0  0  0
  -12.1186  -24.2071   33.7593 H   0  0  0  0  0  0  0  0  0  0  0  0
  -12.1745  -22.4527   33.9540 H   0  0  0  0  0  0  0  0  0  0  0  0
  -11.6148  -25.0172   31.7151 H   0  0  0  0  0  0  0  0  0  0  0  0
   -8.7327  -24.7062   31.4265 H   0  0  0  0  0  0  0  0  0  0  0  0
   -9.7038  -26.1589   31.5828 H   0  0  0  0  0  0  0  0  0  0  0  0
   -8.9903  -25.6331   33.5034 H   0  0  0  0  0  0  0  0  0  0  0  0
  -15.6723  -27.1430   25.6278 H   0  0  0  0  0  0  0  0  0  0  0  0
  -16.1200  -26.7496   28.9692 H   0  0  0  0  0  0  0  0  0  0  0  0
  -17.5612  -27.7200   28.7606 H   0  0  0  0  0  0  0  0  0  0  0  0
  -17.2292  -26.4160   27.6268 H   0  0  0  0  0  0  0  0  0  0  0  0
  -16.5864  -29.6682   25.7916 H   0  0  0  0  0  0  0  0  0  0  0  0
  -17.6208  -28.2309   25.8404 H   0  0  0  0  0  0  0  0  0  0  0  0
  -17.7696  -29.4721   27.0881 H   0  0  0  0  0  0  0  0  0  0  0  0
  -14.9183  -30.1046   27.5782 H   0  0  0  0  0  0  0  0  0  0  0  0
  -16.0609  -29.7613   28.8631 H   0  0  0  0  0  0  0  0  0  0  0  0
  -14.6493  -28.1121   29.5807 H   0  0  0  0  0  0  0  0  0  0  0  0
  1  2  1  0
  2  3  1  0
  3  4  2  0
  4  5  1  0
  5  6  1  0
  6  7  1  0
  7  8  1  0
  8  9  1  0
  9 10  2  0
 10 11  1  0
 10 12  2  0
 10 13  1  0
 13 14  1  0
 14 15  1  0
 15 16  1  0
 16 17  1  0
 17 18  1  0
 17 19  1  0
 19 20  1  0
 20 21  1  0
  7 22  1  0
 22 23  1  0
 23 24  1  0
 23 25  1  0
 23 26  1  0
 26 27  1  0
  6  2  2  0
 19 13  1  0
  1 28  1  0
  1 29  1  0
  1 30  1  0
  3 31  1  0
  4 32  1  0
  7 33  1  0
  8 34  1  0
  8 35  1  0
 11 36  1  0
 11 37  1  0
 11 38  1  0
 14 39  1  0
 14 40  1  0
 15 41  1  0
 15 42  1  0
 16 43  1  0
 16 44  1  0
 17 45  1  0
 18 46  1  0
 18 47  1  0
 18 48  1  0
 19 49  1  0
 20 50  1  0
 20 51  1  0
 21 52  1  0
 22 53  1  0
 24 54  1  0
 24 55  1  0
 24 56  1  0
 25 57  1  0
 25 58  1  0
 25 59  1  0
 26 60  1  0
 26 61  1  0
 27 62  1  0
M  END
>  <Energy>  (860) 
76.768366578788516

>  <compound_id>  (860) 
1131

>  <target_id>  (860) 
1

>  <reference_id>  (860) 
64

>  <inspiration_ids>  (860) 
[82, 64]

>  <energy_score>  (860) 
-63.012887745327134

>  <distance_score>  (860) 
4.038006125424798

>  <path>  (860) 
/opt/xchem-fragalysis-2/maxwin/BulkDock/SCRATCH/505733/C1131-P64/C1131-P64.minimised.mol

>  <scratch_subdir>  (860) 
/opt/xchem-fragalysis-2/maxwin/BulkDock/SCRATCH/505733/C1131-P64

>  <fragmenstein_runtime>  (860) 
10.62081527709961

>  <fragmenstein_outcome>  (860) 
too moved

>  <fragmenstein_mode>  (860) 
expansion

>  <fragmenstein_error>  (860) 


$$$$
C1132-P82
     RDKit          3D

 61 62  0  0  0  0  0  0  0  0999 V2000
  -18.9169  -21.2232   35.3054 C   0  0  0  0  0  0  0  0  0  0  0  0
  -18.8772  -22.4776   34.4243 C   0  0  0  0  0  0  0  0  0  0  0  0
  -18.0380  -22.2005   33.1806 C   0  0  0  0  0  0  0  0  0  0  0  0
  -18.0786  -23.3872   32.2298 C   0  0  0  0  0  0  0  0  0  0  0  0
  -18.2866  -24.7238   32.9476 C   0  0  0  0  0  0  0  0  0  0  0  0
  -17.7811  -24.7492   34.3213 N   0  0  0  0  0  0  0  0  0  0  0  0
  -16.7998  -26.0348   34.8322 S   0  0  0  0  0  0  0  0  0  0  0  0
  -16.7335  -26.1610   36.5967 C   0  0  0  0  0  0  0  0  0  0  0  0
  -17.5573  -27.1922   34.3967 O   0  0  0  0  0  0  0  0  0  0  0  0
  -15.4010  -25.6655   34.3622 N   0  0  0  0  0  0  0  0  0  0  0  0
  -14.9883  -24.3410   33.9223 C   0  0  0  0  0  0  0  0  0  0  0  0
  -13.6172  -24.4927   33.4686 N   0  0  0  0  0  0  0  0  0  0  0  0
  -13.1266  -23.7905   32.5502 C   0  0  0  0  0  0  0  0  0  0  0  0
  -14.0003  -22.6608   31.9127 C   0  0  0  0  0  0  0  0  0  0  0  0
  -14.7127  -21.8319   32.8201 O   0  0  0  0  0  0  0  0  0  0  0  0
  -13.9720  -20.9960   33.5911 C   0  0  0  0  0  0  0  0  0  0  0  0
  -14.7046  -20.0436   34.3101 C   0  0  0  0  0  0  0  0  0  0  0  0
  -14.0546  -19.0066   34.9832 C   0  0  0  0  0  0  0  0  0  0  0  0
  -12.6730  -18.8904   34.9023 C   0  0  0  0  0  0  0  0  0  0  0  0
  -12.0584  -17.6795   35.3007 N   0  0  0  0  0  0  0  0  0  0  0  0
  -11.9884  -19.8271   34.1216 C   0  0  0  0  0  0  0  0  0  0  0  0
  -10.7647  -19.5514   33.6574 F   0  0  0  0  0  0  0  0  0  0  0  0
  -12.5921  -20.9349   33.5710 C   0  0  0  0  0  0  0  0  0  0  0  0
  -11.8373  -23.8524   31.9097 N   0  0  0  0  0  0  0  0  0  0  0  0
  -10.6208  -24.7054   32.2062 C   0  0  0  0  0  0  0  0  0  0  0  0
  -11.8904  -24.7894   30.6567 C   0  0  0  0  0  0  0  0  0  0  0  0
  -18.3235  -23.7095   35.2026 C   0  0  0  0  0  0  0  0  0  0  0  0
  -19.4296  -24.2741   36.1336 C   0  0  0  0  0  0  0  0  0  0  0  0
  -20.4325  -24.9775   35.4081 O   0  0  0  0  0  0  0  0  0  0  0  0
  -19.5755  -21.3559   36.1681 H   0  0  0  0  0  0  0  0  0  0  0  0
  -17.9188  -20.9682   35.6777 H   0  0  0  0  0  0  0  0  0  0  0  0
  -19.2926  -20.3647   34.7381 H   0  0  0  0  0  0  0  0  0  0  0  0
  -19.9059  -22.6822   34.0962 H   0  0  0  0  0  0  0  0  0  0  0  0
  -18.3820  -21.3004   32.6581 H   0  0  0  0  0  0  0  0  0  0  0  0
  -17.0102  -22.0092   33.4906 H   0  0  0  0  0  0  0  0  0  0  0  0
  -18.9033  -23.2507   31.5188 H   0  0  0  0  0  0  0  0  0  0  0  0
  -17.1669  -23.3868   31.6287 H   0  0  0  0  0  0  0  0  0  0  0  0
  -17.8363  -25.5165   32.3410 H   0  0  0  0  0  0  0  0  0  0  0  0
  -19.3580  -24.9584   32.9558 H   0  0  0  0  0  0  0  0  0  0  0  0
  -15.8690  -26.7735   36.8654 H   0  0  0  0  0  0  0  0  0  0  0  0
  -16.6458  -25.1772   37.0507 H   0  0  0  0  0  0  0  0  0  0  0  0
  -17.6368  -26.6616   36.9507 H   0  0  0  0  0  0  0  0  0  0  0  0
  -15.0692  -23.6103   34.7216 H   0  0  0  0  0  0  0  0  0  0  0  0
  -15.6389  -24.0407   33.1093 H   0  0  0  0  0  0  0  0  0  0  0  0
  -14.7584  -23.1379   31.3006 H   0  0  0  0  0  0  0  0  0  0  0  0
  -13.4029  -22.0573   31.2202 H   0  0  0  0  0  0  0  0  0  0  0  0
  -15.7904  -20.0884   34.3186 H   0  0  0  0  0  0  0  0  0  0  0  0
  -14.6310  -18.2557   35.5173 H   0  0  0  0  0  0  0  0  0  0  0  0
  -12.0064  -17.0846   34.4591 H   0  0  0  0  0  0  0  0  0  0  0  0
  -11.0785  -17.8587   35.5251 H   0  0  0  0  0  0  0  0  0  0  0  0
  -11.9624  -21.5808   32.9776 H   0  0  0  0  0  0  0  0  0  0  0  0
  -10.8649  -25.7199   32.5534 H   0  0  0  0  0  0  0  0  0  0  0  0
   -9.8130  -24.6977   31.4607 H   0  0  0  0  0  0  0  0  0  0  0  0
  -10.1581  -24.2322   33.0732 H   0  0  0  0  0  0  0  0  0  0  0  0
  -11.0945  -24.5515   29.9344 H   0  0  0  0  0  0  0  0  0  0  0  0
  -12.8016  -24.5270   30.1136 H   0  0  0  0  0  0  0  0  0  0  0  0
  -11.9587  -25.8621   30.8498 H   0  0  0  0  0  0  0  0  0  0  0  0
  -17.5037  -23.3485   35.8365 H   0  0  0  0  0  0  0  0  0  0  0  0
  -19.0259  -24.9555   36.8829 H   0  0  0  0  0  0  0  0  0  0  0  0
  -19.9263  -23.4745   36.6900 H   0  0  0  0  0  0  0  0  0  0  0  0
  -19.9739  -25.6930   34.9255 H   0  0  0  0  0  0  0  0  0  0  0  0
  1  2  1  0
  2  3  1  0
  3  4  1  0
  4  5  1  0
  5  6  1  0
  6  7  1  0
  7  8  1  0
  7  9  2  0
  7 10  2  0
 10 11  1  0
 11 12  1  0
 12 13  2  3
 13 14  1  0
 14 15  1  0
 15 16  1  0
 16 17  2  0
 17 18  1  0
 18 19  2  0
 19 20  1  0
 19 21  1  0
 21 22  1  0
 21 23  2  0
 13 24  1  0
 24 25  1  0
 24 26  1  0
  6 27  1  0
 27 28  1  0
 28 29  1  0
 27  2  1  0
 23 16  1  0
  1 30  1  0
  1 31  1  0
  1 32  1  0
  2 33  1  0
  3 34  1  0
  3 35  1  0
  4 36  1  0
  4 37  1  0
  5 38  1  0
  5 39  1  0
  8 40  1  0
  8 41  1  0
  8 42  1  0
 11 43  1  0
 11 44  1  0
 14 45  1  0
 14 46  1  0
 17 47  1  0
 18 48  1  0
 20 49  1  0
 20 50  1  0
 23 51  1  0
 25 52  1  0
 25 53  1  0
 25 54  1  0
 26 55  1  0
 26 56  1  0
 26 57  1  0
 27 58  1  0
 28 59  1  0
 28 60  1  0
 29 61  1  0
M  END
>  <Energy>  (861) 
18.924631426528407

>  <compound_id>  (861) 
1132

>  <target_id>  (861) 
1

>  <reference_id>  (861) 
82

>  <inspiration_ids>  (861) 
[82, 88]

>  <energy_score>  (861) 
-27.728826556110562

>  <distance_score>  (861) 
6.321289339076844

>  <path>  (861) 
/opt/xchem-fragalysis-2/maxwin/BulkDock/SCRATCH/505733/C1132-P82/C1132-P82.minimised.mol

>  <scratch_subdir>  (861) 
/opt/xchem-fragalysis-2/maxwin/BulkDock/SCRATCH/505733/C1132-P82

>  <fragmenstein_runtime>  (861) 
27.628478527069092

>  <fragmenstein_outcome>  (861) 
too moved

>  <fragmenstein_mode>  (861) 
expansion

>  <fragmenstein_error>  (861) 


$$$$
C1132-P88
     RDKit          3D

 61 62  0  0  0  0  0  0  0  0999 V2000
  -15.8575  -27.7770   29.6183 C   0  0  0  0  0  0  0  0  0  0  0  0
  -15.0295  -28.9926   29.1892 C   0  0  0  0  0  0  0  0  0  0  0  0
  -14.1766  -28.6392   27.9668 C   0  0  0  0  0  0  0  0  0  0  0  0
  -12.9107  -27.9025   28.3685 C   0  0  0  0  0  0  0  0  0  0  0  0
  -12.1243  -28.6918   29.3969 C   0  0  0  0  0  0  0  0  0  0  0  0
  -12.9051  -28.8896   30.6118 N   0  0  0  0  0  0  0  0  0  0  0  0
  -12.8549  -27.8164   31.9322 S   0  0  0  0  0  0  0  0  0  0  0  0
  -12.7944  -28.8742   33.3640 C   0  0  0  0  0  0  0  0  0  0  0  0
  -14.1519  -27.1848   31.9328 O   0  0  0  0  0  0  0  0  0  0  0  0
  -11.5365  -27.0608   31.8752 N   0  0  0  0  0  0  0  0  0  0  0  0
  -11.3117  -25.8771   31.0435 C   0  0  0  0  0  0  0  0  0  0  0  0
  -10.9413  -24.7861   31.8971 N   0  0  0  0  0  0  0  0  0  0  0  0
  -10.0458  -23.9224   31.8184 C   0  0  0  0  0  0  0  0  0  0  0  0
   -8.9953  -23.9430   30.6700 C   0  0  0  0  0  0  0  0  0  0  0  0
   -9.1762  -23.1504   29.5063 O   0  0  0  0  0  0  0  0  0  0  0  0
  -10.4356  -23.3209   29.0496 C   0  0  0  0  0  0  0  0  0  0  0  0
  -11.4711  -22.6676   29.6814 C   0  0  0  0  0  0  0  0  0  0  0  0
  -12.7471  -23.1447   29.4712 C   0  0  0  0  0  0  0  0  0  0  0  0
  -13.0243  -24.1122   28.4968 C   0  0  0  0  0  0  0  0  0  0  0  0
  -14.3317  -24.4704   28.1622 N   0  0  0  0  0  0  0  0  0  0  0  0
  -11.9568  -24.5749   27.7332 C   0  0  0  0  0  0  0  0  0  0  0  0
  -12.1691  -25.4579   26.7517 F   0  0  0  0  0  0  0  0  0  0  0  0
  -10.6606  -24.2465   28.0524 C   0  0  0  0  0  0  0  0  0  0  0  0
   -9.8158  -22.7526   32.5970 N   0  0  0  0  0  0  0  0  0  0  0  0
  -10.6358  -22.1141   33.6962 C   0  0  0  0  0  0  0  0  0  0  0  0
   -8.8810  -23.0783   33.8080 C   0  0  0  0  0  0  0  0  0  0  0  0
  -14.1679  -29.6108   30.3322 C   0  0  0  0  0  0  0  0  0  0  0  0
  -13.8808  -31.1133   30.0719 C   0  0  0  0  0  0  0  0  0  0  0  0
  -15.0844  -31.8783   30.0831 O   0  0  0  0  0  0  0  0  0  0  0  0
  -16.5854  -27.5246   28.8385 H   0  0  0  0  0  0  0  0  0  0  0  0
  -15.2465  -26.8862   29.7775 H   0  0  0  0  0  0  0  0  0  0  0  0
  -16.4218  -27.9885   30.5320 H   0  0  0  0  0  0  0  0  0  0  0  0
  -15.7639  -29.7428   28.8671 H   0  0  0  0  0  0  0  0  0  0  0  0
  -13.9000  -29.5618   27.4410 H   0  0  0  0  0  0  0  0  0  0  0  0
  -14.7494  -28.0381   27.2507 H   0  0  0  0  0  0  0  0  0  0  0  0
  -12.3006  -27.7374   27.4810 H   0  0  0  0  0  0  0  0  0  0  0  0
  -13.1657  -26.9248   28.7763 H   0  0  0  0  0  0  0  0  0  0  0  0
  -11.1723  -28.1991   29.5957 H   0  0  0  0  0  0  0  0  0  0  0  0
  -11.8343  -29.6608   28.9734 H   0  0  0  0  0  0  0  0  0  0  0  0
  -13.3874  -29.7711   33.1764 H   0  0  0  0  0  0  0  0  0  0  0  0
  -11.7593  -29.1463   33.5741 H   0  0  0  0  0  0  0  0  0  0  0  0
  -13.2310  -28.3421   34.2070 H   0  0  0  0  0  0  0  0  0  0  0  0
  -12.2287  -25.6368   30.5126 H   0  0  0  0  0  0  0  0  0  0  0  0
  -10.5717  -26.0941   30.2790 H   0  0  0  0  0  0  0  0  0  0  0  0
   -8.7557  -24.9628   30.3826 H   0  0  0  0  0  0  0  0  0  0  0  0
   -8.1076  -23.5017   31.1186 H   0  0  0  0  0  0  0  0  0  0  0  0
  -11.2891  -21.9086   30.4367 H   0  0  0  0  0  0  0  0  0  0  0  0
  -13.5158  -22.7092   30.0941 H   0  0  0  0  0  0  0  0  0  0  0  0
  -15.0523  -24.3971   28.8660 H   0  0  0  0  0  0  0  0  0  0  0  0
  -14.4084  -25.2931   27.5692 H   0  0  0  0  0  0  0  0  0  0  0  0
   -9.8507  -24.7632   27.5752 H   0  0  0  0  0  0  0  0  0  0  0  0
  -10.9310  -22.7183   34.5576 H   0  0  0  0  0  0  0  0  0  0  0  0
  -10.2376  -21.1361   33.9883 H   0  0  0  0  0  0  0  0  0  0  0  0
  -11.5924  -21.8612   33.2183 H   0  0  0  0  0  0  0  0  0  0  0  0
   -9.2879  -23.8301   34.4997 H   0  0  0  0  0  0  0  0  0  0  0  0
   -8.4698  -22.1957   34.3034 H   0  0  0  0  0  0  0  0  0  0  0  0
   -7.9905  -23.5605   33.3815 H   0  0  0  0  0  0  0  0  0  0  0  0
  -14.7950  -29.6030   31.2339 H   0  0  0  0  0  0  0  0  0  0  0  0
  -13.2249  -31.5243   30.8465 H   0  0  0  0  0  0  0  0  0  0  0  0
  -13.3992  -31.2770   29.1036 H   0  0  0  0  0  0  0  0  0  0  0  0
  -15.4376  -31.8643   30.9889 H   0  0  0  0  0  0  0  0  0  0  0  0
  1  2  1  0
  2  3  1  0
  3  4  1  0
  4  5  1  0
  5  6  1  0
  6  7  1  0
  7  8  1  0
  7  9  2  0
  7 10  2  0
 10 11  1  0
 11 12  1  0
 12 13  2  3
 13 14  1  0
 14 15  1  0
 15 16  1  0
 16 17  2  0
 17 18  1  0
 18 19  2  0
 19 20  1  0
 19 21  1  0
 21 22  1  0
 21 23  2  0
 13 24  1  0
 24 25  1  0
 24 26  1  0
  6 27  1  0
 27 28  1  0
 28 29  1  0
 27  2  1  0
 23 16  1  0
  1 30  1  0
  1 31  1  0
  1 32  1  0
  2 33  1  0
  3 34  1  0
  3 35  1  0
  4 36  1  0
  4 37  1  0
  5 38  1  0
  5 39  1  0
  8 40  1  0
  8 41  1  0
  8 42  1  0
 11 43  1  0
 11 44  1  0
 14 45  1  0
 14 46  1  0
 17 47  1  0
 18 48  1  0
 20 49  1  0
 20 50  1  0
 23 51  1  0
 25 52  1  0
 25 53  1  0
 25 54  1  0
 26 55  1  0
 26 56  1  0
 26 57  1  0
 27 58  1  0
 28 59  1  0
 28 60  1  0
 29 61  1  0
M  END
>  <Energy>  (862) 
21.950344707203261

>  <compound_id>  (862) 
1132

>  <target_id>  (862) 
1

>  <reference_id>  (862) 
88

>  <inspiration_ids>  (862) 
[82, 88]

>  <energy_score>  (862) 
-24.703113275434447

>  <distance_score>  (862) 
4.786869530636416

>  <path>  (862) 
/opt/xchem-fragalysis-2/maxwin/BulkDock/SCRATCH/505733/C1132-P88/C1132-P88.minimised.mol

>  <scratch_subdir>  (862) 
/opt/xchem-fragalysis-2/maxwin/BulkDock/SCRATCH/505733/C1132-P88

>  <fragmenstein_runtime>  (862) 
19.881792306900024

>  <fragmenstein_outcome>  (862) 
too moved

>  <fragmenstein_mode>  (862) 
expansion

>  <fragmenstein_error>  (862) 


$$$$
C1135-P82
     RDKit          3D

 51 52  0  0  0  0  0  0  0  0999 V2000
  -13.9649  -23.9945   32.9277 C   0  0  0  0  0  0  0  0  0  0  0  0
  -13.4886  -23.1594   31.7697 C   0  0  0  0  0  0  0  0  0  0  0  0
  -13.0359  -21.8835   32.3909 C   0  0  0  0  0  0  0  0  0  0  0  0
  -11.7057  -22.0328   33.0460 C   0  0  0  0  0  0  0  0  0  0  0  0
  -11.0631  -23.4116   32.9050 C   0  0  0  0  0  0  0  0  0  0  0  0
  -11.1156  -24.0170   31.5980 N   0  0  0  0  0  0  0  0  0  0  0  0
  -10.1380  -25.3736   31.3287 S   0  0  0  0  0  0  0  0  0  0  0  0
  -10.7846  -26.4495   32.4932 C   0  0  0  0  0  0  0  0  0  0  0  0
   -8.8663  -25.0190   31.8997 O   0  0  0  0  0  0  0  0  0  0  0  0
  -10.4162  -25.7389   29.8654 N   0  0  0  0  0  0  0  0  0  0  0  0
  -11.4159  -26.7528   29.5005 C   0  0  0  0  0  0  0  0  0  0  0  0
  -11.6532  -26.9396   27.9893 C   0  0  0  0  0  0  0  0  0  0  0  0
  -12.4470  -28.1986   27.6003 C   0  0  0  0  0  0  0  0  0  0  0  0
  -12.2080  -25.7724   27.3685 N   0  0  0  0  0  0  0  0  0  0  0  0
  -13.3957  -25.7939   26.6929 N   0  0  0  0  0  0  0  0  0  0  0  0
  -13.3246  -24.7857   25.8737 C   0  0  0  0  0  0  0  0  0  0  0  0
  -14.2945  -24.5393   24.7919 C   0  0  0  0  0  0  0  0  0  0  0  0
  -14.4934  -25.6521   24.0273 F   0  0  0  0  0  0  0  0  0  0  0  0
  -15.5418  -24.1812   25.1807 F   0  0  0  0  0  0  0  0  0  0  0  0
  -13.9008  -23.5647   23.9271 F   0  0  0  0  0  0  0  0  0  0  0  0
  -12.1075  -23.9404   26.0180 C   0  0  0  0  0  0  0  0  0  0  0  0
  -11.3199  -24.8012   26.9233 C   0  0  0  0  0  0  0  0  0  0  0  0
  -10.1372  -24.7163   27.1800 O   0  0  0  0  0  0  0  0  0  0  0  0
  -12.3498  -23.7342   30.8847 C   0  0  0  0  0  0  0  0  0  0  0  0
  -11.9318  -22.7086   29.8198 C   0  0  0  0  0  0  0  0  0  0  0  0
  -11.0652  -23.1518   28.8266 O   0  0  0  0  0  0  0  0  0  0  0  0
  -15.0189  -24.2509   32.8179 H   0  0  0  0  0  0  0  0  0  0  0  0
  -13.3448  -24.8602   33.1173 H   0  0  0  0  0  0  0  0  0  0  0  0
  -13.9668  -23.4513   33.8798 H   0  0  0  0  0  0  0  0  0  0  0  0
  -14.3570  -22.9150   31.1545 H   0  0  0  0  0  0  0  0  0  0  0  0
  -12.8939  -21.2029   31.5851 H   0  0  0  0  0  0  0  0  0  0  0  0
  -13.7795  -21.4283   33.0559 H   0  0  0  0  0  0  0  0  0  0  0  0
  -11.0558  -21.2635   32.6100 H   0  0  0  0  0  0  0  0  0  0  0  0
  -11.8431  -21.7873   34.1022 H   0  0  0  0  0  0  0  0  0  0  0  0
  -11.4599  -24.0757   33.6787 H   0  0  0  0  0  0  0  0  0  0  0  0
  -10.0015  -23.3294   33.0950 H   0  0  0  0  0  0  0  0  0  0  0  0
  -11.8061  -26.1256   32.5933 H   0  0  0  0  0  0  0  0  0  0  0  0
  -10.3237  -26.2745   33.4661 H   0  0  0  0  0  0  0  0  0  0  0  0
  -10.6833  -27.4676   32.1379 H   0  0  0  0  0  0  0  0  0  0  0  0
  -12.3440  -26.4532   29.9508 H   0  0  0  0  0  0  0  0  0  0  0  0
  -11.1342  -27.6980   29.9518 H   0  0  0  0  0  0  0  0  0  0  0  0
  -10.6794  -27.0125   27.5127 H   0  0  0  0  0  0  0  0  0  0  0  0
  -12.1352  -29.0888   28.1392 H   0  0  0  0  0  0  0  0  0  0  0  0
  -13.5226  -28.0948   27.7510 H   0  0  0  0  0  0  0  0  0  0  0  0
  -12.3084  -28.4044   26.5314 H   0  0  0  0  0  0  0  0  0  0  0  0
  -12.3411  -22.9836   26.4790 H   0  0  0  0  0  0  0  0  0  0  0  0
  -11.6040  -23.8309   25.0573 H   0  0  0  0  0  0  0  0  0  0  0  0
  -12.7468  -24.6127   30.3911 H   0  0  0  0  0  0  0  0  0  0  0  0
  -12.8021  -22.3340   29.2988 H   0  0  0  0  0  0  0  0  0  0  0  0
  -11.4619  -21.8211   30.2506 H   0  0  0  0  0  0  0  0  0  0  0  0
  -10.6449  -23.9959   29.1274 H   0  0  0  0  0  0  0  0  0  0  0  0
  1  2  1  0
  2  3  1  0
  3  4  1  0
  4  5  1  0
  5  6  1  0
  6  7  1  0
  7  8  1  0
  7  9  2  0
  7 10  2  0
 10 11  1  0
 11 12  1  0
 12 13  1  0
 12 14  1  0
 14 15  1  0
 15 16  2  0
 16 17  1  0
 17 18  1  0
 17 19  1  0
 17 20  1  0
 16 21  1  0
 21 22  1  0
 22 23  2  0
  6 24  1  0
 24 25  1  0
 25 26  1  0
 24  2  1  0
 22 14  1  0
  1 27  1  0
  1 28  1  0
  1 29  1  0
  2 30  1  0
  3 31  1  0
  3 32  1  0
  4 33  1  0
  4 34  1  0
  5 35  1  0
  5 36  1  0
  8 37  1  0
  8 38  1  0
  8 39  1  0
 11 40  1  0
 11 41  1  0
 12 42  1  0
 13 43  1  0
 13 44  1  0
 13 45  1  0
 21 46  1  0
 21 47  1  0
 24 48  1  0
 25 49  1  0
 25 50  1  0
 26 51  1  0
M  END
>  <Energy>  (863) 
56.726155591511507

>  <compound_id>  (863) 
1135

>  <target_id>  (863) 
1

>  <reference_id>  (863) 
82

>  <inspiration_ids>  (863) 
[82, 101]

>  <energy_score>  (863) 
-15.505629510094934

>  <distance_score>  (863) 
2.512419906616233

>  <path>  (863) 
/opt/xchem-fragalysis-2/maxwin/BulkDock/SCRATCH/505733/C1135-P82/C1135-P82.minimised.mol

>  <scratch_subdir>  (863) 
/opt/xchem-fragalysis-2/maxwin/BulkDock/SCRATCH/505733/C1135-P82

>  <fragmenstein_runtime>  (863) 
4.0447163581848145

>  <fragmenstein_outcome>  (863) 
too moved

>  <fragmenstein_mode>  (863) 
expansion

>  <fragmenstein_error>  (863) 


$$$$
C1135-P101
     RDKit          3D

 51 52  0  0  0  0  0  0  0  0999 V2000
  -13.8893  -22.6153   31.3955 C   0  0  0  0  0  0  0  0  0  0  0  0
  -12.4132  -22.6363   31.6768 C   0  0  0  0  0  0  0  0  0  0  0  0
  -12.2888  -22.8195   33.1689 C   0  0  0  0  0  0  0  0  0  0  0  0
  -11.8135  -24.1890   33.4841 C   0  0  0  0  0  0  0  0  0  0  0  0
  -10.5723  -24.4703   32.6827 C   0  0  0  0  0  0  0  0  0  0  0  0
  -10.7982  -24.6208   31.2472 N   0  0  0  0  0  0  0  0  0  0  0  0
   -9.6938  -25.5902   30.4306 S   0  0  0  0  0  0  0  0  0  0  0  0
   -9.7118  -27.3153   30.6916 C   0  0  0  0  0  0  0  0  0  0  0  0
   -8.5106  -25.2166   31.1476 O   0  0  0  0  0  0  0  0  0  0  0  0
   -9.9340  -25.4397   28.9095 N   0  0  0  0  0  0  0  0  0  0  0  0
  -11.0349  -26.2815   28.3899 C   0  0  0  0  0  0  0  0  0  0  0  0
  -11.2307  -26.3069   26.8941 C   0  0  0  0  0  0  0  0  0  0  0  0
  -12.3105  -27.3334   26.5214 C   0  0  0  0  0  0  0  0  0  0  0  0
  -11.6824  -25.0449   26.4188 N   0  0  0  0  0  0  0  0  0  0  0  0
  -11.1922  -24.4156   25.3116 N   0  0  0  0  0  0  0  0  0  0  0  0
  -12.1349  -23.5729   24.9902 C   0  0  0  0  0  0  0  0  0  0  0  0
  -12.0840  -22.4986   23.9719 C   0  0  0  0  0  0  0  0  0  0  0  0
  -10.9644  -22.5270   23.2088 F   0  0  0  0  0  0  0  0  0  0  0  0
  -13.1350  -22.6164   23.1002 F   0  0  0  0  0  0  0  0  0  0  0  0
  -12.1608  -21.2200   24.4291 F   0  0  0  0  0  0  0  0  0  0  0  0
  -13.4321  -23.9299   25.6074 C   0  0  0  0  0  0  0  0  0  0  0  0
  -12.9290  -24.5872   26.8232 C   0  0  0  0  0  0  0  0  0  0  0  0
  -13.5463  -24.8510   27.8342 O   0  0  0  0  0  0  0  0  0  0  0  0
  -11.6991  -23.6127   30.6654 C   0  0  0  0  0  0  0  0  0  0  0  0
  -11.4180  -22.6758   29.4453 C   0  0  0  0  0  0  0  0  0  0  0  0
  -10.8662  -23.1758   28.2576 O   0  0  0  0  0  0  0  0  0  0  0  0
  -14.3383  -21.6496   31.6402 H   0  0  0  0  0  0  0  0  0  0  0  0
  -14.0368  -22.8254   30.3501 H   0  0  0  0  0  0  0  0  0  0  0  0
  -14.4484  -23.3399   31.9957 H   0  0  0  0  0  0  0  0  0  0  0  0
  -12.0336  -21.6234   31.4944 H   0  0  0  0  0  0  0  0  0  0  0  0
  -11.5973  -22.0726   33.5432 H   0  0  0  0  0  0  0  0  0  0  0  0
  -13.2211  -22.6122   33.7085 H   0  0  0  0  0  0  0  0  0  0  0  0
  -11.5891  -24.2879   34.5401 H   0  0  0  0  0  0  0  0  0  0  0  0
  -12.6242  -24.8813   33.2904 H   0  0  0  0  0  0  0  0  0  0  0  0
  -10.1359  -25.3753   33.1071 H   0  0  0  0  0  0  0  0  0  0  0  0
   -9.8274  -23.6837   32.8454 H   0  0  0  0  0  0  0  0  0  0  0  0
   -9.2647  -27.6538   31.6032 H   0  0  0  0  0  0  0  0  0  0  0  0
   -9.1095  -27.7367   29.9110 H   0  0  0  0  0  0  0  0  0  0  0  0
  -10.6548  -27.7765   30.5196 H   0  0  0  0  0  0  0  0  0  0  0  0
  -11.9120  -25.9064   28.8755 H   0  0  0  0  0  0  0  0  0  0  0  0
  -10.9223  -27.3205   28.6645 H   0  0  0  0  0  0  0  0  0  0  0  0
  -10.3123  -26.5977   26.3955 H   0  0  0  0  0  0  0  0  0  0  0  0
  -13.2783  -27.1449   26.9773 H   0  0  0  0  0  0  0  0  0  0  0  0
  -12.5433  -27.2528   25.4586 H   0  0  0  0  0  0  0  0  0  0  0  0
  -12.0233  -28.3461   26.8050 H   0  0  0  0  0  0  0  0  0  0  0  0
  -13.9124  -24.6938   24.9826 H   0  0  0  0  0  0  0  0  0  0  0  0
  -14.1464  -23.1343   25.7009 H   0  0  0  0  0  0  0  0  0  0  0  0
  -12.4293  -24.2310   30.1732 H   0  0  0  0  0  0  0  0  0  0  0  0
  -12.3833  -22.2914   29.1078 H   0  0  0  0  0  0  0  0  0  0  0  0
  -10.9040  -21.7515   29.7278 H   0  0  0  0  0  0  0  0  0  0  0  0
  -10.3163  -23.9653   28.4814 H   0  0  0  0  0  0  0  0  0  0  0  0
  1  2  1  0
  2  3  1  0
  3  4  1  0
  4  5  1  0
  5  6  1  0
  6  7  1  0
  7  8  1  0
  7  9  2  0
  7 10  2  0
 10 11  1  0
 11 12  1  0
 12 13  1  0
 12 14  1  0
 14 15  1  0
 15 16  2  0
 16 17  1  0
 17 18  1  0
 17 19  1  0
 17 20  1  0
 16 21  1  0
 21 22  1  0
 22 23  2  0
  6 24  1  0
 24 25  1  0
 25 26  1  0
 24  2  1  0
 22 14  1  0
  1 27  1  0
  1 28  1  0
  1 29  1  0
  2 30  1  0
  3 31  1  0
  3 32  1  0
  4 33  1  0
  4 34  1  0
  5 35  1  0
  5 36  1  0
  8 37  1  0
  8 38  1  0
  8 39  1  0
 11 40  1  0
 11 41  1  0
 12 42  1  0
 13 43  1  0
 13 44  1  0
 13 45  1  0
 21 46  1  0
 21 47  1  0
 24 48  1  0
 25 49  1  0
 25 50  1  0
 26 51  1  0
M  END
>  <Energy>  (864) 
74.233720075796199

>  <compound_id>  (864) 
1135

>  <target_id>  (864) 
1

>  <reference_id>  (864) 
101

>  <inspiration_ids>  (864) 
[82, 101]

>  <energy_score>  (864) 
2.001934974190249

>  <distance_score>  (864) 
2.7355726847784743

>  <path>  (864) 
/opt/xchem-fragalysis-2/maxwin/BulkDock/SCRATCH/505733/C1135-P101/C1135-P101.minimised.mol

>  <scratch_subdir>  (864) 
/opt/xchem-fragalysis-2/maxwin/BulkDock/SCRATCH/505733/C1135-P101

>  <fragmenstein_runtime>  (864) 
4.462427616119385

>  <fragmenstein_outcome>  (864) 
too moved

>  <fragmenstein_mode>  (864) 
expansion

>  <fragmenstein_error>  (864) 


$$$$
C1136-P82
     RDKit          3D

 57 59  0  0  0  0  0  0  0  0999 V2000
  -15.9814  -21.6058   31.2825 C   0  0  0  0  0  0  0  0  0  0  0  0
  -15.3118  -22.8138   31.9139 C   0  0  0  0  0  0  0  0  0  0  0  0
  -15.3390  -22.6007   33.4213 C   0  0  0  0  0  0  0  0  0  0  0  0
  -14.6129  -23.7939   33.9604 C   0  0  0  0  0  0  0  0  0  0  0  0
  -13.1474  -23.7995   33.5489 C   0  0  0  0  0  0  0  0  0  0  0  0
  -12.8956  -22.8694   32.4528 N   0  0  0  0  0  0  0  0  0  0  0  0
  -11.3436  -22.5268   31.9517 S   0  0  0  0  0  0  0  0  0  0  0  0
  -10.2310  -23.8005   32.6262 C   0  0  0  0  0  0  0  0  0  0  0  0
  -11.1175  -21.2069   32.4804 O   0  0  0  0  0  0  0  0  0  0  0  0
  -11.3010  -22.8314   30.4436 N   0  0  0  0  0  0  0  0  0  0  0  0
  -11.5092  -21.9082   29.3614 C   0  0  0  0  0  0  0  0  0  0  0  0
  -11.1570  -22.6232   28.0517 C   0  0  0  0  0  0  0  0  0  0  0  0
  -12.2739  -22.9797   27.0815 C   0  0  0  0  0  0  0  0  0  0  0  0
  -12.5104  -24.2549   26.4487 N   0  0  0  0  0  0  0  0  0  0  0  0
  -13.3309  -24.4351   25.3357 C   0  0  0  0  0  0  0  0  0  0  0  0
  -13.8107  -23.3973   24.3740 C   0  0  0  0  0  0  0  0  0  0  0  0
  -12.7803  -22.4908   24.0375 O   0  0  0  0  0  0  0  0  0  0  0  0
  -13.6746  -25.7054   25.2064 N   0  0  0  0  0  0  0  0  0  0  0  0
  -13.0415  -26.3661   26.2059 C   0  0  0  0  0  0  0  0  0  0  0  0
  -13.1125  -27.7272   26.5173 C   0  0  0  0  0  0  0  0  0  0  0  0
  -12.4875  -28.1604   27.6801 C   0  0  0  0  0  0  0  0  0  0  0  0
  -11.7717  -27.2587   28.4708 C   0  0  0  0  0  0  0  0  0  0  0  0
  -11.5875  -25.9341   28.0978 C   0  0  0  0  0  0  0  0  0  0  0  0
  -12.2910  -25.4956   26.9877 C   0  0  0  0  0  0  0  0  0  0  0  0
  -13.8479  -23.1203   31.3961 C   0  0  0  0  0  0  0  0  0  0  0  0
  -13.2348  -24.3530   30.5879 C   0  0  0  0  0  0  0  0  0  0  0  0
  -12.2387  -25.1878   31.1904 O   0  0  0  0  0  0  0  0  0  0  0  0
  -16.9095  -21.3483   31.8071 H   0  0  0  0  0  0  0  0  0  0  0  0
  -16.2742  -21.8392   30.2620 H   0  0  0  0  0  0  0  0  0  0  0  0
  -15.3449  -20.7233   31.3109 H   0  0  0  0  0  0  0  0  0  0  0  0
  -16.0244  -23.6042   31.7520 H   0  0  0  0  0  0  0  0  0  0  0  0
  -14.8672  -21.6574   33.7224 H   0  0  0  0  0  0  0  0  0  0  0  0
  -16.3695  -22.5807   33.7963 H   0  0  0  0  0  0  0  0  0  0  0  0
  -14.7176  -23.8271   35.0152 H   0  0  0  0  0  0  0  0  0  0  0  0
  -15.1487  -24.6793   33.6348 H   0  0  0  0  0  0  0  0  0  0  0  0
  -12.4987  -23.5013   34.3670 H   0  0  0  0  0  0  0  0  0  0  0  0
  -12.8524  -24.8296   33.3445 H   0  0  0  0  0  0  0  0  0  0  0  0
   -9.9909  -24.5447   31.8654 H   0  0  0  0  0  0  0  0  0  0  0  0
  -10.6925  -24.3226   33.4557 H   0  0  0  0  0  0  0  0  0  0  0  0
   -9.2776  -23.3657   32.8929 H   0  0  0  0  0  0  0  0  0  0  0  0
  -12.5061  -21.4941   29.3295 H   0  0  0  0  0  0  0  0  0  0  0  0
  -10.8357  -21.0732   29.5238 H   0  0  0  0  0  0  0  0  0  0  0  0
  -10.3976  -23.3988   28.1262 H   0  0  0  0  0  0  0  0  0  0  0  0
  -10.7008  -21.7828   27.5608 H   0  0  0  0  0  0  0  0  0  0  0  0
  -13.2045  -22.7503   27.5625 H   0  0  0  0  0  0  0  0  0  0  0  0
  -12.1095  -22.3056   26.2519 H   0  0  0  0  0  0  0  0  0  0  0  0
  -14.0955  -23.8894   23.4501 H   0  0  0  0  0  0  0  0  0  0  0  0
  -14.7145  -22.8875   24.6913 H   0  0  0  0  0  0  0  0  0  0  0  0
  -12.9881  -21.6736   24.5372 H   0  0  0  0  0  0  0  0  0  0  0  0
  -13.6908  -28.4026   25.8986 H   0  0  0  0  0  0  0  0  0  0  0  0
  -12.5787  -29.2004   27.9806 H   0  0  0  0  0  0  0  0  0  0  0  0
  -11.3346  -27.5708   29.4168 H   0  0  0  0  0  0  0  0  0  0  0  0
  -10.9887  -25.2823   28.7152 H   0  0  0  0  0  0  0  0  0  0  0  0
  -13.7423  -22.2858   30.7053 H   0  0  0  0  0  0  0  0  0  0  0  0
  -13.8032  -24.9800   29.9637 H   0  0  0  0  0  0  0  0  0  0  0  0
  -12.7729  -23.9598   29.6872 H   0  0  0  0  0  0  0  0  0  0  0  0
  -11.4430  -24.9199   30.6993 H   0  0  0  0  0  0  0  0  0  0  0  0
  1  2  1  0
  2  3  1  0
  3  4  1  0
  4  5  1  0
  5  6  1  0
  6  7  1  0
  7  8  1  0
  7  9  2  0
  7 10  2  0
 10 11  1  0
 11 12  1  0
 12 13  1  0
 13 14  1  0
 14 15  1  0
 15 16  1  0
 16 17  1  0
 15 18  2  0
 18 19  1  0
 19 20  2  0
 20 21  1  0
 21 22  2  0
 22 23  1  0
 23 24  2  0
  6 25  1  0
 25 26  1  0
 26 27  1  0
 25  2  1  0
 24 14  1  0
 24 19  1  0
  1 28  1  0
  1 29  1  0
  1 30  1  0
  2 31  1  0
  3 32  1  0
  3 33  1  0
  4 34  1  0
  4 35  1  0
  5 36  1  0
  5 37  1  0
  8 38  1  0
  8 39  1  0
  8 40  1  0
 11 41  1  0
 11 42  1  0
 12 43  1  0
 12 44  1  0
 13 45  1  0
 13 46  1  0
 16 47  1  0
 16 48  1  0
 17 49  1  0
 20 50  1  0
 21 51  1  0
 22 52  1  0
 23 53  1  0
 25 54  1  0
 26 55  1  0
 26 56  1  0
 27 57  1  0
M  END
>  <Energy>  (865) 
57.540665085225193

>  <compound_id>  (865) 
1136

>  <target_id>  (865) 
1

>  <reference_id>  (865) 
82

>  <inspiration_ids>  (865) 
[82, 104]

>  <energy_score>  (865) 
38.565165192649204

>  <distance_score>  (865) 
3.2357374118080466

>  <path>  (865) 
/opt/xchem-fragalysis-2/maxwin/BulkDock/SCRATCH/505733/C1136-P82/C1136-P82.minimised.mol

>  <scratch_subdir>  (865) 
/opt/xchem-fragalysis-2/maxwin/BulkDock/SCRATCH/505733/C1136-P82

>  <fragmenstein_runtime>  (865) 
13.761887788772583

>  <fragmenstein_outcome>  (865) 
too moved

>  <fragmenstein_mode>  (865) 
expansion

>  <fragmenstein_error>  (865) 


$$$$
C1136-P104
     RDKit          3D

 57 59  0  0  0  0  0  0  0  0999 V2000
  -11.5115  -22.8801   30.5141 C   0  0  0  0  0  0  0  0  0  0  0  0
  -11.1082  -24.1293   31.3563 C   0  0  0  0  0  0  0  0  0  0  0  0
  -10.4801  -23.4629   32.5057 C   0  0  0  0  0  0  0  0  0  0  0  0
   -9.3382  -24.3048   32.8522 C   0  0  0  0  0  0  0  0  0  0  0  0
   -8.4949  -24.8099   31.6024 C   0  0  0  0  0  0  0  0  0  0  0  0
   -9.2498  -24.8454   30.3063 N   0  0  0  0  0  0  0  0  0  0  0  0
   -9.3318  -24.7450   28.5005 S   0  0  0  0  0  0  0  0  0  0  0  0
   -9.0906  -23.2281   27.7433 C   0  0  0  0  0  0  0  0  0  0  0  0
   -8.2016  -25.4969   28.0294 O   0  0  0  0  0  0  0  0  0  0  0  0
  -10.7669  -25.1289   28.0403 N   0  0  0  0  0  0  0  0  0  0  0  0
  -11.7326  -24.2843   27.3355 C   0  0  0  0  0  0  0  0  0  0  0  0
  -11.6575  -24.3335   25.8189 C   0  0  0  0  0  0  0  0  0  0  0  0
  -12.8623  -23.5937   25.2281 C   0  0  0  0  0  0  0  0  0  0  0  0
  -14.1584  -24.2441   25.3083 N   0  0  0  0  0  0  0  0  0  0  0  0
  -15.3647  -23.5741   25.1824 C   0  0  0  0  0  0  0  0  0  0  0  0
  -15.5419  -22.2103   24.6132 C   0  0  0  0  0  0  0  0  0  0  0  0
  -16.4002  -22.3723   23.4865 O   0  0  0  0  0  0  0  0  0  0  0  0
  -16.3566  -24.3065   25.6456 N   0  0  0  0  0  0  0  0  0  0  0  0
  -15.7973  -25.4929   26.0212 C   0  0  0  0  0  0  0  0  0  0  0  0
  -16.4033  -26.5871   26.6526 C   0  0  0  0  0  0  0  0  0  0  0  0
  -15.6369  -27.7175   26.9340 C   0  0  0  0  0  0  0  0  0  0  0  0
  -14.3115  -27.7851   26.5196 C   0  0  0  0  0  0  0  0  0  0  0  0
  -13.6997  -26.7131   25.8704 C   0  0  0  0  0  0  0  0  0  0  0  0
  -14.4429  -25.5375   25.6986 C   0  0  0  0  0  0  0  0  0  0  0  0
  -10.3101  -25.5497   30.8366 C   0  0  0  0  0  0  0  0  0  0  0  0
  -10.0869  -26.8991   29.9653 C   0  0  0  0  0  0  0  0  0  0  0  0
   -9.4210  -27.9147   30.7517 O   0  0  0  0  0  0  0  0  0  0  0  0
  -12.2941  -22.3713   31.0880 H   0  0  0  0  0  0  0  0  0  0  0  0
  -10.7764  -22.0840   30.4018 H   0  0  0  0  0  0  0  0  0  0  0  0
  -11.8843  -23.0765   29.5263 H   0  0  0  0  0  0  0  0  0  0  0  0
  -11.9564  -24.4599   31.9759 H   0  0  0  0  0  0  0  0  0  0  0  0
  -10.1564  -22.4413   32.2979 H   0  0  0  0  0  0  0  0  0  0  0  0
  -11.2115  -23.3583   33.3170 H   0  0  0  0  0  0  0  0  0  0  0  0
   -8.8016  -23.5240   33.3849 H   0  0  0  0  0  0  0  0  0  0  0  0
   -9.5921  -25.1195   33.5402 H   0  0  0  0  0  0  0  0  0  0  0  0
   -7.6995  -24.1358   31.8205 H   0  0  0  0  0  0  0  0  0  0  0  0
   -8.0396  -25.7732   31.8174 H   0  0  0  0  0  0  0  0  0  0  0  0
   -9.2214  -23.6016   26.7331 H   0  0  0  0  0  0  0  0  0  0  0  0
   -8.1034  -22.7869   27.6853 H   0  0  0  0  0  0  0  0  0  0  0  0
   -9.8433  -22.4961   28.0301 H   0  0  0  0  0  0  0  0  0  0  0  0
  -12.7194  -24.6292   27.6387 H   0  0  0  0  0  0  0  0  0  0  0  0
  -11.6902  -23.2388   27.6357 H   0  0  0  0  0  0  0  0  0  0  0  0
  -11.5312  -25.3379   25.4264 H   0  0  0  0  0  0  0  0  0  0  0  0
  -10.7651  -23.8320   25.4699 H   0  0  0  0  0  0  0  0  0  0  0  0
  -12.9660  -22.6307   25.7469 H   0  0  0  0  0  0  0  0  0  0  0  0
  -12.6827  -23.3443   24.1828 H   0  0  0  0  0  0  0  0  0  0  0  0
  -16.0475  -21.5274   25.2922 H   0  0  0  0  0  0  0  0  0  0  0  0
  -14.6067  -21.7582   24.2803 H   0  0  0  0  0  0  0  0  0  0  0  0
  -17.2687  -22.5958   23.8872 H   0  0  0  0  0  0  0  0  0  0  0  0
  -17.4509  -26.5363   26.9309 H   0  0  0  0  0  0  0  0  0  0  0  0
  -16.0925  -28.5576   27.4530 H   0  0  0  0  0  0  0  0  0  0  0  0
  -13.7249  -28.6857   26.7048 H   0  0  0  0  0  0  0  0  0  0  0  0
  -12.6712  -26.8399   25.5628 H   0  0  0  0  0  0  0  0  0  0  0  0
  -10.1611  -26.0366   31.8080 H   0  0  0  0  0  0  0  0  0  0  0  0
  -10.9345  -27.3108   29.4294 H   0  0  0  0  0  0  0  0  0  0  0  0
   -9.4195  -26.9194   29.1237 H   0  0  0  0  0  0  0  0  0  0  0  0
   -8.8069  -27.5077   31.3901 H   0  0  0  0  0  0  0  0  0  0  0  0
  1  2  1  0
  2  3  1  0
  3  4  1  0
  4  5  1  0
  5  6  1  0
  6  7  1  0
  7  8  1  0
  7  9  2  0
  7 10  2  0
 10 11  1  0
 11 12  1  0
 12 13  1  0
 13 14  1  0
 14 15  1  0
 15 16  1  0
 16 17  1  0
 15 18  2  0
 18 19  1  0
 19 20  2  0
 20 21  1  0
 21 22  2  0
 22 23  1  0
 23 24  2  0
  6 25  1  0
 25 26  1  0
 26 27  1  0
 25  2  1  0
 24 14  1  0
 24 19  1  0
  1 28  1  0
  1 29  1  0
  1 30  1  0
  2 31  1  0
  3 32  1  0
  3 33  1  0
  4 34  1  0
  4 35  1  0
  5 36  1  0
  5 37  1  0
  8 38  1  0
  8 39  1  0
  8 40  1  0
 11 41  1  0
 11 42  1  0
 12 43  1  0
 12 44  1  0
 13 45  1  0
 13 46  1  0
 16 47  1  0
 16 48  1  0
 17 49  1  0
 20 50  1  0
 21 51  1  0
 22 52  1  0
 23 53  1  0
 25 54  1  0
 26 55  1  0
 26 56  1  0
 27 57  1  0
M  END
>  <Energy>  (866) 
179.64913616582228

>  <compound_id>  (866) 
1136

>  <target_id>  (866) 
1

>  <reference_id>  (866) 
104

>  <inspiration_ids>  (866) 
[82, 104]

>  <energy_score>  (866) 
160.67363627324664

>  <distance_score>  (866) 
3.478730798007896

>  <path>  (866) 
/opt/xchem-fragalysis-2/maxwin/BulkDock/SCRATCH/505733/C1136-P104/C1136-P104.minimised.mol

>  <scratch_subdir>  (866) 
/opt/xchem-fragalysis-2/maxwin/BulkDock/SCRATCH/505733/C1136-P104

>  <fragmenstein_runtime>  (866) 
14.502920150756836

>  <fragmenstein_outcome>  (866) 
too moved

>  <fragmenstein_mode>  (866) 
expansion

>  <fragmenstein_error>  (866) 


$$$$
C1137-P82
     RDKit          3D

 51 53  0  0  0  0  0  0  0  0999 V2000
  -13.5641  -26.5971   25.5850 C   0  0  0  0  0  0  0  0  0  0  0  0
  -12.0952  -26.3107   25.9603 C   0  0  0  0  0  0  0  0  0  0  0  0
  -11.7469  -24.8438   25.6467 C   0  0  0  0  0  0  0  0  0  0  0  0
  -11.4850  -24.0224   26.8753 C   0  0  0  0  0  0  0  0  0  0  0  0
  -12.3904  -24.5398   27.9585 C   0  0  0  0  0  0  0  0  0  0  0  0
  -11.9785  -25.8126   28.5323 N   0  0  0  0  0  0  0  0  0  0  0  0
  -10.9540  -25.6220   29.9376 S   0  0  0  0  0  0  0  0  0  0  0  0
  -10.1560  -27.0567   30.4512 C   0  0  0  0  0  0  0  0  0  0  0  0
   -9.8904  -24.7929   29.4341 O   0  0  0  0  0  0  0  0  0  0  0  0
  -11.9016  -25.2753   31.0770 N   0  0  0  0  0  0  0  0  0  0  0  0
  -11.4297  -24.8323   32.4028 C   0  0  0  0  0  0  0  0  0  0  0  0
  -12.5844  -24.4598   33.3954 C   0  0  0  0  0  0  0  0  0  0  0  0
  -13.7387  -23.7103   32.9354 O   0  0  0  0  0  0  0  0  0  0  0  0
  -13.2652  -22.6047   32.2803 C   0  0  0  0  0  0  0  0  0  0  0  0
  -12.9967  -22.6695   30.9787 C   0  0  0  0  0  0  0  0  0  0  0  0
  -11.8914  -21.8230   30.5571 C   0  0  0  0  0  0  0  0  0  0  0  0
  -11.7199  -21.7911   29.2313 O   0  0  0  0  0  0  0  0  0  0  0  0
  -11.1340  -21.1078   31.3150 N   0  0  0  0  0  0  0  0  0  0  0  0
  -11.5970  -20.9283   32.5861 C   0  0  0  0  0  0  0  0  0  0  0  0
  -11.2789  -20.0050   33.4672 N   0  0  0  0  0  0  0  0  0  0  0  0
  -12.3061  -19.9565   34.3751 C   0  0  0  0  0  0  0  0  0  0  0  0
  -13.2594  -20.8777   34.0412 C   0  0  0  0  0  0  0  0  0  0  0  0
  -12.7269  -21.5809   33.0060 N   0  0  0  0  0  0  0  0  0  0  0  0
  -11.6876  -26.7461   27.4234 C   0  0  0  0  0  0  0  0  0  0  0  0
  -12.3420  -28.1102   27.7262 C   0  0  0  0  0  0  0  0  0  0  0  0
  -11.9162  -29.1075   26.8033 O   0  0  0  0  0  0  0  0  0  0  0  0
  -13.7365  -27.6709   25.4597 H   0  0  0  0  0  0  0  0  0  0  0  0
  -14.2616  -26.2317   26.3401 H   0  0  0  0  0  0  0  0  0  0  0  0
  -13.8395  -26.1373   24.6320 H   0  0  0  0  0  0  0  0  0  0  0  0
  -11.4984  -26.9236   25.2706 H   0  0  0  0  0  0  0  0  0  0  0  0
  -12.5770  -24.3601   25.1185 H   0  0  0  0  0  0  0  0  0  0  0  0
  -10.8883  -24.7739   24.9772 H   0  0  0  0  0  0  0  0  0  0  0  0
  -11.7154  -22.9715   26.6736 H   0  0  0  0  0  0  0  0  0  0  0  0
  -10.4311  -24.0736   27.1573 H   0  0  0  0  0  0  0  0  0  0  0  0
  -12.4526  -23.7917   28.7191 H   0  0  0  0  0  0  0  0  0  0  0  0
  -13.3872  -24.6577   27.5476 H   0  0  0  0  0  0  0  0  0  0  0  0
   -9.4431  -27.2632   29.6762 H   0  0  0  0  0  0  0  0  0  0  0  0
  -10.8663  -27.8487   30.6395 H   0  0  0  0  0  0  0  0  0  0  0  0
   -9.5969  -26.8154   31.3501 H   0  0  0  0  0  0  0  0  0  0  0  0
  -10.7688  -23.9675   32.2787 H   0  0  0  0  0  0  0  0  0  0  0  0
  -10.8251  -25.6143   32.8746 H   0  0  0  0  0  0  0  0  0  0  0  0
  -12.1298  -23.9188   34.2327 H   0  0  0  0  0  0  0  0  0  0  0  0
  -13.0046  -25.3567   33.8264 H   0  0  0  0  0  0  0  0  0  0  0  0
  -13.2960  -23.5378   30.4383 H   0  0  0  0  0  0  0  0  0  0  0  0
  -11.0443  -21.1359   28.9791 H   0  0  0  0  0  0  0  0  0  0  0  0
  -12.3220  -19.2124   35.1605 H   0  0  0  0  0  0  0  0  0  0  0  0
  -14.2652  -21.0705   34.3728 H   0  0  0  0  0  0  0  0  0  0  0  0
  -10.6001  -26.8214   27.3668 H   0  0  0  0  0  0  0  0  0  0  0  0
  -13.4318  -28.0587   27.6680 H   0  0  0  0  0  0  0  0  0  0  0  0
  -12.1096  -28.4399   28.7347 H   0  0  0  0  0  0  0  0  0  0  0  0
  -12.4038  -29.9248   27.0112 H   0  0  0  0  0  0  0  0  0  0  0  0
  1  2  1  0
  2  3  1  0
  3  4  1  0
  4  5  1  0
  5  6  1  0
  6  7  1  0
  7  8  1  0
  7  9  2  0
  7 10  2  0
 10 11  1  0
 11 12  1  0
 12 13  1  0
 13 14  1  0
 14 15  2  0
 15 16  1  0
 16 17  1  0
 16 18  2  0
 18 19  1  0
 19 20  2  0
 20 21  1  0
 21 22  2  0
 22 23  1  0
  6 24  1  0
 24 25  1  0
 25 26  1  0
 24  2  1  0
 23 14  1  0
 23 19  1  0
  1 27  1  0
  1 28  1  0
  1 29  1  0
  2 30  1  0
  3 31  1  0
  3 32  1  0
  4 33  1  0
  4 34  1  0
  5 35  1  0
  5 36  1  0
  8 37  1  0
  8 38  1  0
  8 39  1  0
 11 40  1  0
 11 41  1  0
 12 42  1  0
 12 43  1  0
 15 44  1  0
 17 45  1  0
 21 46  1  0
 22 47  1  0
 24 48  1  0
 25 49  1  0
 25 50  1  0
 26 51  1  0
M  END
>  <Energy>  (867) 
14.423913959804757

>  <compound_id>  (867) 
1137

>  <target_id>  (867) 
1

>  <reference_id>  (867) 
82

>  <inspiration_ids>  (867) 
[82, 107]

>  <energy_score>  (867) 
-45.40067159785863

>  <distance_score>  (867) 
4.0045734111054

>  <path>  (867) 
/opt/xchem-fragalysis-2/maxwin/BulkDock/SCRATCH/505733/C1137-P82/C1137-P82.minimised.mol

>  <scratch_subdir>  (867) 
/opt/xchem-fragalysis-2/maxwin/BulkDock/SCRATCH/505733/C1137-P82

>  <fragmenstein_runtime>  (867) 
15.740399599075317

>  <fragmenstein_outcome>  (867) 
too moved

>  <fragmenstein_mode>  (867) 
expansion

>  <fragmenstein_error>  (867) 


$$$$
C1137-P107
     RDKit          3D

 51 53  0  0  0  0  0  0  0  0999 V2000
  -13.0552  -25.4964   27.7292 C   0  0  0  0  0  0  0  0  0  0  0  0
  -12.2593  -26.5186   28.5337 C   0  0  0  0  0  0  0  0  0  0  0  0
  -11.0500  -26.8429   27.7309 C   0  0  0  0  0  0  0  0  0  0  0  0
   -9.9731  -25.8139   27.8336 C   0  0  0  0  0  0  0  0  0  0  0  0
   -9.8902  -24.9945   29.1021 C   0  0  0  0  0  0  0  0  0  0  0  0
  -10.8423  -25.1601   30.1754 N   0  0  0  0  0  0  0  0  0  0  0  0
  -10.4111  -24.7877   31.7881 S   0  0  0  0  0  0  0  0  0  0  0  0
   -8.8807  -25.3963   32.2880 C   0  0  0  0  0  0  0  0  0  0  0  0
  -10.2180  -23.3758   31.8405 O   0  0  0  0  0  0  0  0  0  0  0  0
  -11.5438  -25.3441   32.6243 N   0  0  0  0  0  0  0  0  0  0  0  0
  -11.9160  -24.5134   33.7611 C   0  0  0  0  0  0  0  0  0  0  0  0
  -13.3932  -24.1287   33.8134 C   0  0  0  0  0  0  0  0  0  0  0  0
  -14.0310  -23.6513   32.6240 O   0  0  0  0  0  0  0  0  0  0  0  0
  -13.2815  -22.9014   31.7658 C   0  0  0  0  0  0  0  0  0  0  0  0
  -13.1362  -23.1637   30.4562 C   0  0  0  0  0  0  0  0  0  0  0  0
  -12.1212  -22.3429   29.7585 C   0  0  0  0  0  0  0  0  0  0  0  0
  -12.0534  -22.5396   28.4299 O   0  0  0  0  0  0  0  0  0  0  0  0
  -11.3460  -21.4602   30.2847 N   0  0  0  0  0  0  0  0  0  0  0  0
  -11.5417  -21.2665   31.6273 C   0  0  0  0  0  0  0  0  0  0  0  0
  -10.9500  -20.4508   32.4690 N   0  0  0  0  0  0  0  0  0  0  0  0
  -11.7845  -20.3239   33.5567 C   0  0  0  0  0  0  0  0  0  0  0  0
  -12.8103  -21.2046   33.4623 C   0  0  0  0  0  0  0  0  0  0  0  0
  -12.5792  -21.8671   32.2932 N   0  0  0  0  0  0  0  0  0  0  0  0
  -11.7878  -26.2447   29.9805 C   0  0  0  0  0  0  0  0  0  0  0  0
  -11.2432  -27.5260   30.6683 C   0  0  0  0  0  0  0  0  0  0  0  0
   -9.8470  -27.6547   30.4780 O   0  0  0  0  0  0  0  0  0  0  0  0
  -13.8345  -24.9969   28.2932 H   0  0  0  0  0  0  0  0  0  0  0  0
  -12.4126  -24.7545   27.2538 H   0  0  0  0  0  0  0  0  0  0  0  0
  -13.5638  -26.0070   26.9007 H   0  0  0  0  0  0  0  0  0  0  0  0
  -12.8820  -27.4227   28.5546 H   0  0  0  0  0  0  0  0  0  0  0  0
  -11.2743  -27.0403   26.6783 H   0  0  0  0  0  0  0  0  0  0  0  0
  -10.6917  -27.7609   28.1440 H   0  0  0  0  0  0  0  0  0  0  0  0
   -9.0301  -26.3467   27.7101 H   0  0  0  0  0  0  0  0  0  0  0  0
  -10.0978  -25.1128   27.0019 H   0  0  0  0  0  0  0  0  0  0  0  0
   -8.8859  -25.1257   29.4973 H   0  0  0  0  0  0  0  0  0  0  0  0
   -9.9520  -23.9641   28.7509 H   0  0  0  0  0  0  0  0  0  0  0  0
   -8.9413  -25.5856   33.3581 H   0  0  0  0  0  0  0  0  0  0  0  0
   -8.1515  -24.6122   32.1578 H   0  0  0  0  0  0  0  0  0  0  0  0
   -8.5664  -26.2378   31.6996 H   0  0  0  0  0  0  0  0  0  0  0  0
  -11.3605  -23.5821   33.8037 H   0  0  0  0  0  0  0  0  0  0  0  0
  -11.5535  -25.0814   34.6127 H   0  0  0  0  0  0  0  0  0  0  0  0
  -13.5515  -23.3652   34.5626 H   0  0  0  0  0  0  0  0  0  0  0  0
  -13.9687  -24.9453   34.2315 H   0  0  0  0  0  0  0  0  0  0  0  0
  -13.6529  -23.9688   29.9872 H   0  0  0  0  0  0  0  0  0  0  0  0
  -12.7614  -23.0956   28.0958 H   0  0  0  0  0  0  0  0  0  0  0  0
  -11.6153  -19.5672   34.3115 H   0  0  0  0  0  0  0  0  0  0  0  0
  -13.7005  -21.3505   34.0508 H   0  0  0  0  0  0  0  0  0  0  0  0
  -12.6705  -25.9565   30.5250 H   0  0  0  0  0  0  0  0  0  0  0  0
  -11.3895  -27.5202   31.7433 H   0  0  0  0  0  0  0  0  0  0  0  0
  -11.7606  -28.4139   30.3029 H   0  0  0  0  0  0  0  0  0  0  0  0
   -9.4814  -28.0743   31.2856 H   0  0  0  0  0  0  0  0  0  0  0  0
  1  2  1  0
  2  3  1  0
  3  4  1  0
  4  5  1  0
  5  6  1  0
  6  7  1  0
  7  8  1  0
  7  9  2  0
  7 10  2  0
 10 11  1  0
 11 12  1  0
 12 13  1  0
 13 14  1  0
 14 15  2  0
 15 16  1  0
 16 17  1  0
 16 18  2  0
 18 19  1  0
 19 20  2  0
 20 21  1  0
 21 22  2  0
 22 23  1  0
  6 24  1  0
 24 25  1  0
 25 26  1  0
 24  2  1  0
 23 14  1  0
 23 19  1  0
  1 27  1  0
  1 28  1  0
  1 29  1  0
  2 30  1  0
  3 31  1  0
  3 32  1  0
  4 33  1  0
  4 34  1  0
  5 35  1  0
  5 36  1  0
  8 37  1  0
  8 38  1  0
  8 39  1  0
 11 40  1  0
 11 41  1  0
 12 42  1  0
 12 43  1  0
 15 44  1  0
 17 45  1  0
 21 46  1  0
 22 47  1  0
 24 48  1  0
 25 49  1  0
 25 50  1  0
 26 51  1  0
M  END
>  <Energy>  (868) 
39.279866494843702

>  <compound_id>  (868) 
1137

>  <target_id>  (868) 
1

>  <reference_id>  (868) 
107

>  <inspiration_ids>  (868) 
[82, 107]

>  <energy_score>  (868) 
-5.195557549688033

>  <distance_score>  (868) 
3.0092727543259983

>  <path>  (868) 
/opt/xchem-fragalysis-2/maxwin/BulkDock/SCRATCH/505733/C1137-P107/C1137-P107.minimised.mol

>  <scratch_subdir>  (868) 
/opt/xchem-fragalysis-2/maxwin/BulkDock/SCRATCH/505733/C1137-P107

>  <fragmenstein_runtime>  (868) 
7.154289484024048

>  <fragmenstein_outcome>  (868) 
too moved

>  <fragmenstein_mode>  (868) 
expansion

>  <fragmenstein_error>  (868) 


$$$$
C1138-P82
     RDKit          3D

 55 56  0  0  0  0  0  0  0  0999 V2000
  -12.8262  -23.9006   33.6198 C   0  0  0  0  0  0  0  0  0  0  0  0
  -12.4158  -23.9579   32.1736 C   0  0  0  0  0  0  0  0  0  0  0  0
  -12.1227  -22.5790   31.6245 C   0  0  0  0  0  0  0  0  0  0  0  0
  -11.8953  -22.6633   30.1194 C   0  0  0  0  0  0  0  0  0  0  0  0
  -11.6802  -24.0926   29.5821 C   0  0  0  0  0  0  0  0  0  0  0  0
  -11.0605  -24.0864   28.2698 N   0  0  0  0  0  0  0  0  0  0  0  0
  -11.9620  -24.5792   27.1939 C   0  0  0  0  0  0  0  0  0  0  0  0
  -11.4429  -25.7110   26.3462 C   0  0  0  0  0  0  0  0  0  0  0  0
  -10.8745  -25.1824   25.1957 O   0  0  0  0  0  0  0  0  0  0  0  0
  -12.5104  -26.7031   25.9407 C   0  0  0  0  0  0  0  0  0  0  0  0
  -13.7567  -26.3473   25.4189 C   0  0  0  0  0  0  0  0  0  0  0  0
  -14.7844  -27.2709   25.2996 C   0  0  0  0  0  0  0  0  0  0  0  0
  -14.5630  -28.5859   25.6662 C   0  0  0  0  0  0  0  0  0  0  0  0
  -13.2984  -28.9881   26.0666 C   0  0  0  0  0  0  0  0  0  0  0  0
  -12.2697  -28.0646   26.1316 C   0  0  0  0  0  0  0  0  0  0  0  0
  -12.5594  -23.2272   26.2090 S   0  0  0  0  0  0  0  0  0  0  0  0
  -12.1795  -22.9464   24.4800 C   0  0  0  0  0  0  0  0  0  0  0  0
  -13.9610  -23.5528   26.1413 O   0  0  0  0  0  0  0  0  0  0  0  0
  -12.0090  -22.1145   26.9732 O   0  0  0  0  0  0  0  0  0  0  0  0
  -10.8488  -24.8872   30.4712 N   0  0  0  0  0  0  0  0  0  0  0  0
  -10.2174  -26.3350   29.8960 S   0  0  0  0  0  0  0  0  0  0  0  0
  -11.6308  -27.1858   29.3096 C   0  0  0  0  0  0  0  0  0  0  0  0
   -9.3666  -26.0643   28.7590 O   0  0  0  0  0  0  0  0  0  0  0  0
   -9.7365  -27.0891   31.0184 O   0  0  0  0  0  0  0  0  0  0  0  0
  -11.2733  -24.9370   31.8871 C   0  0  0  0  0  0  0  0  0  0  0  0
  -10.0120  -24.7502   32.7247 C   0  0  0  0  0  0  0  0  0  0  0  0
   -9.9923  -25.7020   33.7826 O   0  0  0  0  0  0  0  0  0  0  0  0
  -13.1269  -24.8942   33.9500 H   0  0  0  0  0  0  0  0  0  0  0  0
  -12.0147  -23.5407   34.2523 H   0  0  0  0  0  0  0  0  0  0  0  0
  -13.6905  -23.2403   33.7444 H   0  0  0  0  0  0  0  0  0  0  0  0
  -13.3041  -24.3085   31.6415 H   0  0  0  0  0  0  0  0  0  0  0  0
  -12.9619  -21.9031   31.8255 H   0  0  0  0  0  0  0  0  0  0  0  0
  -11.2546  -22.1319   32.1175 H   0  0  0  0  0  0  0  0  0  0  0  0
  -11.1104  -21.9648   29.8218 H   0  0  0  0  0  0  0  0  0  0  0  0
  -12.7734  -22.2526   29.6220 H   0  0  0  0  0  0  0  0  0  0  0  0
  -12.6672  -24.5552   29.5735 H   0  0  0  0  0  0  0  0  0  0  0  0
  -10.8582  -23.1033   28.0392 H   0  0  0  0  0  0  0  0  0  0  0  0
  -12.8674  -24.9542   27.6809 H   0  0  0  0  0  0  0  0  0  0  0  0
  -10.6608  -26.2621   26.8600 H   0  0  0  0  0  0  0  0  0  0  0  0
  -10.2502  -24.4881   25.4846 H   0  0  0  0  0  0  0  0  0  0  0  0
  -13.9769  -25.3583   25.0494 H   0  0  0  0  0  0  0  0  0  0  0  0
  -15.7524  -26.9611   24.9115 H   0  0  0  0  0  0  0  0  0  0  0  0
  -15.3667  -29.3146   25.5889 H   0  0  0  0  0  0  0  0  0  0  0  0
  -13.1124  -30.0345   26.2956 H   0  0  0  0  0  0  0  0  0  0  0  0
  -11.2726  -28.4212   26.3608 H   0  0  0  0  0  0  0  0  0  0  0  0
  -12.2046  -21.8661   24.3036 H   0  0  0  0  0  0  0  0  0  0  0  0
  -11.2210  -23.3104   24.1387 H   0  0  0  0  0  0  0  0  0  0  0  0
  -13.0012  -23.3510   23.8906 H   0  0  0  0  0  0  0  0  0  0  0  0
  -12.4261  -26.4983   29.0954 H   0  0  0  0  0  0  0  0  0  0  0  0
  -11.3974  -27.6821   28.3905 H   0  0  0  0  0  0  0  0  0  0  0  0
  -11.9149  -27.9553   30.0103 H   0  0  0  0  0  0  0  0  0  0  0  0
  -11.6756  -25.9193   32.1069 H   0  0  0  0  0  0  0  0  0  0  0  0
   -9.0872  -24.8958   32.1602 H   0  0  0  0  0  0  0  0  0  0  0  0
   -9.9612  -23.7361   33.1000 H   0  0  0  0  0  0  0  0  0  0  0  0
   -9.7303  -26.5406   33.3200 H   0  0  0  0  0  0  0  0  0  0  0  0
  1  2  1  0
  2  3  1  0
  3  4  1  0
  4  5  1  0
  5  6  1  0
  6  7  1  0
  7  8  1  0
  8  9  1  0
  8 10  1  0
 10 11  2  0
 11 12  1  0
 12 13  2  0
 13 14  1  0
 14 15  2  0
  7 16  1  0
 16 17  1  0
 16 18  2  0
 16 19  2  0
  5 20  1  0
 20 21  1  0
 21 22  1  0
 21 23  2  0
 21 24  2  0
 20 25  1  0
 25 26  1  0
 26 27  1  0
 25  2  1  0
 15 10  1  0
  1 28  1  0
  1 29  1  0
  1 30  1  0
  2 31  1  0
  3 32  1  0
  3 33  1  0
  4 34  1  0
  4 35  1  0
  5 36  1  0
  6 37  1  0
  7 38  1  0
  8 39  1  0
  9 40  1  0
 11 41  1  0
 12 42  1  0
 13 43  1  0
 14 44  1  0
 15 45  1  0
 17 46  1  0
 17 47  1  0
 17 48  1  0
 22 49  1  0
 22 50  1  0
 22 51  1  0
 25 52  1  0
 26 53  1  0
 26 54  1  0
 27 55  1  0
M  END
>  <Energy>  (869) 
95.790249883807647

>  <compound_id>  (869) 
1138

>  <target_id>  (869) 
1

>  <reference_id>  (869) 
82

>  <inspiration_ids>  (869) 
[82, 110]

>  <energy_score>  (869) 
-48.993022056478

>  <distance_score>  (869) 
2.1541896472747646

>  <path>  (869) 
/opt/xchem-fragalysis-2/maxwin/BulkDock/SCRATCH/505733/C1138-P82/C1138-P82.minimised.mol

>  <scratch_subdir>  (869) 
/opt/xchem-fragalysis-2/maxwin/BulkDock/SCRATCH/505733/C1138-P82

>  <fragmenstein_runtime>  (869) 
5.045418739318848

>  <fragmenstein_outcome>  (869) 
too moved

>  <fragmenstein_mode>  (869) 
expansion

>  <fragmenstein_error>  (869) 


$$$$
C1138-P110
     RDKit          3D

 55 56  0  0  0  0  0  0  0  0999 V2000
  -12.0383  -23.4730   33.6362 C   0  0  0  0  0  0  0  0  0  0  0  0
  -11.5564  -23.8250   32.2530 C   0  0  0  0  0  0  0  0  0  0  0  0
  -11.5341  -22.6339   31.3140 C   0  0  0  0  0  0  0  0  0  0  0  0
  -11.5241  -23.0725   29.8510 C   0  0  0  0  0  0  0  0  0  0  0  0
  -11.3400  -24.5866   29.6542 C   0  0  0  0  0  0  0  0  0  0  0  0
  -11.1540  -24.9276   28.2732 N   0  0  0  0  0  0  0  0  0  0  0  0
  -12.3739  -24.9530   27.4071 C   0  0  0  0  0  0  0  0  0  0  0  0
  -12.7678  -26.3712   26.9601 C   0  0  0  0  0  0  0  0  0  0  0  0
  -12.6709  -27.2806   28.0541 O   0  0  0  0  0  0  0  0  0  0  0  0
  -14.1948  -26.4278   26.4519 C   0  0  0  0  0  0  0  0  0  0  0  0
  -15.3355  -26.3453   27.2558 C   0  0  0  0  0  0  0  0  0  0  0  0
  -16.6113  -26.2949   26.6907 C   0  0  0  0  0  0  0  0  0  0  0  0
  -16.7681  -26.2932   25.3124 C   0  0  0  0  0  0  0  0  0  0  0  0
  -15.6494  -26.3877   24.5017 C   0  0  0  0  0  0  0  0  0  0  0  0
  -14.3858  -26.4994   25.0748 C   0  0  0  0  0  0  0  0  0  0  0  0
  -12.0632  -23.9056   26.0035 S   0  0  0  0  0  0  0  0  0  0  0  0
  -13.5852  -23.4618   25.1769 C   0  0  0  0  0  0  0  0  0  0  0  0
  -11.5343  -22.7642   26.7173 O   0  0  0  0  0  0  0  0  0  0  0  0
  -11.2123  -24.6375   25.0874 O   0  0  0  0  0  0  0  0  0  0  0  0
  -10.3518  -25.2185   30.5396 N   0  0  0  0  0  0  0  0  0  0  0  0
  -10.0675  -26.8748   30.2381 S   0  0  0  0  0  0  0  0  0  0  0  0
  -11.3386  -27.8039   31.0540 C   0  0  0  0  0  0  0  0  0  0  0  0
  -10.1939  -27.1326   28.8209 O   0  0  0  0  0  0  0  0  0  0  0  0
   -8.8615  -27.2431   30.9190 O   0  0  0  0  0  0  0  0  0  0  0  0
  -10.4982  -24.8949   32.0166 C   0  0  0  0  0  0  0  0  0  0  0  0
   -9.2019  -24.6371   32.7272 C   0  0  0  0  0  0  0  0  0  0  0  0
   -8.0749  -25.2281   32.1297 O   0  0  0  0  0  0  0  0  0  0  0  0
  -13.1340  -23.4990   33.6877 H   0  0  0  0  0  0  0  0  0  0  0  0
  -11.6702  -24.2067   34.3455 H   0  0  0  0  0  0  0  0  0  0  0  0
  -11.7800  -22.4560   33.9150 H   0  0  0  0  0  0  0  0  0  0  0  0
  -12.3709  -24.4302   31.9746 H   0  0  0  0  0  0  0  0  0  0  0  0
  -12.4184  -22.0074   31.4822 H   0  0  0  0  0  0  0  0  0  0  0  0
  -10.6808  -21.9895   31.5378 H   0  0  0  0  0  0  0  0  0  0  0  0
  -10.8135  -22.4771   29.2720 H   0  0  0  0  0  0  0  0  0  0  0  0
  -12.4775  -22.7686   29.4025 H   0  0  0  0  0  0  0  0  0  0  0  0
  -12.2451  -25.0519   29.9355 H   0  0  0  0  0  0  0  0  0  0  0  0
  -10.4667  -24.2810   27.8722 H   0  0  0  0  0  0  0  0  0  0  0  0
  -13.1953  -24.4813   27.9475 H   0  0  0  0  0  0  0  0  0  0  0  0
  -12.0805  -26.7506   26.1946 H   0  0  0  0  0  0  0  0  0  0  0  0
  -11.6908  -27.3335   28.1874 H   0  0  0  0  0  0  0  0  0  0  0  0
  -15.2812  -26.3270   28.3350 H   0  0  0  0  0  0  0  0  0  0  0  0
  -17.4857  -26.2404   27.3339 H   0  0  0  0  0  0  0  0  0  0  0  0
  -17.7601  -26.2230   24.8742 H   0  0  0  0  0  0  0  0  0  0  0  0
  -15.7632  -26.3643   23.4219 H   0  0  0  0  0  0  0  0  0  0  0  0
  -13.5074  -26.5987   24.4504 H   0  0  0  0  0  0  0  0  0  0  0  0
  -13.4140  -22.5362   24.6224 H   0  0  0  0  0  0  0  0  0  0  0  0
  -13.8819  -24.2051   24.4540 H   0  0  0  0  0  0  0  0  0  0  0  0
  -14.3856  -23.3565   25.8970 H   0  0  0  0  0  0  0  0  0  0  0  0
  -12.0057  -28.2407   30.3166 H   0  0  0  0  0  0  0  0  0  0  0  0
  -10.8607  -28.6149   31.6044 H   0  0  0  0  0  0  0  0  0  0  0  0
  -11.8875  -27.2001   31.7565 H   0  0  0  0  0  0  0  0  0  0  0  0
  -10.8797  -25.7833   32.5248 H   0  0  0  0  0  0  0  0  0  0  0  0
   -9.0164  -23.5713   32.8303 H   0  0  0  0  0  0  0  0  0  0  0  0
   -9.2816  -25.0466   33.7400 H   0  0  0  0  0  0  0  0  0  0  0  0
   -8.2336  -26.1946   32.0009 H   0  0  0  0  0  0  0  0  0  0  0  0
  1  2  1  0
  2  3  1  0
  3  4  1  0
  4  5  1  0
  5  6  1  0
  6  7  1  0
  7  8  1  0
  8  9  1  0
  8 10  1  0
 10 11  2  0
 11 12  1  0
 12 13  2  0
 13 14  1  0
 14 15  2  0
  7 16  1  0
 16 17  1  0
 16 18  2  0
 16 19  2  0
  5 20  1  0
 20 21  1  0
 21 22  1  0
 21 23  2  0
 21 24  2  0
 20 25  1  0
 25 26  1  0
 26 27  1  0
 25  2  1  0
 15 10  1  0
  1 28  1  0
  1 29  1  0
  1 30  1  0
  2 31  1  0
  3 32  1  0
  3 33  1  0
  4 34  1  0
  4 35  1  0
  5 36  1  0
  6 37  1  0
  7 38  1  0
  8 39  1  0
  9 40  1  0
 11 41  1  0
 12 42  1  0
 13 43  1  0
 14 44  1  0
 15 45  1  0
 17 46  1  0
 17 47  1  0
 17 48  1  0
 22 49  1  0
 22 50  1  0
 22 51  1  0
 25 52  1  0
 26 53  1  0
 26 54  1  0
 27 55  1  0
M  END
>  <Energy>  (870) 
73.174789193643221

>  <compound_id>  (870) 
1138

>  <target_id>  (870) 
1

>  <reference_id>  (870) 
110

>  <inspiration_ids>  (870) 
[82, 110]

>  <energy_score>  (870) 
-79.87725797215126

>  <distance_score>  (870) 
2.6921431108789275

>  <path>  (870) 
/opt/xchem-fragalysis-2/maxwin/BulkDock/SCRATCH/505733/C1138-P110/C1138-P110.minimised.mol

>  <scratch_subdir>  (870) 
/opt/xchem-fragalysis-2/maxwin/BulkDock/SCRATCH/505733/C1138-P110

>  <fragmenstein_runtime>  (870) 
10.015582799911499

>  <fragmenstein_outcome>  (870) 
too moved

>  <fragmenstein_mode>  (870) 
expansion

>  <fragmenstein_error>  (870) 


$$$$
C1139-P82
     RDKit          3D

 68 70  0  0  0  0  0  0  0  0999 V2000
   -6.8865  -18.8360   23.0575 C   0  0  0  0  0  0  0  0  0  0  0  0
   -7.7267  -19.6176   24.3442 C   0  0  0  0  0  0  0  0  0  0  0  0
   -9.7544  -19.6740   23.6771 C   0  0  0  0  0  0  0  0  0  0  0  0
  -11.2182  -20.6895   24.4012 C   0  0  0  0  0  0  0  0  0  0  0  0
  -11.2490  -21.1797   26.2366 C   0  0  0  0  0  0  0  0  0  0  0  0
   -9.7577  -20.8213   27.3591 N   0  0  0  0  0  0  0  0  0  0  0  0
  -10.8126  -22.1207   28.6216 S   0  0  0  0  0  0  0  0  0  0  0  0
  -10.0678  -23.7472   27.9811 C   0  0  0  0  0  0  0  0  0  0  0  0
  -10.6801  -21.3649   29.8338 O   0  0  0  0  0  0  0  0  0  0  0  0
  -12.2697  -22.5197   28.3391 N   0  0  0  0  0  0  0  0  0  0  0  0
  -12.5991  -23.8568   28.9235 C   0  0  0  0  0  0  0  0  0  0  0  0
  -13.0926  -24.0741   30.3941 C   0  0  0  0  0  0  0  0  0  0  0  0
  -13.8107  -23.3622   31.6189 C   0  0  0  0  0  0  0  0  0  0  0  0
  -13.1739  -23.9525   32.8434 C   0  0  0  0  0  0  0  0  0  0  0  0
  -11.7571  -24.0840   32.8933 N   0  0  0  0  0  0  0  0  0  0  0  0
  -10.7925  -24.1069   31.8651 C   0  0  0  0  0  0  0  0  0  0  0  0
  -10.9033  -23.9295   30.6867 O   0  0  0  0  0  0  0  0  0  0  0  0
   -9.4281  -24.5288   32.2467 C   0  0  0  0  0  0  0  0  0  0  0  0
   -9.5975  -25.3585   33.3053 C   0  0  0  0  0  0  0  0  0  0  0  0
  -10.4591  -26.4211   33.1073 C   0  0  0  0  0  0  0  0  0  0  0  0
  -10.5141  -27.0149   31.8270 C   0  0  0  0  0  0  0  0  0  0  0  0
   -9.7951  -26.4871   30.8099 C   0  0  0  0  0  0  0  0  0  0  0  0
   -9.1120  -25.3182   31.1102 C   0  0  0  0  0  0  0  0  0  0  0  0
  -11.8683  -22.7187   33.4570 C   0  0  0  0  0  0  0  0  0  0  0  0
  -12.6463  -21.5459   32.7210 C   0  0  0  0  0  0  0  0  0  0  0  0
  -14.0111  -22.0116   32.2500 C   0  0  0  0  0  0  0  0  0  0  0  0
  -15.1816  -21.2546   31.6632 C   0  0  0  0  0  0  0  0  0  0  0  0
  -15.5398  -20.1325   32.4598 O   0  0  0  0  0  0  0  0  0  0  0  0
   -7.8830  -20.7705   26.4909 C   0  0  0  0  0  0  0  0  0  0  0  0
   -7.1317  -22.3680   27.0820 C   0  0  0  0  0  0  0  0  0  0  0  0
   -5.7284  -22.2927   27.2603 O   0  0  0  0  0  0  0  0  0  0  0  0
   -6.1005  -18.2321   23.4170 H   0  0  0  0  0  0  0  0  0  0  0  0
   -6.5481  -19.5018   22.2622 H   0  0  0  0  0  0  0  0  0  0  0  0
   -7.5481  -18.1949   22.4634 H   0  0  0  0  0  0  0  0  0  0  0  0
   -7.4365  -20.4696   23.3706 H   0  0  0  0  0  0  0  0  0  0  0  0
   -9.8932  -18.6245   23.5378 H   0  0  0  0  0  0  0  0  0  0  0  0
   -9.8141  -20.4775   22.8568 H   0  0  0  0  0  0  0  0  0  0  0  0
  -11.2571  -21.6096   23.7805 H   0  0  0  0  0  0  0  0  0  0  0  0
  -12.1904  -20.2707   24.1804 H   0  0  0  0  0  0  0  0  0  0  0  0
  -12.0836  -20.8843   26.7922 H   0  0  0  0  0  0  0  0  0  0  0  0
  -11.4946  -22.2744   26.2354 H   0  0  0  0  0  0  0  0  0  0  0  0
   -9.1542  -23.4735   27.5531 H   0  0  0  0  0  0  0  0  0  0  0  0
   -9.9329  -24.5347   28.7025 H   0  0  0  0  0  0  0  0  0  0  0  0
  -10.6687  -24.1111   27.1401 H   0  0  0  0  0  0  0  0  0  0  0  0
  -13.1933  -24.3655   28.1465 H   0  0  0  0  0  0  0  0  0  0  0  0
  -11.8204  -24.6077   28.8292 H   0  0  0  0  0  0  0  0  0  0  0  0
  -12.5605  -24.9612   30.7723 H   0  0  0  0  0  0  0  0  0  0  0  0
  -13.8152  -24.7874   30.1046 H   0  0  0  0  0  0  0  0  0  0  0  0
  -14.8377  -23.6906   31.6144 H   0  0  0  0  0  0  0  0  0  0  0  0
  -13.6842  -23.8282   33.8221 H   0  0  0  0  0  0  0  0  0  0  0  0
  -13.3584  -25.0039   32.7733 H   0  0  0  0  0  0  0  0  0  0  0  0
   -8.9991  -25.3231   34.1910 H   0  0  0  0  0  0  0  0  0  0  0  0
  -10.7168  -27.0017   33.9743 H   0  0  0  0  0  0  0  0  0  0  0  0
  -10.8175  -28.0491   31.7036 H   0  0  0  0  0  0  0  0  0  0  0  0
   -9.7272  -26.9609   29.8458 H   0  0  0  0  0  0  0  0  0  0  0  0
   -8.6804  -24.8802   30.2254 H   0  0  0  0  0  0  0  0  0  0  0  0
  -10.8967  -22.3603   33.2242 H   0  0  0  0  0  0  0  0  0  0  0  0
  -11.9549  -22.7399   34.5327 H   0  0  0  0  0  0  0  0  0  0  0  0
  -12.0483  -21.2343   31.8648 H   0  0  0  0  0  0  0  0  0  0  0  0
  -12.7131  -20.7116   33.4264 H   0  0  0  0  0  0  0  0  0  0  0  0
  -14.4888  -22.1726   33.2371 H   0  0  0  0  0  0  0  0  0  0  0  0
  -16.0741  -21.8914   31.6156 H   0  0  0  0  0  0  0  0  0  0  0  0
  -15.0119  -20.9369   30.6551 H   0  0  0  0  0  0  0  0  0  0  0  0
  -15.8669  -20.4813   33.3087 H   0  0  0  0  0  0  0  0  0  0  0  0
   -7.2477  -20.2202   27.2317 H   0  0  0  0  0  0  0  0  0  0  0  0
   -7.5519  -22.6420   28.0175 H   0  0  0  0  0  0  0  0  0  0  0  0
   -7.2679  -23.0504   26.2669 H   0  0  0  0  0  0  0  0  0  0  0  0
   -5.3879  -23.0682   27.7173 H   0  0  0  0  0  0  0  0  0  0  0  0
  1  2  1  0
  2  3  1  0
  3  4  1  0
  4  5  1  0
  5  6  1  0
  6  7  1  0
  7  8  1  0
  7  9  2  0
  7 10  2  0
 10 11  1  0
 11 12  1  0
 12 13  1  0
 13 14  1  0
 14 15  1  0
 15 16  1  0
 16 17  2  0
 16 18  1  0
 18 19  2  0
 19 20  1  0
 20 21  2  0
 21 22  1  0
 22 23  2  0
 15 24  1  0
 24 25  1  0
 25 26  1  0
 26 27  1  0
 27 28  1  0
  6 29  1  0
 29 30  1  0
 30 31  1  0
 29  2  1  0
 26 13  1  0
 23 18  1  0
  1 32  1  0
  1 33  1  0
  1 34  1  0
  2 35  1  0
  3 36  1  0
  3 37  1  0
  4 38  1  0
  4 39  1  0
  5 40  1  0
  5 41  1  0
  8 42  1  0
  8 43  1  0
  8 44  1  0
 11 45  1  0
 11 46  1  0
 12 47  1  0
 12 48  1  0
 13 49  1  0
 14 50  1  0
 14 51  1  0
 19 52  1  0
 20 53  1  0
 21 54  1  0
 22 55  1  0
 23 56  1  0
 24 57  1  0
 24 58  1  0
 25 59  1  0
 25 60  1  0
 26 61  1  0
 27 62  1  0
 27 63  1  0
 28 64  1  0
 29 65  1  0
 30 66  1  0
 30 67  1  0
 31 68  1  0
M  END
>  <Energy>  (871) 
1193.2652364064029

>  <compound_id>  (871) 
1139

>  <target_id>  (871) 
1

>  <reference_id>  (871) 
82

>  <inspiration_ids>  (871) 
[82, 115]

>  <energy_score>  (871) 
1120.9603853529168

>  <distance_score>  (871) 
2.8751114562433386

>  <path>  (871) 
/opt/xchem-fragalysis-2/maxwin/BulkDock/SCRATCH/505733/C1139-P82/C1139-P82.minimised.mol

>  <scratch_subdir>  (871) 
/opt/xchem-fragalysis-2/maxwin/BulkDock/SCRATCH/505733/C1139-P82

>  <fragmenstein_runtime>  (871) 
27.97550868988037

>  <fragmenstein_outcome>  (871) 
too moved

>  <fragmenstein_mode>  (871) 
expansion

>  <fragmenstein_error>  (871) 


$$$$
C1139-P115
     RDKit          3D

 68 70  0  0  0  0  0  0  0  0999 V2000
   -6.8370  -18.8894   22.9872 C   0  0  0  0  0  0  0  0  0  0  0  0
   -7.6847  -19.6756   24.2568 C   0  0  0  0  0  0  0  0  0  0  0  0
   -9.6723  -19.5883   23.6449 C   0  0  0  0  0  0  0  0  0  0  0  0
  -11.1068  -20.6705   24.4243 C   0  0  0  0  0  0  0  0  0  0  0  0
  -11.1304  -21.2596   26.3335 C   0  0  0  0  0  0  0  0  0  0  0  0
   -9.6047  -20.8602   27.3997 N   0  0  0  0  0  0  0  0  0  0  0  0
   -9.8626  -22.3123   28.4591 S   0  0  0  0  0  0  0  0  0  0  0  0
   -7.5631  -22.2612   28.6565 C   0  0  0  0  0  0  0  0  0  0  0  0
  -10.6653  -21.6387   29.4825 O   0  0  0  0  0  0  0  0  0  0  0  0
  -10.3440  -23.6925   27.8923 N   0  0  0  0  0  0  0  0  0  0  0  0
  -10.2845  -24.8457   28.8428 C   0  0  0  0  0  0  0  0  0  0  0  0
  -11.3180  -24.7363   29.9770 C   0  0  0  0  0  0  0  0  0  0  0  0
  -11.0254  -25.4177   31.3512 C   0  0  0  0  0  0  0  0  0  0  0  0
   -9.7777  -26.3081   31.4372 C   0  0  0  0  0  0  0  0  0  0  0  0
   -9.6014  -27.1731   32.6814 N   0  0  0  0  0  0  0  0  0  0  0  0
   -8.6971  -28.2503   32.9486 C   0  0  0  0  0  0  0  0  0  0  0  0
   -7.7901  -28.6875   32.2967 O   0  0  0  0  0  0  0  0  0  0  0  0
   -8.8646  -28.9685   34.2257 C   0  0  0  0  0  0  0  0  0  0  0  0
   -7.9241  -28.7659   35.2414 C   0  0  0  0  0  0  0  0  0  0  0  0
   -7.9643  -29.5459   36.3977 C   0  0  0  0  0  0  0  0  0  0  0  0
   -8.9189  -30.5546   36.5207 C   0  0  0  0  0  0  0  0  0  0  0  0
   -9.8109  -30.8036   35.4772 C   0  0  0  0  0  0  0  0  0  0  0  0
   -9.7675  -30.0266   34.3176 C   0  0  0  0  0  0  0  0  0  0  0  0
   -9.0549  -25.8940   33.2289 C   0  0  0  0  0  0  0  0  0  0  0  0
  -10.0115  -24.7549   33.5853 C   0  0  0  0  0  0  0  0  0  0  0  0
  -11.2008  -24.5916   32.6490 C   0  0  0  0  0  0  0  0  0  0  0  0
  -11.6619  -23.1273   32.5914 C   0  0  0  0  0  0  0  0  0  0  0  0
  -10.6460  -22.2628   32.1303 O   0  0  0  0  0  0  0  0  0  0  0  0
   -7.8390  -20.8223   26.4003 C   0  0  0  0  0  0  0  0  0  0  0  0
   -7.2718  -22.7344   26.2927 C   0  0  0  0  0  0  0  0  0  0  0  0
   -8.2821  -23.3761   27.0011 O   0  0  0  0  0  0  0  0  0  0  0  0
   -6.0539  -18.2895   23.3588 H   0  0  0  0  0  0  0  0  0  0  0  0
   -7.4881  -18.2375   22.3898 H   0  0  0  0  0  0  0  0  0  0  0  0
   -6.5165  -19.5398   22.1840 H   0  0  0  0  0  0  0  0  0  0  0  0
   -7.4288  -20.5365   23.3047 H   0  0  0  0  0  0  0  0  0  0  0  0
   -9.6208  -18.5900   23.9298 H   0  0  0  0  0  0  0  0  0  0  0  0
  -10.0418  -18.7209   23.1979 H   0  0  0  0  0  0  0  0  0  0  0  0
  -12.1044  -20.3147   24.2056 H   0  0  0  0  0  0  0  0  0  0  0  0
  -11.1097  -21.5565   23.7496 H   0  0  0  0  0  0  0  0  0  0  0  0
  -11.3594  -22.3580   26.3282 H   0  0  0  0  0  0  0  0  0  0  0  0
  -11.9202  -21.0691   27.0316 H   0  0  0  0  0  0  0  0  0  0  0  0
   -6.7163  -22.7612   28.1344 H   0  0  0  0  0  0  0  0  0  0  0  0
   -7.1568  -21.8995   30.4074 H   0  0  0  0  0  0  0  0  0  0  0  0
   -7.2954  -21.4819   28.0086 H   0  0  0  0  0  0  0  0  0  0  0  0
  -10.4771  -25.7614   28.2711 H   0  0  0  0  0  0  0  0  0  0  0  0
   -9.2642  -24.9324   29.2171 H   0  0  0  0  0  0  0  0  0  0  0  0
  -12.2246  -25.2096   29.5738 H   0  0  0  0  0  0  0  0  0  0  0  0
  -11.6333  -23.7088   30.1329 H   0  0  0  0  0  0  0  0  0  0  0  0
  -11.8389  -26.1420   31.4039 H   0  0  0  0  0  0  0  0  0  0  0  0
   -9.9201  -27.0782   30.6643 H   0  0  0  0  0  0  0  0  0  0  0  0
   -8.8764  -25.8046   31.0678 H   0  0  0  0  0  0  0  0  0  0  0  0
   -7.1405  -28.0226   35.1149 H   0  0  0  0  0  0  0  0  0  0  0  0
   -7.2416  -29.3781   37.1923 H   0  0  0  0  0  0  0  0  0  0  0  0
   -8.9543  -31.1650   37.4199 H   0  0  0  0  0  0  0  0  0  0  0  0
  -10.5390  -31.6072   35.5660 H   0  0  0  0  0  0  0  0  0  0  0  0
  -10.4331  -30.2519   33.4907 H   0  0  0  0  0  0  0  0  0  0  0  0
   -8.1395  -25.5611   32.7190 H   0  0  0  0  0  0  0  0  0  0  0  0
   -8.6329  -26.1779   34.2017 H   0  0  0  0  0  0  0  0  0  0  0  0
   -9.4318  -23.8283   33.6560 H   0  0  0  0  0  0  0  0  0  0  0  0
  -10.3987  -24.9250   34.5998 H   0  0  0  0  0  0  0  0  0  0  0  0
  -12.0041  -25.1034   33.1882 H   0  0  0  0  0  0  0  0  0  0  0  0
  -11.9213  -22.7945   33.5997 H   0  0  0  0  0  0  0  0  0  0  0  0
  -12.5448  -22.9696   31.9769 H   0  0  0  0  0  0  0  0  0  0  0  0
  -10.9413  -21.8668   31.2805 H   0  0  0  0  0  0  0  0  0  0  0  0
   -7.1081  -20.2165   27.0872 H   0  0  0  0  0  0  0  0  0  0  0  0
   -7.1937  -23.2953   25.3437 H   0  0  0  0  0  0  0  0  0  0  0  0
   -6.2074  -22.8267   26.6047 H   0  0  0  0  0  0  0  0  0  0  0  0
   -9.0512  -23.8338   26.5899 H   0  0  0  0  0  0  0  0  0  0  0  0
  1  2  1  0
  2  3  1  0
  3  4  1  0
  4  5  1  0
  5  6  1  0
  6  7  1  0
  7  8  1  0
  7  9  2  0
  7 10  2  0
 10 11  1  0
 11 12  1  0
 12 13  1  0
 13 14  1  0
 14 15  1  0
 15 16  1  0
 16 17  2  0
 16 18  1  0
 18 19  2  0
 19 20  1  0
 20 21  2  0
 21 22  1  0
 22 23  2  0
 15 24  1  0
 24 25  1  0
 25 26  1  0
 26 27  1  0
 27 28  1  0
  6 29  1  0
 29 30  1  0
 30 31  1  0
 29  2  1  0
 26 13  1  0
 23 18  1  0
  1 32  1  0
  1 33  1  0
  1 34  1  0
  2 35  1  0
  3 36  1  0
  3 37  1  0
  4 38  1  0
  4 39  1  0
  5 40  1  0
  5 41  1  0
  8 42  1  0
  8 43  1  0
  8 44  1  0
 11 45  1  0
 11 46  1  0
 12 47  1  0
 12 48  1  0
 13 49  1  0
 14 50  1  0
 14 51  1  0
 19 52  1  0
 20 53  1  0
 21 54  1  0
 22 55  1  0
 23 56  1  0
 24 57  1  0
 24 58  1  0
 25 59  1  0
 25 60  1  0
 26 61  1  0
 27 62  1  0
 27 63  1  0
 28 64  1  0
 29 65  1  0
 30 66  1  0
 30 67  1  0
 31 68  1  0
M  END
>  <Energy>  (872) 
1237.9264255608166

>  <compound_id>  (872) 
1139

>  <target_id>  (872) 
1

>  <reference_id>  (872) 
115

>  <inspiration_ids>  (872) 
[82, 115]

>  <energy_score>  (872) 
1165.6215745073148

>  <distance_score>  (872) 
2.054877717443344

>  <path>  (872) 
/opt/xchem-fragalysis-2/maxwin/BulkDock/SCRATCH/505733/C1139-P115/C1139-P115.minimised.mol

>  <scratch_subdir>  (872) 
/opt/xchem-fragalysis-2/maxwin/BulkDock/SCRATCH/505733/C1139-P115

>  <fragmenstein_runtime>  (872) 
21.36097288131714

>  <fragmenstein_outcome>  (872) 
too moved

>  <fragmenstein_mode>  (872) 
expansion

>  <fragmenstein_error>  (872) 


$$$$
C1144-P82
     RDKit          3D

 60 62  0  0  0  0  0  0  0  0999 V2000
  -10.2032  -25.6343   33.6664 C   0  0  0  0  0  0  0  0  0  0  0  0
  -10.4268  -24.7474   32.5084 C   0  0  0  0  0  0  0  0  0  0  0  0
  -10.1124  -25.0418   31.4170 O   0  0  0  0  0  0  0  0  0  0  0  0
  -11.1822  -23.5413   33.0174 N   0  0  0  0  0  0  0  0  0  0  0  0
  -12.6991  -23.8029   33.0438 C   0  0  0  0  0  0  0  0  0  0  0  0
  -13.6650  -23.1289   32.0982 C   0  0  0  0  0  0  0  0  0  0  0  0
  -14.6081  -22.0916   32.7615 C   0  0  0  0  0  0  0  0  0  0  0  0
  -13.9840  -21.2904   33.6592 O   0  0  0  0  0  0  0  0  0  0  0  0
  -16.2959  -21.7531   32.4601 S   0  0  0  0  0  0  0  0  0  0  0  0
  -16.8066  -22.3100   30.9197 C   0  0  0  0  0  0  0  0  0  0  0  0
  -16.2140  -20.1437   32.1093 O   0  0  0  0  0  0  0  0  0  0  0  0
  -17.4076  -22.0093   33.7273 N   0  0  0  0  0  0  0  0  0  0  0  0
  -18.4945  -22.9356   33.3324 C   0  0  0  0  0  0  0  0  0  0  0  0
  -19.4712  -23.3642   34.4065 C   0  0  0  0  0  0  0  0  0  0  0  0
  -20.0696  -22.1403   35.0612 C   0  0  0  0  0  0  0  0  0  0  0  0
  -18.9565  -21.2647   35.6345 C   0  0  0  0  0  0  0  0  0  0  0  0
  -18.3240  -21.9549   36.8576 C   0  0  0  0  0  0  0  0  0  0  0  0
  -17.9255  -20.8551   34.5268 C   0  0  0  0  0  0  0  0  0  0  0  0
  -16.8252  -19.9975   35.2340 C   0  0  0  0  0  0  0  0  0  0  0  0
  -15.8408  -19.4116   34.3911 O   0  0  0  0  0  0  0  0  0  0  0  0
  -12.6457  -22.5729   31.1862 C   0  0  0  0  0  0  0  0  0  0  0  0
  -12.1945  -23.3948   29.9821 C   0  0  0  0  0  0  0  0  0  0  0  0
  -11.8457  -22.7396   28.8013 C   0  0  0  0  0  0  0  0  0  0  0  0
  -11.5624  -23.4511   27.6288 C   0  0  0  0  0  0  0  0  0  0  0  0
  -11.5039  -24.8361   27.6177 C   0  0  0  0  0  0  0  0  0  0  0  0
  -11.8188  -25.5110   28.7773 C   0  0  0  0  0  0  0  0  0  0  0  0
  -12.2051  -24.7922   29.9170 C   0  0  0  0  0  0  0  0  0  0  0  0
  -11.6577  -22.3346   32.3090 C   0  0  0  0  0  0  0  0  0  0  0  0
  -10.5665  -26.6155   33.3746 H   0  0  0  0  0  0  0  0  0  0  0  0
   -9.1372  -25.6230   33.8817 H   0  0  0  0  0  0  0  0  0  0  0  0
  -10.7896  -25.3582   34.5423 H   0  0  0  0  0  0  0  0  0  0  0  0
  -12.8104  -24.8865   32.9465 H   0  0  0  0  0  0  0  0  0  0  0  0
  -12.9949  -23.6276   34.0802 H   0  0  0  0  0  0  0  0  0  0  0  0
  -14.3158  -23.8376   31.6225 H   0  0  0  0  0  0  0  0  0  0  0  0
  -14.5903  -20.6099   34.0304 H   0  0  0  0  0  0  0  0  0  0  0  0
  -17.7089  -21.7734   30.6286 H   0  0  0  0  0  0  0  0  0  0  0  0
  -16.0142  -22.0843   30.2284 H   0  0  0  0  0  0  0  0  0  0  0  0
  -17.0312  -23.3683   30.9507 H   0  0  0  0  0  0  0  0  0  0  0  0
  -18.0453  -23.8545   32.9357 H   0  0  0  0  0  0  0  0  0  0  0  0
  -19.0689  -22.4801   32.5149 H   0  0  0  0  0  0  0  0  0  0  0  0
  -20.2688  -23.9689   33.9592 H   0  0  0  0  0  0  0  0  0  0  0  0
  -18.9720  -24.0032   35.1434 H   0  0  0  0  0  0  0  0  0  0  0  0
  -20.6453  -21.5667   34.3238 H   0  0  0  0  0  0  0  0  0  0  0  0
  -20.7748  -22.4391   35.8454 H   0  0  0  0  0  0  0  0  0  0  0  0
  -19.4343  -20.3461   36.0025 H   0  0  0  0  0  0  0  0  0  0  0  0
  -17.6334  -22.7531   36.5688 H   0  0  0  0  0  0  0  0  0  0  0  0
  -17.7708  -21.2375   37.4722 H   0  0  0  0  0  0  0  0  0  0  0  0
  -19.0937  -22.3885   37.5055 H   0  0  0  0  0  0  0  0  0  0  0  0
  -18.4435  -20.1973   33.8148 H   0  0  0  0  0  0  0  0  0  0  0  0
  -17.3023  -19.1719   35.7738 H   0  0  0  0  0  0  0  0  0  0  0  0
  -16.2847  -20.5948   35.9674 H   0  0  0  0  0  0  0  0  0  0  0  0
  -16.2421  -19.3359   33.4963 H   0  0  0  0  0  0  0  0  0  0  0  0
  -12.9978  -21.6368   30.7896 H   0  0  0  0  0  0  0  0  0  0  0  0
  -11.8421  -21.6546   28.7586 H   0  0  0  0  0  0  0  0  0  0  0  0
  -11.4069  -22.9019   26.7110 H   0  0  0  0  0  0  0  0  0  0  0  0
  -11.2415  -25.3718   26.7138 H   0  0  0  0  0  0  0  0  0  0  0  0
  -11.7750  -26.5935   28.8188 H   0  0  0  0  0  0  0  0  0  0  0  0
  -12.4692  -25.3695   30.7912 H   0  0  0  0  0  0  0  0  0  0  0  0
  -11.9388  -21.5835   33.0569 H   0  0  0  0  0  0  0  0  0  0  0  0
  -10.7838  -21.8501   31.8917 H   0  0  0  0  0  0  0  0  0  0  0  0
  1  2  1  0
  2  3  2  0
  2  4  1  0
  4  5  1  0
  5  6  1  0
  6  7  1  0
  7  8  1  0
  7  9  2  0
  9 10  1  0
  9 11  2  0
  9 12  1  0
 12 13  1  0
 13 14  1  0
 14 15  1  0
 15 16  1  0
 16 17  1  0
 16 18  1  0
 18 19  1  0
 19 20  1  0
  6 21  1  0
 21 22  1  0
 22 23  2  0
 23 24  1  0
 24 25  2  0
 25 26  1  0
 26 27  2  0
 21 28  1  0
 28  4  1  0
 18 12  1  0
 27 22  1  0
  1 29  1  0
  1 30  1  0
  1 31  1  0
  5 32  1  0
  5 33  1  0
  6 34  1  0
  8 35  1  0
 10 36  1  0
 10 37  1  0
 10 38  1  0
 13 39  1  0
 13 40  1  0
 14 41  1  0
 14 42  1  0
 15 43  1  0
 15 44  1  0
 16 45  1  0
 17 46  1  0
 17 47  1  0
 17 48  1  0
 18 49  1  0
 19 50  1  0
 19 51  1  0
 20 52  1  0
 21 53  1  0
 23 54  1  0
 24 55  1  0
 25 56  1  0
 26 57  1  0
 27 58  1  0
 28 59  1  0
 28 60  1  0
M  END
>  <Energy>  (873) 
151.55870370234427

>  <compound_id>  (873) 
1144

>  <target_id>  (873) 
1

>  <reference_id>  (873) 
82

>  <inspiration_ids>  (873) 
[82, 173]

>  <energy_score>  (873) 
-2.498131978416893

>  <distance_score>  (873) 
2.03236370183623

>  <path>  (873) 
/opt/xchem-fragalysis-2/maxwin/BulkDock/SCRATCH/505733/C1144-P82/C1144-P82.minimised.mol

>  <scratch_subdir>  (873) 
/opt/xchem-fragalysis-2/maxwin/BulkDock/SCRATCH/505733/C1144-P82

>  <fragmenstein_runtime>  (873) 
11.610894918441772

>  <fragmenstein_outcome>  (873) 
too moved

>  <fragmenstein_mode>  (873) 
expansion

>  <fragmenstein_error>  (873) 


$$$$
C1144-P173
     RDKit          3D

 60 62  0  0  0  0  0  0  0  0999 V2000
  -18.5109  -28.6154   31.1650 C   0  0  0  0  0  0  0  0  0  0  0  0
  -17.6631  -27.7569   30.2509 C   0  0  0  0  0  0  0  0  0  0  0  0
  -18.0701  -27.3026   29.2447 O   0  0  0  0  0  0  0  0  0  0  0  0
  -16.2916  -27.6498   30.8930 N   0  0  0  0  0  0  0  0  0  0  0  0
  -16.2110  -26.4538   31.8195 C   0  0  0  0  0  0  0  0  0  0  0  0
  -15.9137  -25.1045   31.1758 C   0  0  0  0  0  0  0  0  0  0  0  0
  -15.2394  -24.1167   32.1171 C   0  0  0  0  0  0  0  0  0  0  0  0
  -13.9818  -24.5462   32.4138 O   0  0  0  0  0  0  0  0  0  0  0  0
  -15.8517  -22.6192   32.8163 S   0  0  0  0  0  0  0  0  0  0  0  0
  -14.9485  -22.1829   34.2150 C   0  0  0  0  0  0  0  0  0  0  0  0
  -15.2362  -21.5170   31.7776 O   0  0  0  0  0  0  0  0  0  0  0  0
  -17.5102  -22.4058   32.8958 N   0  0  0  0  0  0  0  0  0  0  0  0
  -18.4136  -23.5273   33.1372 C   0  0  0  0  0  0  0  0  0  0  0  0
  -19.0961  -23.4510   34.4967 C   0  0  0  0  0  0  0  0  0  0  0  0
  -19.8263  -22.1285   34.6835 C   0  0  0  0  0  0  0  0  0  0  0  0
  -18.9180  -20.9281   34.3732 C   0  0  0  0  0  0  0  0  0  0  0  0
  -17.9364  -20.6785   35.5200 C   0  0  0  0  0  0  0  0  0  0  0  0
  -18.2496  -21.1230   32.9839 C   0  0  0  0  0  0  0  0  0  0  0  0
  -17.5035  -19.8536   32.5186 C   0  0  0  0  0  0  0  0  0  0  0  0
  -17.0970  -19.9619   31.1514 O   0  0  0  0  0  0  0  0  0  0  0  0
  -15.2176  -25.5772   29.9300 C   0  0  0  0  0  0  0  0  0  0  0  0
  -14.0656  -24.9867   29.1430 C   0  0  0  0  0  0  0  0  0  0  0  0
  -13.2826  -23.8911   29.5053 C   0  0  0  0  0  0  0  0  0  0  0  0
  -12.2432  -23.4440   28.6758 C   0  0  0  0  0  0  0  0  0  0  0  0
  -11.9673  -24.0773   27.4672 C   0  0  0  0  0  0  0  0  0  0  0  0
  -12.7649  -25.1335   27.0548 C   0  0  0  0  0  0  0  0  0  0  0  0
  -13.8023  -25.5749   27.8787 C   0  0  0  0  0  0  0  0  0  0  0  0
  -15.0179  -27.0192   30.3885 C   0  0  0  0  0  0  0  0  0  0  0  0
  -18.9784  -29.4077   30.5736 H   0  0  0  0  0  0  0  0  0  0  0  0
  -19.2836  -27.9921   31.6230 H   0  0  0  0  0  0  0  0  0  0  0  0
  -17.9183  -29.0841   31.9557 H   0  0  0  0  0  0  0  0  0  0  0  0
  -15.6200  -26.6968   32.6966 H   0  0  0  0  0  0  0  0  0  0  0  0
  -17.2153  -26.3794   32.2620 H   0  0  0  0  0  0  0  0  0  0  0  0
  -16.8940  -24.6856   30.9446 H   0  0  0  0  0  0  0  0  0  0  0  0
  -13.4262  -23.9115   32.9042 H   0  0  0  0  0  0  0  0  0  0  0  0
  -15.1525  -22.9049   35.0078 H   0  0  0  0  0  0  0  0  0  0  0  0
  -13.8818  -22.1752   33.9867 H   0  0  0  0  0  0  0  0  0  0  0  0
  -15.2398  -21.1828   34.5374 H   0  0  0  0  0  0  0  0  0  0  0  0
  -17.8730  -24.4740   33.1037 H   0  0  0  0  0  0  0  0  0  0  0  0
  -19.1630  -23.5784   32.3376 H   0  0  0  0  0  0  0  0  0  0  0  0
  -19.8085  -24.2782   34.5966 H   0  0  0  0  0  0  0  0  0  0  0  0
  -18.3520  -23.5831   35.2915 H   0  0  0  0  0  0  0  0  0  0  0  0
  -20.6898  -22.1033   34.0060 H   0  0  0  0  0  0  0  0  0  0  0  0
  -20.2275  -22.0607   35.7014 H   0  0  0  0  0  0  0  0  0  0  0  0
  -19.5655  -20.0423   34.3139 H   0  0  0  0  0  0  0  0  0  0  0  0
  -17.2819  -21.5346   35.6985 H   0  0  0  0  0  0  0  0  0  0  0  0
  -17.3126  -19.8008   35.3278 H   0  0  0  0  0  0  0  0  0  0  0  0
  -18.4821  -20.4873   36.4508 H   0  0  0  0  0  0  0  0  0  0  0  0
  -19.0677  -21.2204   32.2530 H   0  0  0  0  0  0  0  0  0  0  0  0
  -18.1734  -18.9912   32.5812 H   0  0  0  0  0  0  0  0  0  0  0  0
  -16.6205  -19.6405   33.1275 H   0  0  0  0  0  0  0  0  0  0  0  0
  -16.4824  -20.7346   31.1586 H   0  0  0  0  0  0  0  0  0  0  0  0
  -16.0178  -25.6161   29.1730 H   0  0  0  0  0  0  0  0  0  0  0  0
  -13.4632  -23.3359   30.4175 H   0  0  0  0  0  0  0  0  0  0  0  0
  -11.6554  -22.5787   28.9739 H   0  0  0  0  0  0  0  0  0  0  0  0
  -11.1616  -23.7162   26.8369 H   0  0  0  0  0  0  0  0  0  0  0  0
  -12.5882  -25.6076   26.0953 H   0  0  0  0  0  0  0  0  0  0  0  0
  -14.4224  -26.3970   27.5237 H   0  0  0  0  0  0  0  0  0  0  0  0
  -14.7751  -27.6331   29.5101 H   0  0  0  0  0  0  0  0  0  0  0  0
  -14.1674  -27.1839   31.0617 H   0  0  0  0  0  0  0  0  0  0  0  0
  1  2  1  0
  2  3  2  0
  2  4  1  0
  4  5  1  0
  5  6  1  0
  6  7  1  0
  7  8  1  0
  7  9  2  0
  9 10  1  0
  9 11  2  0
  9 12  1  0
 12 13  1  0
 13 14  1  0
 14 15  1  0
 15 16  1  0
 16 17  1  0
 16 18  1  0
 18 19  1  0
 19 20  1  0
  6 21  1  0
 21 22  1  0
 22 23  2  0
 23 24  1  0
 24 25  2  0
 25 26  1  0
 26 27  2  0
 21 28  1  0
 28  4  1  0
 18 12  1  0
 27 22  1  0
  1 29  1  0
  1 30  1  0
  1 31  1  0
  5 32  1  0
  5 33  1  0
  6 34  1  0
  8 35  1  0
 10 36  1  0
 10 37  1  0
 10 38  1  0
 13 39  1  0
 13 40  1  0
 14 41  1  0
 14 42  1  0
 15 43  1  0
 15 44  1  0
 16 45  1  0
 17 46  1  0
 17 47  1  0
 17 48  1  0
 18 49  1  0
 19 50  1  0
 19 51  1  0
 20 52  1  0
 21 53  1  0
 23 54  1  0
 24 55  1  0
 25 56  1  0
 26 57  1  0
 27 58  1  0
 28 59  1  0
 28 60  1  0
M  END
>  <Energy>  (874) 
143.4909464607268

>  <compound_id>  (874) 
1144

>  <target_id>  (874) 
1

>  <reference_id>  (874) 
173

>  <inspiration_ids>  (874) 
[82, 173]

>  <energy_score>  (874) 
-10.565889220027998

>  <distance_score>  (874) 
2.8869035879064167

>  <path>  (874) 
/opt/xchem-fragalysis-2/maxwin/BulkDock/SCRATCH/505733/C1144-P173/C1144-P173.minimised.mol

>  <scratch_subdir>  (874) 
/opt/xchem-fragalysis-2/maxwin/BulkDock/SCRATCH/505733/C1144-P173

>  <fragmenstein_runtime>  (874) 
14.232632398605347

>  <fragmenstein_outcome>  (874) 
too moved

>  <fragmenstein_mode>  (874) 
expansion

>  <fragmenstein_error>  (874) 


$$$$
C1145-P83
     RDKit          3D

 73 77  0  0  0  0  0  0  0  0999 V2000
   17.9391   -2.9826   10.0948 C   0  0  0  0  0  0  0  0  0  0  0  0
   16.9011   -3.1868   11.1988 C   0  0  0  0  0  0  0  0  0  0  0  0
   15.6949   -2.2724   10.9897 C   0  0  0  0  0  0  0  0  0  0  0  0
   16.0350   -0.8451   11.3508 C   0  0  0  0  0  0  0  0  0  0  0  0
   16.5223   -0.7811   12.7857 C   0  0  0  0  0  0  0  0  0  0  0  0
   17.7007   -1.6117   13.0758 N   0  0  0  0  0  0  0  0  0  0  0  0
   18.4606   -1.3501   14.6283 S   0  0  0  0  0  0  0  0  0  0  0  0
   20.1956   -1.1724   14.3049 C   0  0  0  0  0  0  0  0  0  0  0  0
   18.2784   -2.5998   15.3267 O   0  0  0  0  0  0  0  0  0  0  0  0
   17.9834    0.0115   15.1485 N   0  0  0  0  0  0  0  0  0  0  0  0
   16.7946    0.1618   15.9934 C   0  0  0  0  0  0  0  0  0  0  0  0
   16.9407   -0.3939   17.4120 C   0  0  0  0  0  0  0  0  0  0  0  0
   16.7270   -1.9075   17.4935 C   0  0  0  0  0  0  0  0  0  0  0  0
   15.7276   -2.3331   18.5093 C   0  0  0  0  0  0  0  0  0  0  0  0
   14.4393   -2.8215   18.3498 C   0  0  0  0  0  0  0  0  0  0  0  0
   13.6852   -2.8932   17.1021 C   0  0  0  0  0  0  0  0  0  0  0  0
   13.6431   -1.8036   16.2177 C   0  0  0  0  0  0  0  0  0  0  0  0
   12.8984   -1.8410   15.0370 C   0  0  0  0  0  0  0  0  0  0  0  0
   12.1699   -2.9804   14.7268 C   0  0  0  0  0  0  0  0  0  0  0  0
   12.1939   -4.0693   15.5976 C   0  0  0  0  0  0  0  0  0  0  0  0
   12.9382   -4.0246   16.7829 C   0  0  0  0  0  0  0  0  0  0  0  0
   13.9163   -3.1848   19.5654 N   0  0  0  0  0  0  0  0  0  0  0  0
   14.8321   -2.8809   20.4553 C   0  0  0  0  0  0  0  0  0  0  0  0
   14.6238   -2.9278   22.1781 S   0  0  0  0  0  0  0  0  0  0  0  0
   14.2357   -4.6072   22.3549 C   0  0  0  0  0  0  0  0  0  0  0  0
   13.0490   -5.1099   21.9563 C   0  0  0  0  0  0  0  0  0  0  0  0
   12.7551   -6.5185   22.1665 C   0  0  0  0  0  0  0  0  0  0  0  0
   13.6334   -7.3411   22.7683 C   0  0  0  0  0  0  0  0  0  0  0  0
   14.8784   -6.8236   23.2114 C   0  0  0  0  0  0  0  0  0  0  0  0
   15.8990   -7.3780   23.8293 N   0  0  0  0  0  0  0  0  0  0  0  0
   16.8499   -6.4040   24.0277 N   0  0  0  0  0  0  0  0  0  0  0  0
   16.3833   -5.2821   23.5269 C   0  0  0  0  0  0  0  0  0  0  0  0
   15.1368   -5.4763   22.9887 N   0  0  0  0  0  0  0  0  0  0  0  0
   15.9658   -2.3842   19.8662 N   0  0  0  0  0  0  0  0  0  0  0  0
   17.1736   -1.9855   20.5515 C   0  0  0  0  0  0  0  0  0  0  0  0
   17.4833   -3.0332   12.6435 C   0  0  0  0  0  0  0  0  0  0  0  0
   18.7738   -3.9040   12.7790 C   0  0  0  0  0  0  0  0  0  0  0  0
   18.5993   -5.2500   12.3624 O   0  0  0  0  0  0  0  0  0  0  0  0
   18.5201   -2.0678   10.2514 H   0  0  0  0  0  0  0  0  0  0  0  0
   18.6414   -3.8206   10.0475 H   0  0  0  0  0  0  0  0  0  0  0  0
   17.4717   -2.9081    9.1104 H   0  0  0  0  0  0  0  0  0  0  0  0
   16.5291   -4.2113   11.0812 H   0  0  0  0  0  0  0  0  0  0  0  0
   15.3453   -2.3124    9.9566 H   0  0  0  0  0  0  0  0  0  0  0  0
   14.8637   -2.6203   11.6163 H   0  0  0  0  0  0  0  0  0  0  0  0
   15.1453   -0.2151   11.2457 H   0  0  0  0  0  0  0  0  0  0  0  0
   16.7927   -0.4392   10.6706 H   0  0  0  0  0  0  0  0  0  0  0  0
   16.7495    0.2732   12.9778 H   0  0  0  0  0  0  0  0  0  0  0  0
   15.6997   -1.0684   13.4510 H   0  0  0  0  0  0  0  0  0  0  0  0
   20.5877   -2.0868   13.8613 H   0  0  0  0  0  0  0  0  0  0  0  0
   20.7030   -0.9872   15.2546 H   0  0  0  0  0  0  0  0  0  0  0  0
   20.3473   -0.3295   13.6273 H   0  0  0  0  0  0  0  0  0  0  0  0
   15.9181   -0.2426   15.4893 H   0  0  0  0  0  0  0  0  0  0  0  0
   16.6153    1.2409   16.0812 H   0  0  0  0  0  0  0  0  0  0  0  0
   16.2066    0.1188   18.0469 H   0  0  0  0  0  0  0  0  0  0  0  0
   17.9283   -0.1392   17.8166 H   0  0  0  0  0  0  0  0  0  0  0  0
   17.6801   -2.4056   17.7057 H   0  0  0  0  0  0  0  0  0  0  0  0
   16.3728   -2.2971   16.5357 H   0  0  0  0  0  0  0  0  0  0  0  0
   14.1551   -0.8849   16.4730 H   0  0  0  0  0  0  0  0  0  0  0  0
   12.8686   -0.9797   14.3759 H   0  0  0  0  0  0  0  0  0  0  0  0
   11.5767   -3.0213   13.8172 H   0  0  0  0  0  0  0  0  0  0  0  0
   11.6373   -4.9715   15.3599 H   0  0  0  0  0  0  0  0  0  0  0  0
   12.9386   -4.8846   17.4510 H   0  0  0  0  0  0  0  0  0  0  0  0
   12.2979   -4.4996   21.4617 H   0  0  0  0  0  0  0  0  0  0  0  0
   11.8047   -6.8880   21.7983 H   0  0  0  0  0  0  0  0  0  0  0  0
   13.4255   -8.3942   22.9157 H   0  0  0  0  0  0  0  0  0  0  0  0
   16.8922   -4.3303   23.5323 H   0  0  0  0  0  0  0  0  0  0  0  0
   17.9626   -1.7466   19.8378 H   0  0  0  0  0  0  0  0  0  0  0  0
   17.5097   -2.8131   21.1818 H   0  0  0  0  0  0  0  0  0  0  0  0
   16.9529   -1.1010   21.1547 H   0  0  0  0  0  0  0  0  0  0  0  0
   16.7299   -3.4670   13.3175 H   0  0  0  0  0  0  0  0  0  0  0  0
   19.1338   -3.9821   13.8024 H   0  0  0  0  0  0  0  0  0  0  0  0
   19.5931   -3.4784   12.1902 H   0  0  0  0  0  0  0  0  0  0  0  0
   17.6561   -5.4750   12.4874 H   0  0  0  0  0  0  0  0  0  0  0  0
  1  2  1  0
  2  3  1  0
  3  4  1  0
  4  5  1  0
  5  6  1  0
  6  7  1  0
  7  8  1  0
  7  9  2  0
  7 10  2  0
 10 11  1  0
 11 12  1  0
 12 13  1  0
 13 14  1  0
 14 15  2  0
 15 16  1  0
 16 17  2  0
 17 18  1  0
 18 19  2  0
 19 20  1  0
 20 21  2  0
 15 22  1  0
 22 23  2  0
 23 24  1  0
 24 25  1  0
 25 26  2  0
 26 27  1  0
 27 28  2  0
 28 29  1  0
 29 30  2  0
 30 31  1  0
 31 32  2  0
 32 33  1  0
 23 34  1  0
 34 35  1  0
  6 36  1  0
 36 37  1  0
 37 38  1  0
 36  2  1  0
 34 14  1  0
 21 16  1  0
 33 25  1  0
 33 29  1  0
  1 39  1  0
  1 40  1  0
  1 41  1  0
  2 42  1  0
  3 43  1  0
  3 44  1  0
  4 45  1  0
  4 46  1  0
  5 47  1  0
  5 48  1  0
  8 49  1  0
  8 50  1  0
  8 51  1  0
 11 52  1  0
 11 53  1  0
 12 54  1  0
 12 55  1  0
 13 56  1  0
 13 57  1  0
 17 58  1  0
 18 59  1  0
 19 60  1  0
 20 61  1  0
 21 62  1  0
 26 63  1  0
 27 64  1  0
 28 65  1  0
 32 66  1  0
 35 67  1  0
 35 68  1  0
 35 69  1  0
 36 70  1  0
 37 71  1  0
 37 72  1  0
 38 73  1  0
M  END
>  <Energy>  (875) 
-0.98688014603822238

>  <compound_id>  (875) 
1145

>  <target_id>  (875) 
1

>  <reference_id>  (875) 
83

>  <inspiration_ids>  (875) 
[83, 4]

>  <energy_score>  (875) 
-65.04770452375031

>  <distance_score>  (875) 
0.8438086311832856

>  <path>  (875) 
/opt/xchem-fragalysis-2/maxwin/BulkDock/SCRATCH/505733/C1145-P83/C1145-P83.minimised.mol

>  <scratch_subdir>  (875) 
/opt/xchem-fragalysis-2/maxwin/BulkDock/SCRATCH/505733/C1145-P83

>  <fragmenstein_runtime>  (875) 
15.894207239151001

>  <fragmenstein_outcome>  (875) 
acceptable

>  <fragmenstein_mode>  (875) 
expansion

>  <fragmenstein_error>  (875) 


$$$$
C1145-P4
     RDKit          3D

 73 77  0  0  0  0  0  0  0  0999 V2000
   17.8026   -2.3735    9.8780 C   0  0  0  0  0  0  0  0  0  0  0  0
   16.8081   -2.6851   11.0024 C   0  0  0  0  0  0  0  0  0  0  0  0
   15.6510   -1.6921   10.9790 C   0  0  0  0  0  0  0  0  0  0  0  0
   16.1308   -0.3373   11.4474 C   0  0  0  0  0  0  0  0  0  0  0  0
   16.7396   -0.4571   12.8350 C   0  0  0  0  0  0  0  0  0  0  0  0
   17.8255   -1.4445   12.9990 N   0  0  0  0  0  0  0  0  0  0  0  0
   18.5745   -1.4394   14.5748 S   0  0  0  0  0  0  0  0  0  0  0  0
   20.1346   -0.6439   14.3589 C   0  0  0  0  0  0  0  0  0  0  0  0
   18.8436   -2.8261   14.8781 O   0  0  0  0  0  0  0  0  0  0  0  0
   17.6823   -0.5646   15.4645 N   0  0  0  0  0  0  0  0  0  0  0  0
   17.8753   -0.5142   16.9257 C   0  0  0  0  0  0  0  0  0  0  0  0
   18.2530   -1.8377   17.5981 C   0  0  0  0  0  0  0  0  0  0  0  0
   17.3145   -3.0322   17.3521 C   0  0  0  0  0  0  0  0  0  0  0  0
   16.2112   -3.1447   18.3464 C   0  0  0  0  0  0  0  0  0  0  0  0
   14.8307   -3.0932   18.2100 C   0  0  0  0  0  0  0  0  0  0  0  0
   14.0461   -2.8597   16.9979 C   0  0  0  0  0  0  0  0  0  0  0  0
   14.3787   -1.8662   16.0697 C   0  0  0  0  0  0  0  0  0  0  0  0
   13.5498   -1.5857   14.9743 C   0  0  0  0  0  0  0  0  0  0  0  0
   12.3716   -2.2959   14.7877 C   0  0  0  0  0  0  0  0  0  0  0  0
   12.0278   -3.2889   15.6955 C   0  0  0  0  0  0  0  0  0  0  0  0
   12.8596   -3.5713   16.7876 C   0  0  0  0  0  0  0  0  0  0  0  0
   14.2297   -3.2669   19.4391 N   0  0  0  0  0  0  0  0  0  0  0  0
   15.2057   -3.3345   20.3116 C   0  0  0  0  0  0  0  0  0  0  0  0
   15.0343   -3.1134   22.0244 S   0  0  0  0  0  0  0  0  0  0  0  0
   14.9163   -4.7645   22.5292 C   0  0  0  0  0  0  0  0  0  0  0  0
   13.9025   -5.5653   22.1394 C   0  0  0  0  0  0  0  0  0  0  0  0
   13.8368   -6.9337   22.6356 C   0  0  0  0  0  0  0  0  0  0  0  0
   14.7687   -7.4283   23.4710 C   0  0  0  0  0  0  0  0  0  0  0  0
   15.8340   -6.5943   23.8972 C   0  0  0  0  0  0  0  0  0  0  0  0
   16.8609   -6.8034   24.6918 N   0  0  0  0  0  0  0  0  0  0  0  0
   17.5724   -5.6296   24.7781 N   0  0  0  0  0  0  0  0  0  0  0  0
   16.9586   -4.7350   24.0373 C   0  0  0  0  0  0  0  0  0  0  0  0
   15.8608   -5.2874   23.4274 N   0  0  0  0  0  0  0  0  0  0  0  0
   16.4223   -3.4111   19.6889 N   0  0  0  0  0  0  0  0  0  0  0  0
   17.6840   -3.7015   20.3323 C   0  0  0  0  0  0  0  0  0  0  0  0
   17.4640   -2.7707   12.4106 C   0  0  0  0  0  0  0  0  0  0  0  0
   18.6739   -3.7673   12.2985 C   0  0  0  0  0  0  0  0  0  0  0  0
   18.6662   -4.7869   13.2931 O   0  0  0  0  0  0  0  0  0  0  0  0
   18.4767   -1.5551   10.1525 H   0  0  0  0  0  0  0  0  0  0  0  0
   18.4242   -3.2342    9.6175 H   0  0  0  0  0  0  0  0  0  0  0  0
   17.2867   -2.0743    8.9603 H   0  0  0  0  0  0  0  0  0  0  0  0
   16.3740   -3.6668   10.7932 H   0  0  0  0  0  0  0  0  0  0  0  0
   15.2230   -1.6095    9.9744 H   0  0  0  0  0  0  0  0  0  0  0  0
   14.8476   -2.0485   11.6363 H   0  0  0  0  0  0  0  0  0  0  0  0
   15.2864    0.3613   11.4763 H   0  0  0  0  0  0  0  0  0  0  0  0
   16.8621    0.0838   10.7482 H   0  0  0  0  0  0  0  0  0  0  0  0
   17.1193    0.5373   13.1015 H   0  0  0  0  0  0  0  0  0  0  0  0
   15.9331   -0.6931   13.5348 H   0  0  0  0  0  0  0  0  0  0  0  0
   20.7074   -1.1905   13.6070 H   0  0  0  0  0  0  0  0  0  0  0  0
   20.6698   -0.6600   15.3107 H   0  0  0  0  0  0  0  0  0  0  0  0
   19.9710    0.3854   14.0338 H   0  0  0  0  0  0  0  0  0  0  0  0
   16.9598   -0.1196   17.3801 H   0  0  0  0  0  0  0  0  0  0  0  0
   18.6632    0.2187   17.1393 H   0  0  0  0  0  0  0  0  0  0  0  0
   18.3571   -1.6381   18.6710 H   0  0  0  0  0  0  0  0  0  0  0  0
   19.2617   -2.1202   17.2707 H   0  0  0  0  0  0  0  0  0  0  0  0
   17.9069   -3.9554   17.4033 H   0  0  0  0  0  0  0  0  0  0  0  0
   16.8938   -3.0255   16.3446 H   0  0  0  0  0  0  0  0  0  0  0  0
   15.2652   -1.2592   16.2028 H   0  0  0  0  0  0  0  0  0  0  0  0
   13.8165   -0.7947   14.2804 H   0  0  0  0  0  0  0  0  0  0  0  0
   11.7260   -2.0831   13.9402 H   0  0  0  0  0  0  0  0  0  0  0  0
   11.1182   -3.8616   15.5444 H   0  0  0  0  0  0  0  0  0  0  0  0
   12.5653   -4.3499   17.4870 H   0  0  0  0  0  0  0  0  0  0  0  0
   13.1176   -5.2151   21.4721 H   0  0  0  0  0  0  0  0  0  0  0  0
   13.0089   -7.5551   22.3128 H   0  0  0  0  0  0  0  0  0  0  0  0
   14.7266   -8.4477   23.8383 H   0  0  0  0  0  0  0  0  0  0  0  0
   17.2608   -3.7059   23.9126 H   0  0  0  0  0  0  0  0  0  0  0  0
   18.4503   -3.9296   19.5903 H   0  0  0  0  0  0  0  0  0  0  0  0
   17.5605   -4.5799   20.9695 H   0  0  0  0  0  0  0  0  0  0  0  0
   17.9834   -2.8309   20.9210 H   0  0  0  0  0  0  0  0  0  0  0  0
   16.7193   -3.1805   13.1003 H   0  0  0  0  0  0  0  0  0  0  0  0
   19.6361   -3.2443   12.3317 H   0  0  0  0  0  0  0  0  0  0  0  0
   18.6559   -4.3244   11.3596 H   0  0  0  0  0  0  0  0  0  0  0  0
   18.6430   -4.3078   14.1511 H   0  0  0  0  0  0  0  0  0  0  0  0
  1  2  1  0
  2  3  1  0
  3  4  1  0
  4  5  1  0
  5  6  1  0
  6  7  1  0
  7  8  1  0
  7  9  2  0
  7 10  2  0
 10 11  1  0
 11 12  1  0
 12 13  1  0
 13 14  1  0
 14 15  2  0
 15 16  1  0
 16 17  2  0
 17 18  1  0
 18 19  2  0
 19 20  1  0
 20 21  2  0
 15 22  1  0
 22 23  2  0
 23 24  1  0
 24 25  1  0
 25 26  2  0
 26 27  1  0
 27 28  2  0
 28 29  1  0
 29 30  2  0
 30 31  1  0
 31 32  2  0
 32 33  1  0
 23 34  1  0
 34 35  1  0
  6 36  1  0
 36 37  1  0
 37 38  1  0
 36  2  1  0
 34 14  1  0
 21 16  1  0
 33 25  1  0
 33 29  1  0
  1 39  1  0
  1 40  1  0
  1 41  1  0
  2 42  1  0
  3 43  1  0
  3 44  1  0
  4 45  1  0
  4 46  1  0
  5 47  1  0
  5 48  1  0
  8 49  1  0
  8 50  1  0
  8 51  1  0
 11 52  1  0
 11 53  1  0
 12 54  1  0
 12 55  1  0
 13 56  1  0
 13 57  1  0
 17 58  1  0
 18 59  1  0
 19 60  1  0
 20 61  1  0
 21 62  1  0
 26 63  1  0
 27 64  1  0
 28 65  1  0
 32 66  1  0
 35 67  1  0
 35 68  1  0
 35 69  1  0
 36 70  1  0
 37 71  1  0
 37 72  1  0
 38 73  1  0
M  END
>  <Energy>  (876) 
-2.6373988884605937

>  <compound_id>  (876) 
1145

>  <target_id>  (876) 
1

>  <reference_id>  (876) 
4

>  <inspiration_ids>  (876) 
[83, 4]

>  <energy_score>  (876) 
-66.69822326617027

>  <distance_score>  (876) 
0.8939959901294148

>  <path>  (876) 
/opt/xchem-fragalysis-2/maxwin/BulkDock/SCRATCH/505733/C1145-P4/C1145-P4.minimised.mol

>  <scratch_subdir>  (876) 
/opt/xchem-fragalysis-2/maxwin/BulkDock/SCRATCH/505733/C1145-P4

>  <fragmenstein_runtime>  (876) 
16.241491317749023

>  <fragmenstein_outcome>  (876) 
acceptable

>  <fragmenstein_mode>  (876) 
expansion

>  <fragmenstein_error>  (876) 


$$$$
C1162-P83
     RDKit          3D

 46 49  0  0  0  0  0  0  0  0999 V2000
   13.2395   -1.4125   15.7898 C   0  0  0  0  0  0  0  0  0  0  0  0
   14.5495   -1.4689   16.5292 C   0  0  0  0  0  0  0  0  0  0  0  0
   15.5119   -0.5462   16.1133 C   0  0  0  0  0  0  0  0  0  0  0  0
   16.7776   -1.0856   16.2297 C   0  0  0  0  0  0  0  0  0  0  0  0
   17.1149   -2.1351   17.0671 C   0  0  0  0  0  0  0  0  0  0  0  0
   16.1720   -2.6487   17.9513 C   0  0  0  0  0  0  0  0  0  0  0  0
   14.8741   -2.5309   17.4262 C   0  0  0  0  0  0  0  0  0  0  0  0
   14.0026   -3.6369   17.5178 N   0  0  0  0  0  0  0  0  0  0  0  0
   13.8393   -4.3011   18.8049 C   0  0  0  0  0  0  0  0  0  0  0  0
   14.7832   -5.3314   19.0191 O   0  0  0  0  0  0  0  0  0  0  0  0
   14.1410   -4.5139   16.3413 C   0  0  0  0  0  0  0  0  0  0  0  0
   15.4841   -5.0756   16.1091 C   0  0  0  0  0  0  0  0  0  0  0  0
   16.5467   -5.6116   15.9453 C   0  0  0  0  0  0  0  0  0  0  0  0
   18.1750   -6.5753   15.7090 Br  0  0  0  0  0  0  0  0  0  0  0  0
   18.2832   -2.7335   16.6399 N   0  0  0  0  0  0  0  0  0  0  0  0
   18.4760   -2.2111   15.4424 C   0  0  0  0  0  0  0  0  0  0  0  0
   19.0614   -3.1535   14.0799 S   0  0  0  0  0  0  0  0  0  0  0  0
   17.8204   -2.7563   12.9361 C   0  0  0  0  0  0  0  0  0  0  0  0
   16.5918   -3.3064   12.9327 C   0  0  0  0  0  0  0  0  0  0  0  0
   15.5404   -2.7180   12.1098 C   0  0  0  0  0  0  0  0  0  0  0  0
   15.7565   -1.6126   11.3790 C   0  0  0  0  0  0  0  0  0  0  0  0
   17.0457   -1.0387   11.3806 C   0  0  0  0  0  0  0  0  0  0  0  0
   17.5139    0.0978   10.9251 N   0  0  0  0  0  0  0  0  0  0  0  0
   18.8512    0.1548   11.2371 N   0  0  0  0  0  0  0  0  0  0  0  0
   19.1740   -0.9672   11.8345 C   0  0  0  0  0  0  0  0  0  0  0  0
   18.0482   -1.6915   12.0773 N   0  0  0  0  0  0  0  0  0  0  0  0
   17.8798   -0.9674   15.4151 N   0  0  0  0  0  0  0  0  0  0  0  0
   18.1033    0.2186   14.6289 C   0  0  0  0  0  0  0  0  0  0  0  0
   19.4786    0.3358   14.3133 O   0  0  0  0  0  0  0  0  0  0  0  0
   13.3436   -1.8727   14.8018 H   0  0  0  0  0  0  0  0  0  0  0  0
   12.4395   -1.9256   16.3316 H   0  0  0  0  0  0  0  0  0  0  0  0
   12.9174   -0.3763   15.6424 H   0  0  0  0  0  0  0  0  0  0  0  0
   15.2737    0.2246   15.3887 H   0  0  0  0  0  0  0  0  0  0  0  0
   16.4532   -3.4974   18.5667 H   0  0  0  0  0  0  0  0  0  0  0  0
   13.9120   -3.5846   19.6309 H   0  0  0  0  0  0  0  0  0  0  0  0
   12.8392   -4.7402   18.8602 H   0  0  0  0  0  0  0  0  0  0  0  0
   14.4564   -6.1100   18.5182 H   0  0  0  0  0  0  0  0  0  0  0  0
   13.8454   -3.9767   15.4332 H   0  0  0  0  0  0  0  0  0  0  0  0
   13.3929   -5.3096   16.4141 H   0  0  0  0  0  0  0  0  0  0  0  0
   16.3219   -4.1205   13.5937 H   0  0  0  0  0  0  0  0  0  0  0  0
   14.5476   -3.1499   12.1675 H   0  0  0  0  0  0  0  0  0  0  0  0
   14.9674   -1.1421   10.8125 H   0  0  0  0  0  0  0  0  0  0  0  0
   20.1655   -1.2460   12.1647 H   0  0  0  0  0  0  0  0  0  0  0  0
   17.4636    0.2107   13.7500 H   0  0  0  0  0  0  0  0  0  0  0  0
   17.8365    1.0855   15.2431 H   0  0  0  0  0  0  0  0  0  0  0  0
   19.5479    1.0620   13.6661 H   0  0  0  0  0  0  0  0  0  0  0  0
  1  2  1  0
  2  3  2  0
  3  4  1  0
  4  5  2  0
  5  6  1  0
  6  7  2  0
  7  8  1  0
  8  9  1  0
  9 10  1  0
  8 11  1  0
 11 12  1  0
 12 13  3  0
 13 14  1  0
  5 15  1  0
 15 16  2  0
 16 17  1  0
 17 18  1  0
 18 19  2  0
 19 20  1  0
 20 21  2  0
 21 22  1  0
 22 23  2  0
 23 24  1  0
 24 25  2  0
 25 26  1  0
 16 27  1  0
 27 28  1  0
 28 29  1  0
  7  2  1  0
 26 18  1  0
 27  4  1  0
 26 22  1  0
  1 30  1  0
  1 31  1  0
  1 32  1  0
  3 33  1  0
  6 34  1  0
  9 35  1  0
  9 36  1  0
 10 37  1  0
 11 38  1  0
 11 39  1  0
 19 40  1  0
 20 41  1  0
 21 42  1  0
 25 43  1  0
 28 44  1  0
 28 45  1  0
 29 46  1  0
M  END
>  <Energy>  (877) 
66.751068789652251

>  <compound_id>  (877) 
1162

>  <target_id>  (877) 
1

>  <reference_id>  (877) 
83

>  <inspiration_ids>  (877) 
[83, 61]

>  <energy_score>  (877) 
8.581652963841947

>  <distance_score>  (877) 
2.340485418097221

>  <path>  (877) 
/opt/xchem-fragalysis-2/maxwin/BulkDock/SCRATCH/505733/C1162-P83/C1162-P83.minimised.mol

>  <scratch_subdir>  (877) 
/opt/xchem-fragalysis-2/maxwin/BulkDock/SCRATCH/505733/C1162-P83

>  <fragmenstein_runtime>  (877) 
33.77922177314758

>  <fragmenstein_outcome>  (877) 
too moved

>  <fragmenstein_mode>  (877) 
expansion

>  <fragmenstein_error>  (877) 


$$$$
C1162-P61
     RDKit          3D

 46 49  0  0  0  0  0  0  0  0999 V2000
   13.8170   -0.4704   17.6118 C   0  0  0  0  0  0  0  0  0  0  0  0
   14.9346   -1.3242   17.1448 C   0  0  0  0  0  0  0  0  0  0  0  0
   15.3679   -1.0484   15.8542 C   0  0  0  0  0  0  0  0  0  0  0  0
   16.2454   -1.9783   15.3452 C   0  0  0  0  0  0  0  0  0  0  0  0
   16.9309   -2.9039   16.1026 C   0  0  0  0  0  0  0  0  0  0  0  0
   16.5949   -3.0754   17.4352 C   0  0  0  0  0  0  0  0  0  0  0  0
   15.4478   -2.4134   17.8909 C   0  0  0  0  0  0  0  0  0  0  0  0
   14.7054   -2.9611   18.9776 N   0  0  0  0  0  0  0  0  0  0  0  0
   13.7095   -3.8753   18.4139 C   0  0  0  0  0  0  0  0  0  0  0  0
   13.1118   -4.6560   19.4325 O   0  0  0  0  0  0  0  0  0  0  0  0
   15.5230   -3.6037   20.0219 C   0  0  0  0  0  0  0  0  0  0  0  0
   16.4903   -2.6715   20.6270 C   0  0  0  0  0  0  0  0  0  0  0  0
   17.2778   -1.9098   21.1173 C   0  0  0  0  0  0  0  0  0  0  0  0
   18.5303   -0.6969   21.8906 Br  0  0  0  0  0  0  0  0  0  0  0  0
   17.7954   -3.6380   15.3295 N   0  0  0  0  0  0  0  0  0  0  0  0
   17.5268   -3.2878   14.0915 C   0  0  0  0  0  0  0  0  0  0  0  0
   18.5541   -3.7613   12.7557 S   0  0  0  0  0  0  0  0  0  0  0  0
   18.3918   -2.3170   11.8236 C   0  0  0  0  0  0  0  0  0  0  0  0
   17.8757   -2.3686   10.5773 C   0  0  0  0  0  0  0  0  0  0  0  0
   17.4803   -1.1314    9.9218 C   0  0  0  0  0  0  0  0  0  0  0  0
   17.5966    0.0583   10.5426 C   0  0  0  0  0  0  0  0  0  0  0  0
   18.1578    0.1185   11.8479 C   0  0  0  0  0  0  0  0  0  0  0  0
   18.3153    1.0986   12.7067 N   0  0  0  0  0  0  0  0  0  0  0  0
   18.9034    0.5866   13.8411 N   0  0  0  0  0  0  0  0  0  0  0  0
   19.1009   -0.6941   13.6437 C   0  0  0  0  0  0  0  0  0  0  0  0
   18.5970   -1.0626   12.4198 N   0  0  0  0  0  0  0  0  0  0  0  0
   16.4843   -2.3790   14.0520 N   0  0  0  0  0  0  0  0  0  0  0  0
   15.5115   -2.1182   13.0073 C   0  0  0  0  0  0  0  0  0  0  0  0
   15.5044   -0.7473   12.6607 O   0  0  0  0  0  0  0  0  0  0  0  0
   12.8603   -0.9008   17.3054 H   0  0  0  0  0  0  0  0  0  0  0  0
   13.8657   -0.3524   18.6980 H   0  0  0  0  0  0  0  0  0  0  0  0
   13.8822    0.5435   17.1993 H   0  0  0  0  0  0  0  0  0  0  0  0
   14.9007   -0.2903   15.2349 H   0  0  0  0  0  0  0  0  0  0  0  0
   17.0824   -3.8811   17.9643 H   0  0  0  0  0  0  0  0  0  0  0  0
   12.9246   -3.3295   17.8783 H   0  0  0  0  0  0  0  0  0  0  0  0
   14.1633   -4.5783   17.7068 H   0  0  0  0  0  0  0  0  0  0  0  0
   12.2234   -4.2638   19.5746 H   0  0  0  0  0  0  0  0  0  0  0  0
   16.0110   -4.5213   19.6720 H   0  0  0  0  0  0  0  0  0  0  0  0
   14.8626   -3.9158   20.8417 H   0  0  0  0  0  0  0  0  0  0  0  0
   17.6509   -3.3070   10.0785 H   0  0  0  0  0  0  0  0  0  0  0  0
   17.0617   -1.1880    8.9235 H   0  0  0  0  0  0  0  0  0  0  0  0
   17.2831    0.9845   10.0743 H   0  0  0  0  0  0  0  0  0  0  0  0
   19.5663   -1.3753   14.3423 H   0  0  0  0  0  0  0  0  0  0  0  0
   15.6914   -2.7418   12.1335 H   0  0  0  0  0  0  0  0  0  0  0  0
   14.5233   -2.3576   13.4076 H   0  0  0  0  0  0  0  0  0  0  0  0
   14.6888   -0.5813   12.1605 H   0  0  0  0  0  0  0  0  0  0  0  0
  1  2  1  0
  2  3  2  0
  3  4  1  0
  4  5  2  0
  5  6  1  0
  6  7  2  0
  7  8  1  0
  8  9  1  0
  9 10  1  0
  8 11  1  0
 11 12  1  0
 12 13  3  0
 13 14  1  0
  5 15  1  0
 15 16  2  0
 16 17  1  0
 17 18  1  0
 18 19  2  0
 19 20  1  0
 20 21  2  0
 21 22  1  0
 22 23  2  0
 23 24  1  0
 24 25  2  0
 25 26  1  0
 16 27  1  0
 27 28  1  0
 28 29  1  0
  7  2  1  0
 26 18  1  0
 27  4  1  0
 26 22  1  0
  1 30  1  0
  1 31  1  0
  1 32  1  0
  3 33  1  0
  6 34  1  0
  9 35  1  0
  9 36  1  0
 10 37  1  0
 11 38  1  0
 11 39  1  0
 19 40  1  0
 20 41  1  0
 21 42  1  0
 25 43  1  0
 28 44  1  0
 28 45  1  0
 29 46  1  0
M  END
>  <Energy>  (878) 
41.785480736439816

>  <compound_id>  (878) 
1162

>  <target_id>  (878) 
1

>  <reference_id>  (878) 
61

>  <inspiration_ids>  (878) 
[83, 61]

>  <energy_score>  (878) 
-16.383935089370674

>  <distance_score>  (878) 
2.5237102957490998

>  <path>  (878) 
/opt/xchem-fragalysis-2/maxwin/BulkDock/SCRATCH/505733/C1162-P61/C1162-P61.minimised.mol

>  <scratch_subdir>  (878) 
/opt/xchem-fragalysis-2/maxwin/BulkDock/SCRATCH/505733/C1162-P61

>  <fragmenstein_runtime>  (878) 
34.0262668132782

>  <fragmenstein_outcome>  (878) 
too moved

>  <fragmenstein_mode>  (878) 
expansion

>  <fragmenstein_error>  (878) 


$$$$
C1164-P83
     RDKit          3D

 32 33  0  0  0  0  0  0  0  0999 V2000
   14.8578   -2.0448   16.9577 C   0  0  0  0  0  0  0  0  0  0  0  0
   15.4579   -3.2763   16.5505 O   0  0  0  0  0  0  0  0  0  0  0  0
   15.6976   -3.3487   15.2042 C   0  0  0  0  0  0  0  0  0  0  0  0
   16.9265   -3.8722   14.8119 C   0  0  0  0  0  0  0  0  0  0  0  0
   17.3464   -3.7346   13.4928 C   0  0  0  0  0  0  0  0  0  0  0  0
   16.5593   -3.0280   12.5700 C   0  0  0  0  0  0  0  0  0  0  0  0
   17.2232   -2.3415   11.3801 C   0  0  0  0  0  0  0  0  0  0  0  0
   17.4127   -3.2860   10.3289 O   0  0  0  0  0  0  0  0  0  0  0  0
   16.4517   -1.1355   10.8043 C   0  0  0  0  0  0  0  0  0  0  0  0
   16.5288    0.1163   11.6931 C   0  0  0  0  0  0  0  0  0  0  0  0
   17.1658   -0.0574   12.9963 N   0  0  0  0  0  0  0  0  0  0  0  0
   18.4746   -0.7062   12.9112 C   0  0  0  0  0  0  0  0  0  0  0  0
   18.5946   -1.7614   11.8038 C   0  0  0  0  0  0  0  0  0  0  0  0
   15.2266   -2.7768   12.9077 C   0  0  0  0  0  0  0  0  0  0  0  0
   14.8024   -2.9112   14.2333 C   0  0  0  0  0  0  0  0  0  0  0  0
   15.0005   -1.9525   18.0383 H   0  0  0  0  0  0  0  0  0  0  0  0
   13.7819   -2.0594   16.7586 H   0  0  0  0  0  0  0  0  0  0  0  0
   15.3331   -1.1806   16.4800 H   0  0  0  0  0  0  0  0  0  0  0  0
   17.5941   -4.3008   15.5542 H   0  0  0  0  0  0  0  0  0  0  0  0
   18.3505   -4.0662   13.2412 H   0  0  0  0  0  0  0  0  0  0  0  0
   17.1944   -4.1753   10.6653 H   0  0  0  0  0  0  0  0  0  0  0  0
   15.4132   -1.3922   10.5711 H   0  0  0  0  0  0  0  0  0  0  0  0
   16.8806   -0.8806    9.8239 H   0  0  0  0  0  0  0  0  0  0  0  0
   17.0625    0.9055   11.1485 H   0  0  0  0  0  0  0  0  0  0  0  0
   15.5160    0.5064   11.8490 H   0  0  0  0  0  0  0  0  0  0  0  0
   16.5619   -0.6202   13.5979 H   0  0  0  0  0  0  0  0  0  0  0  0
   18.7049   -1.1541   13.8847 H   0  0  0  0  0  0  0  0  0  0  0  0
   19.2420    0.0608   12.7520 H   0  0  0  0  0  0  0  0  0  0  0  0
   19.0533   -1.2922   10.9202 H   0  0  0  0  0  0  0  0  0  0  0  0
   19.3166   -2.5373   12.0833 H   0  0  0  0  0  0  0  0  0  0  0  0
   14.5272   -2.3354   12.2048 H   0  0  0  0  0  0  0  0  0  0  0  0
   13.7946   -2.6071   14.4985 H   0  0  0  0  0  0  0  0  0  0  0  0
  1  2  1  0
  2  3  1  0
  3  4  2  0
  4  5  1  0
  5  6  2  0
  6  7  1  0
  7  8  1  0
  7  9  1  0
  9 10  1  0
 10 11  1  0
 11 12  1  0
 12 13  1  0
  6 14  1  0
 14 15  2  0
 15  3  1  0
 13  7  1  0
  1 16  1  0
  1 17  1  0
  1 18  1  0
  4 19  1  0
  5 20  1  0
  8 21  1  0
  9 22  1  0
  9 23  1  0
 10 24  1  0
 10 25  1  0
 11 26  1  0
 12 27  1  0
 12 28  1  0
 13 29  1  0
 13 30  1  0
 14 31  1  0
 15 32  1  0
M  END
>  <Energy>  (879) 
46.737656658342281

>  <compound_id>  (879) 
1164

>  <target_id>  (879) 
1

>  <reference_id>  (879) 
83

>  <inspiration_ids>  (879) 
[83, 66]

>  <energy_score>  (879) 
-13.150907492734476

>  <distance_score>  (879) 
2.0605242822704652

>  <path>  (879) 
/opt/xchem-fragalysis-2/maxwin/BulkDock/SCRATCH/505733/C1164-P83/C1164-P83.minimised.mol

>  <scratch_subdir>  (879) 
/opt/xchem-fragalysis-2/maxwin/BulkDock/SCRATCH/505733/C1164-P83

>  <fragmenstein_runtime>  (879) 
3.0882890224456787

>  <fragmenstein_outcome>  (879) 
too moved

>  <fragmenstein_mode>  (879) 
expansion

>  <fragmenstein_error>  (879) 


$$$$
C1164-P66
     RDKit          3D

 32 33  0  0  0  0  0  0  0  0999 V2000
   14.8478   -1.7409   17.4977 C   0  0  0  0  0  0  0  0  0  0  0  0
   15.7683   -2.6969   16.9844 O   0  0  0  0  0  0  0  0  0  0  0  0
   15.9852   -2.6441   15.6355 C   0  0  0  0  0  0  0  0  0  0  0  0
   17.1607   -3.2446   15.1864 C   0  0  0  0  0  0  0  0  0  0  0  0
   17.5480   -3.1120   13.8573 C   0  0  0  0  0  0  0  0  0  0  0  0
   16.7644   -2.3791   12.9479 C   0  0  0  0  0  0  0  0  0  0  0  0
   17.3599   -1.9546   11.6167 C   0  0  0  0  0  0  0  0  0  0  0  0
   17.4840   -3.1126   10.7925 O   0  0  0  0  0  0  0  0  0  0  0  0
   16.5681   -0.8977   10.8216 C   0  0  0  0  0  0  0  0  0  0  0  0
   16.7598    0.5218   11.3726 C   0  0  0  0  0  0  0  0  0  0  0  0
   17.3673    0.5741   12.6937 N   0  0  0  0  0  0  0  0  0  0  0  0
   18.6561   -0.1139   12.7782 C   0  0  0  0  0  0  0  0  0  0  0  0
   18.7504   -1.3468   11.8733 C   0  0  0  0  0  0  0  0  0  0  0  0
   15.5093   -1.9404   13.3703 C   0  0  0  0  0  0  0  0  0  0  0  0
   15.1352   -2.0404   14.7137 C   0  0  0  0  0  0  0  0  0  0  0  0
   13.8232   -2.0068   17.2211 H   0  0  0  0  0  0  0  0  0  0  0  0
   15.0952   -0.7238   17.1745 H   0  0  0  0  0  0  0  0  0  0  0  0
   14.9143   -1.7677   18.5896 H   0  0  0  0  0  0  0  0  0  0  0  0
   17.8042   -3.7642   15.8906 H   0  0  0  0  0  0  0  0  0  0  0  0
   18.4989   -3.5415   13.5533 H   0  0  0  0  0  0  0  0  0  0  0  0
   16.7526   -3.7037   11.0517 H   0  0  0  0  0  0  0  0  0  0  0  0
   15.5062   -1.1577   10.7442 H   0  0  0  0  0  0  0  0  0  0  0  0
   16.9157   -0.9038    9.7782 H   0  0  0  0  0  0  0  0  0  0  0  0
   15.7848    1.0211   11.4088 H   0  0  0  0  0  0  0  0  0  0  0  0
   17.3712    1.1036   10.6712 H   0  0  0  0  0  0  0  0  0  0  0  0
   17.4640    1.5358   13.0164 H   0  0  0  0  0  0  0  0  0  0  0  0
   18.8281   -0.3961   13.8227 H   0  0  0  0  0  0  0  0  0  0  0  0
   19.4617    0.5801   12.5100 H   0  0  0  0  0  0  0  0  0  0  0  0
   19.1844   -1.0520   10.9063 H   0  0  0  0  0  0  0  0  0  0  0  0
   19.4715   -2.0678   12.2749 H   0  0  0  0  0  0  0  0  0  0  0  0
   14.8321   -1.4078   12.7117 H   0  0  0  0  0  0  0  0  0  0  0  0
   14.1822   -1.6154   15.0085 H   0  0  0  0  0  0  0  0  0  0  0  0
  1  2  1  0
  2  3  1  0
  3  4  2  0
  4  5  1  0
  5  6  2  0
  6  7  1  0
  7  8  1  0
  7  9  1  0
  9 10  1  0
 10 11  1  0
 11 12  1  0
 12 13  1  0
  6 14  1  0
 14 15  2  0
 15  3  1  0
 13  7  1  0
  1 16  1  0
  1 17  1  0
  1 18  1  0
  4 19  1  0
  5 20  1  0
  8 21  1  0
  9 22  1  0
  9 23  1  0
 10 24  1  0
 10 25  1  0
 11 26  1  0
 12 27  1  0
 12 28  1  0
 13 29  1  0
 13 30  1  0
 14 31  1  0
 15 32  1  0
M  END
>  <Energy>  (880) 
39.429081615554445

>  <compound_id>  (880) 
1164

>  <target_id>  (880) 
1

>  <reference_id>  (880) 
66

>  <inspiration_ids>  (880) 
[83, 66]

>  <energy_score>  (880) 
-20.45948253552219

>  <distance_score>  (880) 
2.4569863256592566

>  <path>  (880) 
/opt/xchem-fragalysis-2/maxwin/BulkDock/SCRATCH/505733/C1164-P66/C1164-P66.minimised.mol

>  <scratch_subdir>  (880) 
/opt/xchem-fragalysis-2/maxwin/BulkDock/SCRATCH/505733/C1164-P66

>  <fragmenstein_runtime>  (880) 
3.1866140365600586

>  <fragmenstein_outcome>  (880) 
too moved

>  <fragmenstein_mode>  (880) 
expansion

>  <fragmenstein_error>  (880) 


$$$$
C1169-P83
     RDKit          3D

 55 55  0  0  0  0  0  0  0  0999 V2000
   18.8471   -4.8782   14.9513 C   0  0  0  0  0  0  0  0  0  0  0  0
   18.6630   -3.6555   14.1888 N   0  0  0  0  0  0  0  0  0  0  0  0
   17.7560   -3.8484   13.0724 C   0  0  0  0  0  0  0  0  0  0  0  0
   18.5432   -4.6409   12.0111 C   0  0  0  0  0  0  0  0  0  0  0  0
   17.3559   -2.5447   12.5454 N   0  0  0  0  0  0  0  0  0  0  0  0
   16.1662   -2.6908   11.6897 C   0  0  0  0  0  0  0  0  0  0  0  0
   15.9156   -1.5077   10.7646 C   0  0  0  0  0  0  0  0  0  0  0  0
   17.1068   -0.9197    9.9751 C   0  0  0  0  0  0  0  0  0  0  0  0
   16.5280    0.2612    9.3765 O   0  0  0  0  0  0  0  0  0  0  0  0
   17.5190   -1.7607    8.8207 N   0  0  0  0  0  0  0  0  0  0  0  0
   18.1382   -3.0369    9.1731 C   0  0  0  0  0  0  0  0  0  0  0  0
   18.4665   -1.0460    7.9414 C   0  0  0  0  0  0  0  0  0  0  0  0
   18.2651   -0.4011   10.9066 C   0  0  0  0  0  0  0  0  0  0  0  0
   17.7791    0.3844   12.0005 O   0  0  0  0  0  0  0  0  0  0  0  0
   17.8681   -0.1886   13.3097 C   0  0  0  0  0  0  0  0  0  0  0  0
   17.3595    0.9119   14.2723 C   0  0  0  0  0  0  0  0  0  0  0  0
   15.9804    1.5665   13.9637 C   0  0  0  0  0  0  0  0  0  0  0  0
   15.4758    1.1444   12.7729 F   0  0  0  0  0  0  0  0  0  0  0  0
   14.9065    1.3228   15.0229 C   0  0  0  0  0  0  0  0  0  0  0  0
   14.4179   -0.1237   15.1060 C   0  0  0  0  0  0  0  0  0  0  0  0
   13.7428    2.1878   14.7494 N   0  0  0  0  0  0  0  0  0  0  0  0
   17.0677   -1.4910   13.5387 C   0  0  0  0  0  0  0  0  0  0  0  0
   17.8914   -5.3143   15.2612 H   0  0  0  0  0  0  0  0  0  0  0  0
   19.4335   -5.6337   14.4221 H   0  0  0  0  0  0  0  0  0  0  0  0
   19.3974   -4.6395   15.8676 H   0  0  0  0  0  0  0  0  0  0  0  0
   19.5534   -3.3085   13.8410 H   0  0  0  0  0  0  0  0  0  0  0  0
   16.8712   -4.4044   13.4055 H   0  0  0  0  0  0  0  0  0  0  0  0
   19.4201   -4.0842   11.6620 H   0  0  0  0  0  0  0  0  0  0  0  0
   18.9154   -5.5968   12.3916 H   0  0  0  0  0  0  0  0  0  0  0  0
   17.9299   -4.8980   11.1496 H   0  0  0  0  0  0  0  0  0  0  0  0
   16.2119   -3.5970   11.0853 H   0  0  0  0  0  0  0  0  0  0  0  0
   15.2679   -2.8561   12.3036 H   0  0  0  0  0  0  0  0  0  0  0  0
   15.4278   -0.7046   11.3300 H   0  0  0  0  0  0  0  0  0  0  0  0
   15.1438   -1.8157   10.0489 H   0  0  0  0  0  0  0  0  0  0  0  0
   15.9732   -0.0889    8.6634 H   0  0  0  0  0  0  0  0  0  0  0  0
   18.5232   -3.5383    8.2759 H   0  0  0  0  0  0  0  0  0  0  0  0
   17.4062   -3.7252    9.5703 H   0  0  0  0  0  0  0  0  0  0  0  0
   18.9840   -2.9180    9.8517 H   0  0  0  0  0  0  0  0  0  0  0  0
   19.4330   -0.8634    8.4236 H   0  0  0  0  0  0  0  0  0  0  0  0
   18.6514   -1.6346    7.0345 H   0  0  0  0  0  0  0  0  0  0  0  0
   18.0653   -0.0901    7.5895 H   0  0  0  0  0  0  0  0  0  0  0  0
   18.8853    0.2942   10.3289 H   0  0  0  0  0  0  0  0  0  0  0  0
   18.9405   -1.1887   11.2520 H   0  0  0  0  0  0  0  0  0  0  0  0
   18.9274   -0.3772   13.5259 H   0  0  0  0  0  0  0  0  0  0  0  0
   18.0938    1.7291   14.2265 H   0  0  0  0  0  0  0  0  0  0  0  0
   17.3989    0.5572   15.3094 H   0  0  0  0  0  0  0  0  0  0  0  0
   16.1461    2.6473   13.8673 H   0  0  0  0  0  0  0  0  0  0  0  0
   15.3791    1.6049   15.9645 H   0  0  0  0  0  0  0  0  0  0  0  0
   14.0747   -0.4900   14.1326 H   0  0  0  0  0  0  0  0  0  0  0  0
   15.2065   -0.7786   15.4853 H   0  0  0  0  0  0  0  0  0  0  0  0
   13.5756   -0.2359   15.7956 H   0  0  0  0  0  0  0  0  0  0  0  0
   12.9205    1.8269   15.2358 H   0  0  0  0  0  0  0  0  0  0  0  0
   13.5164    2.1018   13.7529 H   0  0  0  0  0  0  0  0  0  0  0  0
   16.0086   -1.2444   13.4901 H   0  0  0  0  0  0  0  0  0  0  0  0
   17.2199   -1.8199   14.5729 H   0  0  0  0  0  0  0  0  0  0  0  0
  1  2  1  0
  2  3  1  0
  3  4  1  0
  3  5  1  0
  5  6  1  0
  6  7  1  0
  7  8  1  0
  8  9  1  0
  8 10  1  0
 10 11  1  0
 10 12  1  0
  8 13  1  0
 13 14  1  0
 14 15  1  0
 15 16  1  0
 16 17  1  0
 17 18  1  0
 17 19  1  0
 19 20  1  0
 19 21  1  0
 15 22  1  0
 22  5  1  0
  1 23  1  0
  1 24  1  0
  1 25  1  0
  2 26  1  0
  3 27  1  0
  4 28  1  0
  4 29  1  0
  4 30  1  0
  6 31  1  0
  6 32  1  0
  7 33  1  0
  7 34  1  0
  9 35  1  0
 11 36  1  0
 11 37  1  0
 11 38  1  0
 12 39  1  0
 12 40  1  0
 12 41  1  0
 13 42  1  0
 13 43  1  0
 15 44  1  0
 16 45  1  0
 16 46  1  0
 17 47  1  0
 19 48  1  0
 20 49  1  0
 20 50  1  0
 20 51  1  0
 21 52  1  0
 21 53  1  0
 22 54  1  0
 22 55  1  0
M  END
>  <Energy>  (881) 
57.252766414848722

>  <compound_id>  (881) 
1169

>  <target_id>  (881) 
1

>  <reference_id>  (881) 
83

>  <inspiration_ids>  (881) 
[83, 93]

>  <energy_score>  (881) 
-57.5850891481591

>  <distance_score>  (881) 
2.028642114529532

>  <path>  (881) 
/opt/xchem-fragalysis-2/maxwin/BulkDock/SCRATCH/505733/C1169-P83/C1169-P83.minimised.mol

>  <scratch_subdir>  (881) 
/opt/xchem-fragalysis-2/maxwin/BulkDock/SCRATCH/505733/C1169-P83

>  <fragmenstein_runtime>  (881) 
7.676051139831543

>  <fragmenstein_outcome>  (881) 
too moved

>  <fragmenstein_mode>  (881) 
expansion

>  <fragmenstein_error>  (881) 


$$$$
C1169-P93
     RDKit          3D

 55 55  0  0  0  0  0  0  0  0999 V2000
   19.4038   -4.8537   14.5798 C   0  0  0  0  0  0  0  0  0  0  0  0
   19.0675   -3.4634   14.3068 N   0  0  0  0  0  0  0  0  0  0  0  0
   17.9323   -3.3481   13.4077 C   0  0  0  0  0  0  0  0  0  0  0  0
   18.4512   -3.7386   12.0073 C   0  0  0  0  0  0  0  0  0  0  0  0
   17.3756   -1.9917   13.3923 N   0  0  0  0  0  0  0  0  0  0  0  0
   16.0274   -2.0319   12.7969 C   0  0  0  0  0  0  0  0  0  0  0  0
   15.5930   -0.8160   11.9932 C   0  0  0  0  0  0  0  0  0  0  0  0
   16.7041   -0.0602   11.2426 C   0  0  0  0  0  0  0  0  0  0  0  0
   16.0277    0.6815   10.1984 O   0  0  0  0  0  0  0  0  0  0  0  0
   17.6866   -0.9598   10.6058 N   0  0  0  0  0  0  0  0  0  0  0  0
   17.1240   -1.8319    9.5888 C   0  0  0  0  0  0  0  0  0  0  0  0
   18.8607   -0.2667   10.0854 C   0  0  0  0  0  0  0  0  0  0  0  0
   17.2933    1.0486   12.2128 C   0  0  0  0  0  0  0  0  0  0  0  0
   18.1514    0.6917   13.2814 O   0  0  0  0  0  0  0  0  0  0  0  0
   17.6520    0.2414   14.5467 C   0  0  0  0  0  0  0  0  0  0  0  0
   16.7250    1.2154   15.3385 C   0  0  0  0  0  0  0  0  0  0  0  0
   15.2196    1.2260   15.0370 C   0  0  0  0  0  0  0  0  0  0  0  0
   14.7473   -0.0560   15.1017 F   0  0  0  0  0  0  0  0  0  0  0  0
   14.3412    2.0789   15.9717 C   0  0  0  0  0  0  0  0  0  0  0  0
   14.3839    1.6178   17.4283 C   0  0  0  0  0  0  0  0  0  0  0  0
   12.9505    1.9940   15.4838 N   0  0  0  0  0  0  0  0  0  0  0  0
   17.3319   -1.2751   14.6687 C   0  0  0  0  0  0  0  0  0  0  0  0
   18.5370   -5.4237   14.9307 H   0  0  0  0  0  0  0  0  0  0  0  0
   19.8513   -5.3648   13.7236 H   0  0  0  0  0  0  0  0  0  0  0  0
   20.1466   -4.8805   15.3841 H   0  0  0  0  0  0  0  0  0  0  0  0
   19.8560   -2.9639   13.9015 H   0  0  0  0  0  0  0  0  0  0  0  0
   17.1658   -4.0236   13.7895 H   0  0  0  0  0  0  0  0  0  0  0  0
   19.2446   -3.0616   11.6693 H   0  0  0  0  0  0  0  0  0  0  0  0
   18.8631   -4.7521   11.9803 H   0  0  0  0  0  0  0  0  0  0  0  0
   17.6644   -3.7382   11.2554 H   0  0  0  0  0  0  0  0  0  0  0  0
   15.9408   -2.8694   12.1006 H   0  0  0  0  0  0  0  0  0  0  0  0
   15.2653   -2.2595   13.5545 H   0  0  0  0  0  0  0  0  0  0  0  0
   14.8228   -1.1434   11.2790 H   0  0  0  0  0  0  0  0  0  0  0  0
   15.0513   -0.1248   12.6435 H   0  0  0  0  0  0  0  0  0  0  0  0
   15.3409    1.2174   10.6270 H   0  0  0  0  0  0  0  0  0  0  0  0
   16.2749   -2.3993    9.9698 H   0  0  0  0  0  0  0  0  0  0  0  0
   16.7890   -1.2605    8.7158 H   0  0  0  0  0  0  0  0  0  0  0  0
   17.8675   -2.5586    9.2429 H   0  0  0  0  0  0  0  0  0  0  0  0
   18.5989    0.4885    9.3361 H   0  0  0  0  0  0  0  0  0  0  0  0
   19.5545   -0.9765    9.6191 H   0  0  0  0  0  0  0  0  0  0  0  0
   19.4331    0.2117   10.8860 H   0  0  0  0  0  0  0  0  0  0  0  0
   17.8811    1.7357   11.5890 H   0  0  0  0  0  0  0  0  0  0  0  0
   16.4943    1.7013   12.5731 H   0  0  0  0  0  0  0  0  0  0  0  0
   18.5813    0.3225   15.1328 H   0  0  0  0  0  0  0  0  0  0  0  0
   17.1054    2.2368   15.2151 H   0  0  0  0  0  0  0  0  0  0  0  0
   16.8509    0.9501   16.3949 H   0  0  0  0  0  0  0  0  0  0  0  0
   15.0530    1.5745   14.0162 H   0  0  0  0  0  0  0  0  0  0  0  0
   14.6614    3.1253   15.9173 H   0  0  0  0  0  0  0  0  0  0  0  0
   13.6860    2.1974   18.0434 H   0  0  0  0  0  0  0  0  0  0  0  0
   14.1182    0.5593   17.5258 H   0  0  0  0  0  0  0  0  0  0  0  0
   15.3795    1.7601   17.8591 H   0  0  0  0  0  0  0  0  0  0  0  0
   12.3266    2.4378   16.1584 H   0  0  0  0  0  0  0  0  0  0  0  0
   12.6788    1.0085   15.4519 H   0  0  0  0  0  0  0  0  0  0  0  0
   16.4071   -1.4637   15.2232 H   0  0  0  0  0  0  0  0  0  0  0  0
   18.0871   -1.6569   15.3663 H   0  0  0  0  0  0  0  0  0  0  0  0
  1  2  1  0
  2  3  1  0
  3  4  1  0
  3  5  1  0
  5  6  1  0
  6  7  1  0
  7  8  1  0
  8  9  1  0
  8 10  1  0
 10 11  1  0
 10 12  1  0
  8 13  1  0
 13 14  1  0
 14 15  1  0
 15 16  1  0
 16 17  1  0
 17 18  1  0
 17 19  1  0
 19 20  1  0
 19 21  1  0
 15 22  1  0
 22  5  1  0
  1 23  1  0
  1 24  1  0
  1 25  1  0
  2 26  1  0
  3 27  1  0
  4 28  1  0
  4 29  1  0
  4 30  1  0
  6 31  1  0
  6 32  1  0
  7 33  1  0
  7 34  1  0
  9 35  1  0
 11 36  1  0
 11 37  1  0
 11 38  1  0
 12 39  1  0
 12 40  1  0
 12 41  1  0
 13 42  1  0
 13 43  1  0
 15 44  1  0
 16 45  1  0
 16 46  1  0
 17 47  1  0
 19 48  1  0
 20 49  1  0
 20 50  1  0
 20 51  1  0
 21 52  1  0
 21 53  1  0
 22 54  1  0
 22 55  1  0
M  END
>  <Energy>  (882) 
70.705326162067934

>  <compound_id>  (882) 
1169

>  <target_id>  (882) 
1

>  <reference_id>  (882) 
93

>  <inspiration_ids>  (882) 
[83, 93]

>  <energy_score>  (882) 
-44.13252940093969

>  <distance_score>  (882) 
1.8143855766518542

>  <path>  (882) 
/opt/xchem-fragalysis-2/maxwin/BulkDock/SCRATCH/505733/C1169-P93/C1169-P93.minimised.mol

>  <scratch_subdir>  (882) 
/opt/xchem-fragalysis-2/maxwin/BulkDock/SCRATCH/505733/C1169-P93

>  <fragmenstein_runtime>  (882) 
6.573632478713989

>  <fragmenstein_outcome>  (882) 
too moved

>  <fragmenstein_mode>  (882) 
expansion

>  <fragmenstein_error>  (882) 


$$$$
C71-P83
     RDKit          3D

 28 28  0  0  0  0  0  0  0  0999 V2000
   12.7292   -4.0715   15.4028 C   0  0  0  0  0  0  0  0  0  0  0  0
   13.8762   -3.1099   15.4651 N   0  0  0  0  0  0  0  0  0  0  0  0
   13.6698   -3.3581   16.9371 C   0  0  0  0  0  0  0  0  0  0  0  0
   13.9372   -1.6180   15.1602 C   0  0  0  0  0  0  0  0  0  0  0  0
   13.0777   -0.8609   14.8820 O   0  0  0  0  0  0  0  0  0  0  0  0
   15.4233   -1.2000   15.2504 C   0  0  0  0  0  0  0  0  0  0  0  0
   15.9555   -0.6465   14.0463 O   0  0  0  0  0  0  0  0  0  0  0  0
   16.3734   -1.5668   13.1349 C   0  0  0  0  0  0  0  0  0  0  0  0
   15.9352   -1.4103   11.8193 C   0  0  0  0  0  0  0  0  0  0  0  0
   16.3780   -2.2882   10.8239 C   0  0  0  0  0  0  0  0  0  0  0  0
   17.2451   -3.3354   11.1411 C   0  0  0  0  0  0  0  0  0  0  0  0
   17.8209   -4.1351   10.1445 N   0  0  0  0  0  0  0  0  0  0  0  0
   17.7237   -3.4175   12.4563 C   0  0  0  0  0  0  0  0  0  0  0  0
   18.6390   -4.3478   12.7704 F   0  0  0  0  0  0  0  0  0  0  0  0
   17.2934   -2.5566   13.4528 C   0  0  0  0  0  0  0  0  0  0  0  0
   11.7744   -3.6994   15.8064 H   0  0  0  0  0  0  0  0  0  0  0  0
   12.5158   -4.1195   14.3256 H   0  0  0  0  0  0  0  0  0  0  0  0
   12.9783   -5.1087   15.6695 H   0  0  0  0  0  0  0  0  0  0  0  0
   14.4620   -2.7739   17.4295 H   0  0  0  0  0  0  0  0  0  0  0  0
   13.8717   -4.3853   17.2777 H   0  0  0  0  0  0  0  0  0  0  0  0
   12.7521   -2.9104   17.3503 H   0  0  0  0  0  0  0  0  0  0  0  0
   15.4628   -0.4047   16.0050 H   0  0  0  0  0  0  0  0  0  0  0  0
   16.0414   -2.0081   15.6552 H   0  0  0  0  0  0  0  0  0  0  0  0
   15.2545   -0.6010   11.5686 H   0  0  0  0  0  0  0  0  0  0  0  0
   16.0488   -2.1323    9.8035 H   0  0  0  0  0  0  0  0  0  0  0  0
   18.1859   -5.0042   10.5321 H   0  0  0  0  0  0  0  0  0  0  0  0
   17.2521   -4.3356    9.3283 H   0  0  0  0  0  0  0  0  0  0  0  0
   17.7193   -2.6562   14.4431 H   0  0  0  0  0  0  0  0  0  0  0  0
  1  2  1  0
  2  3  1  0
  2  4  1  0
  4  5  2  0
  4  6  1  0
  6  7  1  0
  7  8  1  0
  8  9  2  0
  9 10  1  0
 10 11  2  0
 11 12  1  0
 11 13  1  0
 13 14  1  0
 13 15  2  0
 15  8  1  0
  1 16  1  0
  1 17  1  0
  1 18  1  0
  3 19  1  0
  3 20  1  0
  3 21  1  0
  6 22  1  0
  6 23  1  0
  9 24  1  0
 10 25  1  0
 12 26  1  0
 12 27  1  0
 15 28  1  0
M  END
>  <Energy>  (883) 
127.82889879077807

>  <compound_id>  (883) 
71

>  <target_id>  (883) 
1

>  <reference_id>  (883) 
83

>  <inspiration_ids>  (883) 
[83, 98]

>  <energy_score>  (883) 
60.87305953108241

>  <distance_score>  (883) 
2.1351577761143448

>  <path>  (883) 
/opt/xchem-fragalysis-2/maxwin/BulkDock/SCRATCH/505733/C71-P83/C71-P83.minimised.mol

>  <scratch_subdir>  (883) 
/opt/xchem-fragalysis-2/maxwin/BulkDock/SCRATCH/505733/C71-P83

>  <fragmenstein_runtime>  (883) 
32.016379833221436

>  <fragmenstein_outcome>  (883) 
too moved

>  <fragmenstein_mode>  (883) 
expansion

>  <fragmenstein_error>  (883) 


$$$$
C71-P98
     RDKit          3D

 28 28  0  0  0  0  0  0  0  0999 V2000
   15.1904   -2.6564   18.2879 C   0  0  0  0  0  0  0  0  0  0  0  0
   15.6237   -1.8751   17.0897 N   0  0  0  0  0  0  0  0  0  0  0  0
   14.8684   -2.9877   16.4106 C   0  0  0  0  0  0  0  0  0  0  0  0
   17.0022   -1.6895   16.4743 C   0  0  0  0  0  0  0  0  0  0  0  0
   18.0346   -2.1839   16.7540 O   0  0  0  0  0  0  0  0  0  0  0  0
   16.8974   -0.5862   15.3943 C   0  0  0  0  0  0  0  0  0  0  0  0
   16.0788   -0.8266   14.2594 O   0  0  0  0  0  0  0  0  0  0  0  0
   16.6457   -1.4806   13.2099 C   0  0  0  0  0  0  0  0  0  0  0  0
   16.1127   -1.1814   11.9531 C   0  0  0  0  0  0  0  0  0  0  0  0
   16.6119   -1.8063   10.8089 C   0  0  0  0  0  0  0  0  0  0  0  0
   17.6600   -2.7199   10.9099 C   0  0  0  0  0  0  0  0  0  0  0  0
   18.1239   -3.4012    9.7695 N   0  0  0  0  0  0  0  0  0  0  0  0
   18.1134   -3.0673   12.1870 C   0  0  0  0  0  0  0  0  0  0  0  0
   19.0263   -4.0406   12.3223 F   0  0  0  0  0  0  0  0  0  0  0  0
   17.6380   -2.4444   13.3302 C   0  0  0  0  0  0  0  0  0  0  0  0
   15.6762   -3.6378   18.4048 H   0  0  0  0  0  0  0  0  0  0  0  0
   15.6227   -2.0825   19.1211 H   0  0  0  0  0  0  0  0  0  0  0  0
   14.1129   -2.6431   18.5014 H   0  0  0  0  0  0  0  0  0  0  0  0
   14.9067   -2.7458   15.3415 H   0  0  0  0  0  0  0  0  0  0  0  0
   13.7856   -3.0175   16.6102 H   0  0  0  0  0  0  0  0  0  0  0  0
   15.3680   -3.9690   16.4520 H   0  0  0  0  0  0  0  0  0  0  0  0
   16.4862    0.2987   15.8964 H   0  0  0  0  0  0  0  0  0  0  0  0
   17.9121   -0.2958   15.0889 H   0  0  0  0  0  0  0  0  0  0  0  0
   15.3107   -0.4533   11.8633 H   0  0  0  0  0  0  0  0  0  0  0  0
   16.1981   -1.5427    9.8422 H   0  0  0  0  0  0  0  0  0  0  0  0
   19.0559   -3.7809    9.9436 H   0  0  0  0  0  0  0  0  0  0  0  0
   17.5351   -4.1981    9.5177 H   0  0  0  0  0  0  0  0  0  0  0  0
   18.0450   -2.7641   14.2802 H   0  0  0  0  0  0  0  0  0  0  0  0
  1  2  1  0
  2  3  1  0
  2  4  1  0
  4  5  2  0
  4  6  1  0
  6  7  1  0
  7  8  1  0
  8  9  2  0
  9 10  1  0
 10 11  2  0
 11 12  1  0
 11 13  1  0
 13 14  1  0
 13 15  2  0
 15  8  1  0
  1 16  1  0
  1 17  1  0
  1 18  1  0
  3 19  1  0
  3 20  1  0
  3 21  1  0
  6 22  1  0
  6 23  1  0
  9 24  1  0
 10 25  1  0
 12 26  1  0
 12 27  1  0
 15 28  1  0
M  END
>  <Energy>  (884) 
127.70397072717817

>  <compound_id>  (884) 
71

>  <target_id>  (884) 
1

>  <reference_id>  (884) 
98

>  <inspiration_ids>  (884) 
[83, 98]

>  <energy_score>  (884) 
60.74813146748329

>  <distance_score>  (884) 
1.5650950758996998

>  <path>  (884) 
/opt/xchem-fragalysis-2/maxwin/BulkDock/SCRATCH/505733/C71-P98/C71-P98.minimised.mol

>  <scratch_subdir>  (884) 
/opt/xchem-fragalysis-2/maxwin/BulkDock/SCRATCH/505733/C71-P98

>  <fragmenstein_runtime>  (884) 
31.32561230659485

>  <fragmenstein_outcome>  (884) 
too moved

>  <fragmenstein_mode>  (884) 
expansion

>  <fragmenstein_error>  (884) 


$$$$
C1176-P83
     RDKit          3D

 44 45  0  0  0  0  0  0  0  0999 V2000
   17.5013   -2.3144   10.0420 C   0  0  0  0  0  0  0  0  0  0  0  0
   16.9186   -3.1870   11.1290 C   0  0  0  0  0  0  0  0  0  0  0  0
   17.8962   -4.2265   11.4663 N   0  0  0  0  0  0  0  0  0  0  0  0
   16.5245   -2.4462   12.3625 C   0  0  0  0  0  0  0  0  0  0  0  0
   15.5410   -2.7316   13.1828 N   0  0  0  0  0  0  0  0  0  0  0  0
   15.9535   -2.1402   14.3536 C   0  0  0  0  0  0  0  0  0  0  0  0
   15.3477   -2.4482   15.6936 C   0  0  0  0  0  0  0  0  0  0  0  0
   13.8797   -2.1144   15.5992 C   0  0  0  0  0  0  0  0  0  0  0  0
   13.5390   -0.7740   15.3251 C   0  0  0  0  0  0  0  0  0  0  0  0
   12.2391   -0.4231   14.9961 C   0  0  0  0  0  0  0  0  0  0  0  0
   11.9608    0.8926   14.7814 O   0  0  0  0  0  0  0  0  0  0  0  0
   11.7508    1.1700   13.4009 C   0  0  0  0  0  0  0  0  0  0  0  0
   10.9206    2.4461   13.1165 C   0  0  0  0  0  0  0  0  0  0  0  0
   10.1789    2.5054   12.1998 O   0  0  0  0  0  0  0  0  0  0  0  0
   11.3306    3.5122   14.1210 N   0  0  0  0  0  0  0  0  0  0  0  0
   10.9977    4.9674   14.1857 C   0  0  0  0  0  0  0  0  0  0  0  0
   10.4126    3.5133   15.3249 C   0  0  0  0  0  0  0  0  0  0  0  0
   11.2454   -1.3827   14.9638 C   0  0  0  0  0  0  0  0  0  0  0  0
   11.5726   -2.6935   15.2778 C   0  0  0  0  0  0  0  0  0  0  0  0
   10.6075   -3.6168   15.1974 F   0  0  0  0  0  0  0  0  0  0  0  0
   12.8578   -3.0760   15.6932 C   0  0  0  0  0  0  0  0  0  0  0  0
   13.0983   -4.4210   16.0017 N   0  0  0  0  0  0  0  0  0  0  0  0
   17.0542   -1.3823   14.2312 N   0  0  0  0  0  0  0  0  0  0  0  0
   17.4497   -1.5995   12.9132 O   0  0  0  0  0  0  0  0  0  0  0  0
   16.7821   -1.5470    9.7333 H   0  0  0  0  0  0  0  0  0  0  0  0
   18.4080   -1.7941   10.3735 H   0  0  0  0  0  0  0  0  0  0  0  0
   17.7628   -2.9010    9.1545 H   0  0  0  0  0  0  0  0  0  0  0  0
   16.0267   -3.6773   10.7239 H   0  0  0  0  0  0  0  0  0  0  0  0
   17.3913   -4.9906   11.9310 H   0  0  0  0  0  0  0  0  0  0  0  0
   18.5639   -3.8690   12.1473 H   0  0  0  0  0  0  0  0  0  0  0  0
   15.5251   -3.5014   15.9304 H   0  0  0  0  0  0  0  0  0  0  0  0
   15.8101   -1.8514   16.4886 H   0  0  0  0  0  0  0  0  0  0  0  0
   14.3087   -0.0037   15.3122 H   0  0  0  0  0  0  0  0  0  0  0  0
   11.2236    0.3485   12.9006 H   0  0  0  0  0  0  0  0  0  0  0  0
   12.7240    1.3040   12.9129 H   0  0  0  0  0  0  0  0  0  0  0  0
   11.4211    5.5102   15.0435 H   0  0  0  0  0  0  0  0  0  0  0  0
    9.9568    5.2230   13.9335 H   0  0  0  0  0  0  0  0  0  0  0  0
   11.5493    5.3794   13.3273 H   0  0  0  0  0  0  0  0  0  0  0  0
    9.3566    3.7290   15.0944 H   0  0  0  0  0  0  0  0  0  0  0  0
   10.3630    2.4696   15.6622 H   0  0  0  0  0  0  0  0  0  0  0  0
   10.8052    4.0437   16.2056 H   0  0  0  0  0  0  0  0  0  0  0  0
   10.2242   -1.1346   14.7006 H   0  0  0  0  0  0  0  0  0  0  0  0
   12.2490   -4.9688   16.1561 H   0  0  0  0  0  0  0  0  0  0  0  0
   13.7826   -4.6119   16.7251 H   0  0  0  0  0  0  0  0  0  0  0  0
  1  2  1  0
  2  3  1  0
  2  4  1  0
  4  5  2  0
  5  6  1  0
  6  7  1  0
  7  8  1  0
  8  9  2  0
  9 10  1  0
 10 11  1  0
 11 12  1  0
 12 13  1  0
 13 14  2  0
 13 15  1  0
 15 16  1  0
 15 17  1  0
 10 18  2  0
 18 19  1  0
 19 20  1  0
 19 21  2  0
 21 22  1  0
  6 23  2  0
 23 24  1  0
 24  4  1  0
 21  8  1  0
  1 25  1  0
  1 26  1  0
  1 27  1  0
  2 28  1  0
  3 29  1  0
  3 30  1  0
  7 31  1  0
  7 32  1  0
  9 33  1  0
 12 34  1  0
 12 35  1  0
 16 36  1  0
 16 37  1  0
 16 38  1  0
 17 39  1  0
 17 40  1  0
 17 41  1  0
 18 42  1  0
 22 43  1  0
 22 44  1  0
M  END
>  <Energy>  (885) 
183.90749537777918

>  <compound_id>  (885) 
1176

>  <target_id>  (885) 
1

>  <reference_id>  (885) 
83

>  <inspiration_ids>  (885) 
[83, 118]

>  <energy_score>  (885) 
39.995001532157005

>  <distance_score>  (885) 
1.4807814933472845

>  <path>  (885) 
/opt/xchem-fragalysis-2/maxwin/BulkDock/SCRATCH/505733/C1176-P83/C1176-P83.minimised.mol

>  <scratch_subdir>  (885) 
/opt/xchem-fragalysis-2/maxwin/BulkDock/SCRATCH/505733/C1176-P83

>  <fragmenstein_runtime>  (885) 
3.159420967102051

>  <fragmenstein_outcome>  (885) 
too moved

>  <fragmenstein_mode>  (885) 
expansion

>  <fragmenstein_error>  (885) 


$$$$
C1176-P118
     RDKit          3D

 44 45  0  0  0  0  0  0  0  0999 V2000
   17.2932   -2.2245   10.1551 C   0  0  0  0  0  0  0  0  0  0  0  0
   16.9625   -2.9543   11.4393 C   0  0  0  0  0  0  0  0  0  0  0  0
   18.1208   -3.7794   11.8524 N   0  0  0  0  0  0  0  0  0  0  0  0
   16.5722   -2.0461   12.5701 C   0  0  0  0  0  0  0  0  0  0  0  0
   15.5820   -2.1972   13.4222 N   0  0  0  0  0  0  0  0  0  0  0  0
   16.0643   -1.5761   14.5539 C   0  0  0  0  0  0  0  0  0  0  0  0
   15.5009   -1.7746   15.9425 C   0  0  0  0  0  0  0  0  0  0  0  0
   14.0064   -1.5820   15.8526 C   0  0  0  0  0  0  0  0  0  0  0  0
   13.5282   -0.3346   15.4138 C   0  0  0  0  0  0  0  0  0  0  0  0
   12.1991   -0.1757   15.0412 C   0  0  0  0  0  0  0  0  0  0  0  0
   11.7242    1.0251   14.6044 O   0  0  0  0  0  0  0  0  0  0  0  0
   12.3579    1.4362   13.3895 C   0  0  0  0  0  0  0  0  0  0  0  0
   11.4756    2.5074   12.7270 C   0  0  0  0  0  0  0  0  0  0  0  0
   10.3516    2.3153   12.4276 O   0  0  0  0  0  0  0  0  0  0  0  0
   12.3413    3.7460   12.5556 N   0  0  0  0  0  0  0  0  0  0  0  0
   12.0581    5.0440   11.8702 C   0  0  0  0  0  0  0  0  0  0  0  0
   12.2404    4.6529   13.7558 C   0  0  0  0  0  0  0  0  0  0  0  0
   11.3121   -1.2336   15.1351 C   0  0  0  0  0  0  0  0  0  0  0  0
   11.7686   -2.4373   15.6466 C   0  0  0  0  0  0  0  0  0  0  0  0
   10.9217   -3.4658   15.7423 F   0  0  0  0  0  0  0  0  0  0  0  0
   13.0920   -2.6244   16.0628 C   0  0  0  0  0  0  0  0  0  0  0  0
   13.4111   -3.7584   16.8546 N   0  0  0  0  0  0  0  0  0  0  0  0
   17.1962   -0.8842   14.3518 N   0  0  0  0  0  0  0  0  0  0  0  0
   17.5471   -1.2071   13.0437 O   0  0  0  0  0  0  0  0  0  0  0  0
   18.0813   -1.4767   10.3040 H   0  0  0  0  0  0  0  0  0  0  0  0
   17.6368   -2.9102    9.3752 H   0  0  0  0  0  0  0  0  0  0  0  0
   16.4130   -1.6940    9.7743 H   0  0  0  0  0  0  0  0  0  0  0  0
   16.1227   -3.6265   11.2333 H   0  0  0  0  0  0  0  0  0  0  0  0
   18.0104   -3.9779   12.8507 H   0  0  0  0  0  0  0  0  0  0  0  0
   18.9648   -3.2076   11.7982 H   0  0  0  0  0  0  0  0  0  0  0  0
   15.7667   -2.7774   16.2924 H   0  0  0  0  0  0  0  0  0  0  0  0
   15.9238   -1.0510   16.6488 H   0  0  0  0  0  0  0  0  0  0  0  0
   14.2189    0.5000   15.3112 H   0  0  0  0  0  0  0  0  0  0  0  0
   12.4460    0.6061   12.6765 H   0  0  0  0  0  0  0  0  0  0  0  0
   13.3557    1.8354   13.6020 H   0  0  0  0  0  0  0  0  0  0  0  0
   12.8745    5.7806   11.9040 H   0  0  0  0  0  0  0  0  0  0  0  0
   11.0483    5.4522   12.0326 H   0  0  0  0  0  0  0  0  0  0  0  0
   12.0205    4.7538   10.8093 H   0  0  0  0  0  0  0  0  0  0  0  0
   11.2210    5.0097   13.9741 H   0  0  0  0  0  0  0  0  0  0  0  0
   12.4531    3.9984   14.6148 H   0  0  0  0  0  0  0  0  0  0  0  0
   13.0232    5.4232   13.8342 H   0  0  0  0  0  0  0  0  0  0  0  0
   10.2803   -1.1305   14.8193 H   0  0  0  0  0  0  0  0  0  0  0  0
   12.7235   -4.4973   16.6834 H   0  0  0  0  0  0  0  0  0  0  0  0
   13.3473   -3.5211   17.8459 H   0  0  0  0  0  0  0  0  0  0  0  0
  1  2  1  0
  2  3  1  0
  2  4  1  0
  4  5  2  0
  5  6  1  0
  6  7  1  0
  7  8  1  0
  8  9  2  0
  9 10  1  0
 10 11  1  0
 11 12  1  0
 12 13  1  0
 13 14  2  0
 13 15  1  0
 15 16  1  0
 15 17  1  0
 10 18  2  0
 18 19  1  0
 19 20  1  0
 19 21  2  0
 21 22  1  0
  6 23  2  0
 23 24  1  0
 24  4  1  0
 21  8  1  0
  1 25  1  0
  1 26  1  0
  1 27  1  0
  2 28  1  0
  3 29  1  0
  3 30  1  0
  7 31  1  0
  7 32  1  0
  9 33  1  0
 12 34  1  0
 12 35  1  0
 16 36  1  0
 16 37  1  0
 16 38  1  0
 17 39  1  0
 17 40  1  0
 17 41  1  0
 18 42  1  0
 22 43  1  0
 22 44  1  0
M  END
>  <Energy>  (886) 
187.47328088810329

>  <compound_id>  (886) 
1176

>  <target_id>  (886) 
1

>  <reference_id>  (886) 
118

>  <inspiration_ids>  (886) 
[83, 118]

>  <energy_score>  (886) 
43.560787042484776

>  <distance_score>  (886) 
1.6067443533288495

>  <path>  (886) 
/opt/xchem-fragalysis-2/maxwin/BulkDock/SCRATCH/505733/C1176-P118/C1176-P118.minimised.mol

>  <scratch_subdir>  (886) 
/opt/xchem-fragalysis-2/maxwin/BulkDock/SCRATCH/505733/C1176-P118

>  <fragmenstein_runtime>  (886) 
3.8815507888793945

>  <fragmenstein_outcome>  (886) 
too moved

>  <fragmenstein_mode>  (886) 
expansion

>  <fragmenstein_error>  (886) 


$$$$
C1181-P84
     RDKit          3D

 54 54  0  0  0  0  0  0  0  0999 V2000
   -9.1711   -2.8060    5.9388 C   0  0  0  0  0  0  0  0  0  0  0  0
   -8.6720   -2.4406    7.3271 C   0  0  0  0  0  0  0  0  0  0  0  0
   -8.8130   -3.6890    8.0890 N   0  0  0  0  0  0  0  0  0  0  0  0
   -9.4603   -1.2634    7.9674 C   0  0  0  0  0  0  0  0  0  0  0  0
   -8.9968   -1.0379    9.2288 F   0  0  0  0  0  0  0  0  0  0  0  0
   -9.4274    0.0942    7.2779 C   0  0  0  0  0  0  0  0  0  0  0  0
   -8.0244    0.6200    7.1110 C   0  0  0  0  0  0  0  0  0  0  0  0
   -7.9465    1.9739    6.4373 C   0  0  0  0  0  0  0  0  0  0  0  0
   -6.4947    1.9927    5.9641 C   0  0  0  0  0  0  0  0  0  0  0  0
   -5.6159    2.6922    7.0252 C   0  0  0  0  0  0  0  0  0  0  0  0
   -5.2773    4.1397    6.6569 C   0  0  0  0  0  0  0  0  0  0  0  0
   -4.4032    4.7720    7.7406 C   0  0  0  0  0  0  0  0  0  0  0  0
   -3.9355    6.1720    7.3543 C   0  0  0  0  0  0  0  0  0  0  0  0
   -3.2347    6.7857    8.4309 O   0  0  0  0  0  0  0  0  0  0  0  0
   -1.8731    6.3944    8.4760 C   0  0  0  0  0  0  0  0  0  0  0  0
   -1.3168    7.0068    9.5510 F   0  0  0  0  0  0  0  0  0  0  0  0
   -1.2544    6.8961    7.3790 F   0  0  0  0  0  0  0  0  0  0  0  0
   -6.2142    0.4771    5.7223 C   0  0  0  0  0  0  0  0  0  0  0  0
   -5.1452    0.0246    6.5303 O   0  0  0  0  0  0  0  0  0  0  0  0
   -5.9939    0.0744    4.2113 C   0  0  0  0  0  0  0  0  0  0  0  0
   -5.1020   -0.7136    3.8826 O   0  0  0  0  0  0  0  0  0  0  0  0
   -6.8966    0.5537    3.2835 N   0  0  0  0  0  0  0  0  0  0  0  0
   -8.1280   -0.1660    3.0479 C   0  0  0  0  0  0  0  0  0  0  0  0
   -6.6395    1.7648    2.5369 C   0  0  0  0  0  0  0  0  0  0  0  0
   -7.3533   -0.2245    6.1861 O   0  0  0  0  0  0  0  0  0  0  0  0
   -9.1419   -1.9478    5.2658 H   0  0  0  0  0  0  0  0  0  0  0  0
   -8.5565   -3.5942    5.4902 H   0  0  0  0  0  0  0  0  0  0  0  0
  -10.2092   -3.1593    5.9627 H   0  0  0  0  0  0  0  0  0  0  0  0
   -7.6011   -2.2211    7.3051 H   0  0  0  0  0  0  0  0  0  0  0  0
   -8.0751   -3.7156    8.7793 H   0  0  0  0  0  0  0  0  0  0  0  0
   -9.6605   -3.6075    8.6754 H   0  0  0  0  0  0  0  0  0  0  0  0
  -10.5137   -1.5479    8.0660 H   0  0  0  0  0  0  0  0  0  0  0  0
  -10.0030    0.8063    7.8809 H   0  0  0  0  0  0  0  0  0  0  0  0
   -9.9249    0.0125    6.3043 H   0  0  0  0  0  0  0  0  0  0  0  0
   -7.4863    0.6140    8.0669 H   0  0  0  0  0  0  0  0  0  0  0  0
   -8.2255    2.8006    7.0977 H   0  0  0  0  0  0  0  0  0  0  0  0
   -8.6067    2.0074    5.5615 H   0  0  0  0  0  0  0  0  0  0  0  0
   -6.4238    2.5630    5.0355 H   0  0  0  0  0  0  0  0  0  0  0  0
   -4.6742    2.1665    7.1964 H   0  0  0  0  0  0  0  0  0  0  0  0
   -6.1370    2.7021    7.9838 H   0  0  0  0  0  0  0  0  0  0  0  0
   -6.1981    4.7213    6.5331 H   0  0  0  0  0  0  0  0  0  0  0  0
   -4.7445    4.1584    5.6985 H   0  0  0  0  0  0  0  0  0  0  0  0
   -4.9520    4.8196    8.6893 H   0  0  0  0  0  0  0  0  0  0  0  0
   -3.5333    4.1336    7.9328 H   0  0  0  0  0  0  0  0  0  0  0  0
   -3.3272    6.1571    6.4419 H   0  0  0  0  0  0  0  0  0  0  0  0
   -4.8105    6.7994    7.1489 H   0  0  0  0  0  0  0  0  0  0  0  0
   -1.7209    5.3149    8.5436 H   0  0  0  0  0  0  0  0  0  0  0  0
   -4.8085   -0.7705    6.0716 H   0  0  0  0  0  0  0  0  0  0  0  0
   -8.9555    0.3961    3.4875 H   0  0  0  0  0  0  0  0  0  0  0  0
   -8.2854   -0.2729    1.9716 H   0  0  0  0  0  0  0  0  0  0  0  0
   -8.0762   -1.1584    3.4979 H   0  0  0  0  0  0  0  0  0  0  0  0
   -5.6629    2.1779    2.8060 H   0  0  0  0  0  0  0  0  0  0  0  0
   -7.4228    2.4951    2.7585 H   0  0  0  0  0  0  0  0  0  0  0  0
   -6.6466    1.5319    1.4681 H   0  0  0  0  0  0  0  0  0  0  0  0
  1  2  1  0
  2  3  1  0
  2  4  1  0
  4  5  1  0
  4  6  1  0
  6  7  1  0
  7  8  1  0
  8  9  1  0
  9 10  1  0
 10 11  1  0
 11 12  1  0
 12 13  1  0
 13 14  1  0
 14 15  1  0
 15 16  1  0
 15 17  1  0
  9 18  1  0
 18 19  1  0
 18 20  1  0
 20 21  2  0
 20 22  1  0
 22 23  1  0
 22 24  1  0
 18 25  1  0
 25  7  1  0
  1 26  1  0
  1 27  1  0
  1 28  1  0
  2 29  1  0
  3 30  1  0
  3 31  1  0
  4 32  1  0
  6 33  1  0
  6 34  1  0
  7 35  1  0
  8 36  1  0
  8 37  1  0
  9 38  1  0
 10 39  1  0
 10 40  1  0
 11 41  1  0
 11 42  1  0
 12 43  1  0
 12 44  1  0
 13 45  1  0
 13 46  1  0
 15 47  1  0
 19 48  1  0
 23 49  1  0
 23 50  1  0
 23 51  1  0
 24 52  1  0
 24 53  1  0
 24 54  1  0
M  END
>  <Energy>  (887) 
86.474860447286972

>  <compound_id>  (887) 
1181

>  <target_id>  (887) 
1

>  <reference_id>  (887) 
84

>  <inspiration_ids>  (887) 
[84, 17]

>  <energy_score>  (887) 
-147.00288028075676

>  <distance_score>  (887) 
3.2090519224092313

>  <path>  (887) 
/opt/xchem-fragalysis-2/maxwin/BulkDock/SCRATCH/505733/C1181-P84/C1181-P84.minimised.mol

>  <scratch_subdir>  (887) 
/opt/xchem-fragalysis-2/maxwin/BulkDock/SCRATCH/505733/C1181-P84

>  <fragmenstein_runtime>  (887) 
4.996349573135376

>  <fragmenstein_outcome>  (887) 
too moved

>  <fragmenstein_mode>  (887) 
expansion

>  <fragmenstein_error>  (887) 


$$$$
C1181-P17
     RDKit          3D

 54 54  0  0  0  0  0  0  0  0999 V2000
   -8.3169   -3.5974    7.0683 C   0  0  0  0  0  0  0  0  0  0  0  0
   -7.8797   -2.1431    6.9020 C   0  0  0  0  0  0  0  0  0  0  0  0
   -6.4379   -2.1437    6.6073 N   0  0  0  0  0  0  0  0  0  0  0  0
   -8.2670   -1.2954    8.1356 C   0  0  0  0  0  0  0  0  0  0  0  0
   -7.3274   -1.4728    9.1107 F   0  0  0  0  0  0  0  0  0  0  0  0
   -8.4139    0.2111    7.9094 C   0  0  0  0  0  0  0  0  0  0  0  0
   -7.1214    0.9493    7.5691 C   0  0  0  0  0  0  0  0  0  0  0  0
   -7.2922    2.4623    7.6123 C   0  0  0  0  0  0  0  0  0  0  0  0
   -7.3024    2.9038    6.1565 C   0  0  0  0  0  0  0  0  0  0  0  0
   -6.8052    4.3579    6.0415 C   0  0  0  0  0  0  0  0  0  0  0  0
   -6.7252    4.8949    4.6131 C   0  0  0  0  0  0  0  0  0  0  0  0
   -6.0594    6.2704    4.5739 C   0  0  0  0  0  0  0  0  0  0  0  0
   -5.9600    6.8038    3.1462 C   0  0  0  0  0  0  0  0  0  0  0  0
   -5.2936    8.0612    3.1393 O   0  0  0  0  0  0  0  0  0  0  0  0
   -3.8965    7.9141    2.9597 C   0  0  0  0  0  0  0  0  0  0  0  0
   -3.3387    9.1389    3.1100 F   0  0  0  0  0  0  0  0  0  0  0  0
   -3.6727    7.5297    1.6816 F   0  0  0  0  0  0  0  0  0  0  0  0
   -6.4280    1.8266    5.5097 C   0  0  0  0  0  0  0  0  0  0  0  0
   -5.0619    2.1639    5.7254 O   0  0  0  0  0  0  0  0  0  0  0  0
   -6.7140    1.5978    3.9788 C   0  0  0  0  0  0  0  0  0  0  0  0
   -5.8114    1.7002    3.1433 O   0  0  0  0  0  0  0  0  0  0  0  0
   -7.9781    1.1812    3.6152 N   0  0  0  0  0  0  0  0  0  0  0  0
   -8.3053   -0.2259    3.6377 C   0  0  0  0  0  0  0  0  0  0  0  0
   -8.9950    2.1219    3.2081 C   0  0  0  0  0  0  0  0  0  0  0  0
   -6.6976    0.6195    6.2409 O   0  0  0  0  0  0  0  0  0  0  0  0
   -8.0092   -4.2000    6.2082 H   0  0  0  0  0  0  0  0  0  0  0  0
   -7.9048   -4.0582    7.9686 H   0  0  0  0  0  0  0  0  0  0  0  0
   -9.4075   -3.6521    7.1293 H   0  0  0  0  0  0  0  0  0  0  0  0
   -8.4129   -1.7587    6.0291 H   0  0  0  0  0  0  0  0  0  0  0  0
   -6.1669   -1.1805    6.3759 H   0  0  0  0  0  0  0  0  0  0  0  0
   -5.9418   -2.3404    7.4797 H   0  0  0  0  0  0  0  0  0  0  0  0
   -9.2154   -1.6626    8.5420 H   0  0  0  0  0  0  0  0  0  0  0  0
   -8.8137    0.6344    8.8395 H   0  0  0  0  0  0  0  0  0  0  0  0
   -9.1604    0.3796    7.1233 H   0  0  0  0  0  0  0  0  0  0  0  0
   -6.3310    0.6448    8.2635 H   0  0  0  0  0  0  0  0  0  0  0  0
   -6.4329    2.9016    8.1299 H   0  0  0  0  0  0  0  0  0  0  0  0
   -8.1844    2.7912    8.1552 H   0  0  0  0  0  0  0  0  0  0  0  0
   -8.3337    2.8386    5.7938 H   0  0  0  0  0  0  0  0  0  0  0  0
   -5.8180    4.4512    6.5129 H   0  0  0  0  0  0  0  0  0  0  0  0
   -7.4764    5.0039    6.6230 H   0  0  0  0  0  0  0  0  0  0  0  0
   -7.7335    4.9628    4.1917 H   0  0  0  0  0  0  0  0  0  0  0  0
   -6.1438    4.2186    3.9817 H   0  0  0  0  0  0  0  0  0  0  0  0
   -6.6203    6.9841    5.1906 H   0  0  0  0  0  0  0  0  0  0  0  0
   -5.0592    6.2120    5.0192 H   0  0  0  0  0  0  0  0  0  0  0  0
   -5.4662    6.0879    2.4784 H   0  0  0  0  0  0  0  0  0  0  0  0
   -6.9688    6.9718    2.7542 H   0  0  0  0  0  0  0  0  0  0  0  0
   -3.4356    7.2121    3.6612 H   0  0  0  0  0  0  0  0  0  0  0  0
   -4.6015    1.9291    4.8897 H   0  0  0  0  0  0  0  0  0  0  0  0
   -9.1341   -0.3815    4.3335 H   0  0  0  0  0  0  0  0  0  0  0  0
   -8.6116   -0.5349    2.6339 H   0  0  0  0  0  0  0  0  0  0  0  0
   -7.4410   -0.8192    3.9455 H   0  0  0  0  0  0  0  0  0  0  0  0
   -9.8127    2.1033    3.9340 H   0  0  0  0  0  0  0  0  0  0  0  0
   -9.3721    1.8343    2.2224 H   0  0  0  0  0  0  0  0  0  0  0  0
   -8.5818    3.1298    3.1457 H   0  0  0  0  0  0  0  0  0  0  0  0
  1  2  1  0
  2  3  1  0
  2  4  1  0
  4  5  1  0
  4  6  1  0
  6  7  1  0
  7  8  1  0
  8  9  1  0
  9 10  1  0
 10 11  1  0
 11 12  1  0
 12 13  1  0
 13 14  1  0
 14 15  1  0
 15 16  1  0
 15 17  1  0
  9 18  1  0
 18 19  1  0
 18 20  1  0
 20 21  2  0
 20 22  1  0
 22 23  1  0
 22 24  1  0
 18 25  1  0
 25  7  1  0
  1 26  1  0
  1 27  1  0
  1 28  1  0
  2 29  1  0
  3 30  1  0
  3 31  1  0
  4 32  1  0
  6 33  1  0
  6 34  1  0
  7 35  1  0
  8 36  1  0
  8 37  1  0
  9 38  1  0
 10 39  1  0
 10 40  1  0
 11 41  1  0
 11 42  1  0
 12 43  1  0
 12 44  1  0
 13 45  1  0
 13 46  1  0
 15 47  1  0
 19 48  1  0
 23 49  1  0
 23 50  1  0
 23 51  1  0
 24 52  1  0
 24 53  1  0
 24 54  1  0
M  END
>  <Energy>  (888) 
76.84108909265106

>  <compound_id>  (888) 
1181

>  <target_id>  (888) 
1

>  <reference_id>  (888) 
17

>  <inspiration_ids>  (888) 
[84, 17]

>  <energy_score>  (888) 
-156.63665163539355

>  <distance_score>  (888) 
3.2957157666605887

>  <path>  (888) 
/opt/xchem-fragalysis-2/maxwin/BulkDock/SCRATCH/505733/C1181-P17/C1181-P17.minimised.mol

>  <scratch_subdir>  (888) 
/opt/xchem-fragalysis-2/maxwin/BulkDock/SCRATCH/505733/C1181-P17

>  <fragmenstein_runtime>  (888) 
3.6560471057891846

>  <fragmenstein_outcome>  (888) 
too moved

>  <fragmenstein_mode>  (888) 
expansion

>  <fragmenstein_error>  (888) 


$$$$
C1183-P84
     RDKit          3D

 44 45  0  0  0  0  0  0  0  0999 V2000
   -4.0167   -3.0596    6.8641 C   0  0  0  0  0  0  0  0  0  0  0  0
   -4.2326   -1.7073    6.4401 N   0  0  0  0  0  0  0  0  0  0  0  0
   -4.3119   -1.3978    5.0327 C   0  0  0  0  0  0  0  0  0  0  0  0
   -4.3602   -0.7273    7.4038 C   0  0  0  0  0  0  0  0  0  0  0  0
   -3.4094   -0.0937    7.8518 O   0  0  0  0  0  0  0  0  0  0  0  0
   -5.7961   -0.5056    7.8345 C   0  0  0  0  0  0  0  0  0  0  0  0
   -6.2794    0.5772    7.0525 O   0  0  0  0  0  0  0  0  0  0  0  0
   -7.4494    1.1537    7.4655 C   0  0  0  0  0  0  0  0  0  0  0  0
   -7.5217    2.5231    7.2127 C   0  0  0  0  0  0  0  0  0  0  0  0
   -8.6595    3.2341    7.5758 C   0  0  0  0  0  0  0  0  0  0  0  0
   -8.7122    4.5515    7.3208 F   0  0  0  0  0  0  0  0  0  0  0  0
   -9.7342    2.6165    8.2251 C   0  0  0  0  0  0  0  0  0  0  0  0
  -10.9214    3.3247    8.4944 N   0  0  0  0  0  0  0  0  0  0  0  0
   -9.6887    1.2308    8.3980 C   0  0  0  0  0  0  0  0  0  0  0  0
   -8.5540    0.4850    8.0264 C   0  0  0  0  0  0  0  0  0  0  0  0
   -8.5832   -0.9193    8.1159 N   0  0  0  0  0  0  0  0  0  0  0  0
   -9.4748   -1.6206    7.1621 C   0  0  0  0  0  0  0  0  0  0  0  0
   -9.2940   -1.2369    5.6922 C   0  0  0  0  0  0  0  0  0  0  0  0
   -7.9560   -1.6691    5.1058 C   0  0  0  0  0  0  0  0  0  0  0  0
   -7.3823   -2.9554    5.6331 C   0  0  0  0  0  0  0  0  0  0  0  0
   -6.4100   -3.4837    5.1055 O   0  0  0  0  0  0  0  0  0  0  0  0
   -7.9117   -3.5032    6.7517 N   0  0  0  0  0  0  0  0  0  0  0  0
   -9.2042   -3.1295    7.2606 C   0  0  0  0  0  0  0  0  0  0  0  0
   -3.3194   -3.0621    7.6989 H   0  0  0  0  0  0  0  0  0  0  0  0
   -4.9718   -3.4580    7.2007 H   0  0  0  0  0  0  0  0  0  0  0  0
   -3.6403   -3.6756    6.0507 H   0  0  0  0  0  0  0  0  0  0  0  0
   -4.9929   -0.5624    4.8617 H   0  0  0  0  0  0  0  0  0  0  0  0
   -3.3168   -1.1270    4.6879 H   0  0  0  0  0  0  0  0  0  0  0  0
   -4.6367   -2.2554    4.4471 H   0  0  0  0  0  0  0  0  0  0  0  0
   -5.8177   -0.3005    8.9043 H   0  0  0  0  0  0  0  0  0  0  0  0
   -6.3437   -1.4254    7.6392 H   0  0  0  0  0  0  0  0  0  0  0  0
   -6.6930    3.0460    6.7482 H   0  0  0  0  0  0  0  0  0  0  0  0
  -11.4289    2.9670    9.2964 H   0  0  0  0  0  0  0  0  0  0  0  0
  -10.7473    4.3270    8.5606 H   0  0  0  0  0  0  0  0  0  0  0  0
  -10.5537    0.7183    8.8090 H   0  0  0  0  0  0  0  0  0  0  0  0
   -8.9219   -1.1589    9.0501 H   0  0  0  0  0  0  0  0  0  0  0  0
  -10.5152   -1.4344    7.4572 H   0  0  0  0  0  0  0  0  0  0  0  0
  -10.0892   -1.7304    5.1156 H   0  0  0  0  0  0  0  0  0  0  0  0
   -9.4398   -0.1632    5.5293 H   0  0  0  0  0  0  0  0  0  0  0  0
   -8.0623   -1.7686    4.0194 H   0  0  0  0  0  0  0  0  0  0  0  0
   -7.2183   -0.8857    5.2746 H   0  0  0  0  0  0  0  0  0  0  0  0
   -7.5424   -4.4211    6.9645 H   0  0  0  0  0  0  0  0  0  0  0  0
   -9.2187   -3.4768    8.2939 H   0  0  0  0  0  0  0  0  0  0  0  0
   -9.9463   -3.6766    6.6712 H   0  0  0  0  0  0  0  0  0  0  0  0
  1  2  1  0
  2  3  1  0
  2  4  1  0
  4  5  2  0
  4  6  1  0
  6  7  1  0
  7  8  1  0
  8  9  2  0
  9 10  1  0
 10 11  1  0
 10 12  2  0
 12 13  1  0
 12 14  1  0
 14 15  2  0
 15 16  1  0
 16 17  1  0
 17 18  1  0
 18 19  1  0
 19 20  1  0
 20 21  2  0
 20 22  1  0
 22 23  1  0
 15  8  1  0
 23 17  1  0
  1 24  1  0
  1 25  1  0
  1 26  1  0
  3 27  1  0
  3 28  1  0
  3 29  1  0
  6 30  1  0
  6 31  1  0
  9 32  1  0
 13 33  1  0
 13 34  1  0
 14 35  1  0
 16 36  1  0
 17 37  1  0
 18 38  1  0
 18 39  1  0
 19 40  1  0
 19 41  1  0
 22 42  1  0
 23 43  1  0
 23 44  1  0
M  END
>  <Energy>  (889) 
90.383927672861461

>  <compound_id>  (889) 
1183

>  <target_id>  (889) 
1

>  <reference_id>  (889) 
84

>  <inspiration_ids>  (889) 
[84, 65]

>  <energy_score>  (889) 
-10.849880877934936

>  <distance_score>  (889) 
1.6921668816608

>  <path>  (889) 
/opt/xchem-fragalysis-2/maxwin/BulkDock/SCRATCH/505733/C1183-P84/C1183-P84.minimised.mol

>  <scratch_subdir>  (889) 
/opt/xchem-fragalysis-2/maxwin/BulkDock/SCRATCH/505733/C1183-P84

>  <fragmenstein_runtime>  (889) 
6.262510776519775

>  <fragmenstein_outcome>  (889) 
too moved

>  <fragmenstein_mode>  (889) 
expansion

>  <fragmenstein_error>  (889) 


$$$$
C1183-P65
     RDKit          3D

 44 45  0  0  0  0  0  0  0  0999 V2000
   -3.9929   -2.3705    6.5546 C   0  0  0  0  0  0  0  0  0  0  0  0
   -4.2093   -1.0706    5.9752 N   0  0  0  0  0  0  0  0  0  0  0  0
   -4.3926   -0.8984    4.5542 C   0  0  0  0  0  0  0  0  0  0  0  0
   -4.2340   -0.0044    6.8291 C   0  0  0  0  0  0  0  0  0  0  0  0
   -3.2316    0.6349    7.1307 O   0  0  0  0  0  0  0  0  0  0  0  0
   -5.5802    0.2618    7.4645 C   0  0  0  0  0  0  0  0  0  0  0  0
   -6.7543    0.1048    6.6916 O   0  0  0  0  0  0  0  0  0  0  0  0
   -7.5690    1.2034    6.7881 C   0  0  0  0  0  0  0  0  0  0  0  0
   -7.0679    2.4232    6.3104 C   0  0  0  0  0  0  0  0  0  0  0  0
   -7.8171    3.5820    6.4375 C   0  0  0  0  0  0  0  0  0  0  0  0
   -7.3108    4.7379    5.9799 F   0  0  0  0  0  0  0  0  0  0  0  0
   -9.0613    3.5699    7.0631 C   0  0  0  0  0  0  0  0  0  0  0  0
   -9.8642    4.7223    7.1047 N   0  0  0  0  0  0  0  0  0  0  0  0
   -9.5861    2.3291    7.4427 C   0  0  0  0  0  0  0  0  0  0  0  0
   -8.8737    1.1129    7.2988 C   0  0  0  0  0  0  0  0  0  0  0  0
   -9.5377   -0.0377    7.7022 N   0  0  0  0  0  0  0  0  0  0  0  0
   -9.4440   -1.3847    7.1161 C   0  0  0  0  0  0  0  0  0  0  0  0
   -9.4202   -1.4448    5.5879 C   0  0  0  0  0  0  0  0  0  0  0  0
   -8.0987   -1.8732    4.9653 C   0  0  0  0  0  0  0  0  0  0  0  0
   -7.3252   -2.8951    5.7480 C   0  0  0  0  0  0  0  0  0  0  0  0
   -6.3247   -3.4346    5.2883 O   0  0  0  0  0  0  0  0  0  0  0  0
   -7.7656   -3.2229    6.9878 N   0  0  0  0  0  0  0  0  0  0  0  0
   -8.4062   -2.2449    7.8249 C   0  0  0  0  0  0  0  0  0  0  0  0
   -3.0920   -2.3432    7.1725 H   0  0  0  0  0  0  0  0  0  0  0  0
   -3.9328   -3.1306    5.7779 H   0  0  0  0  0  0  0  0  0  0  0  0
   -4.8283   -2.6014    7.2191 H   0  0  0  0  0  0  0  0  0  0  0  0
   -5.1916   -1.5421    4.1894 H   0  0  0  0  0  0  0  0  0  0  0  0
   -4.6361    0.1436    4.3275 H   0  0  0  0  0  0  0  0  0  0  0  0
   -3.4595   -1.1623    4.0502 H   0  0  0  0  0  0  0  0  0  0  0  0
   -5.4913    1.2630    7.8940 H   0  0  0  0  0  0  0  0  0  0  0  0
   -5.6443   -0.4808    8.2635 H   0  0  0  0  0  0  0  0  0  0  0  0
   -6.0914    2.4789    5.8419 H   0  0  0  0  0  0  0  0  0  0  0  0
  -10.5344    4.7330    7.8663 H   0  0  0  0  0  0  0  0  0  0  0  0
   -9.3181    5.5791    7.0422 H   0  0  0  0  0  0  0  0  0  0  0  0
  -10.5971    2.3027    7.8436 H   0  0  0  0  0  0  0  0  0  0  0  0
  -10.4885    0.1405    8.0143 H   0  0  0  0  0  0  0  0  0  0  0  0
  -10.4092   -1.8429    7.3804 H   0  0  0  0  0  0  0  0  0  0  0  0
  -10.1564   -2.2010    5.2847 H   0  0  0  0  0  0  0  0  0  0  0  0
   -9.7687   -0.5103    5.1329 H   0  0  0  0  0  0  0  0  0  0  0  0
   -8.3084   -2.3095    3.9802 H   0  0  0  0  0  0  0  0  0  0  0  0
   -7.4609   -1.0083    4.7786 H   0  0  0  0  0  0  0  0  0  0  0  0
   -7.1710   -3.9061    7.4378 H   0  0  0  0  0  0  0  0  0  0  0  0
   -7.6204   -1.6408    8.2824 H   0  0  0  0  0  0  0  0  0  0  0  0
   -8.8831   -2.8008    8.6351 H   0  0  0  0  0  0  0  0  0  0  0  0
  1  2  1  0
  2  3  1  0
  2  4  1  0
  4  5  2  0
  4  6  1  0
  6  7  1  0
  7  8  1  0
  8  9  2  0
  9 10  1  0
 10 11  1  0
 10 12  2  0
 12 13  1  0
 12 14  1  0
 14 15  2  0
 15 16  1  0
 16 17  1  0
 17 18  1  0
 18 19  1  0
 19 20  1  0
 20 21  2  0
 20 22  1  0
 22 23  1  0
 15  8  1  0
 23 17  1  0
  1 24  1  0
  1 25  1  0
  1 26  1  0
  3 27  1  0
  3 28  1  0
  3 29  1  0
  6 30  1  0
  6 31  1  0
  9 32  1  0
 13 33  1  0
 13 34  1  0
 14 35  1  0
 16 36  1  0
 17 37  1  0
 18 38  1  0
 18 39  1  0
 19 40  1  0
 19 41  1  0
 22 42  1  0
 23 43  1  0
 23 44  1  0
M  END
>  <Energy>  (890) 
98.979276689145962

>  <compound_id>  (890) 
1183

>  <target_id>  (890) 
1

>  <reference_id>  (890) 
65

>  <inspiration_ids>  (890) 
[84, 65]

>  <energy_score>  (890) 
-2.254531861651799

>  <distance_score>  (890) 
1.7286445803052046

>  <path>  (890) 
/opt/xchem-fragalysis-2/maxwin/BulkDock/SCRATCH/505733/C1183-P65/C1183-P65.minimised.mol

>  <scratch_subdir>  (890) 
/opt/xchem-fragalysis-2/maxwin/BulkDock/SCRATCH/505733/C1183-P65

>  <fragmenstein_runtime>  (890) 
5.436636447906494

>  <fragmenstein_outcome>  (890) 
too moved

>  <fragmenstein_mode>  (890) 
expansion

>  <fragmenstein_error>  (890) 


$$$$
C1184-P84
     RDKit          3D

 46 46  0  0  0  0  0  0  0  0999 V2000
  -10.9037   -5.5560    2.2703 C   0  0  0  0  0  0  0  0  0  0  0  0
   -9.5960   -4.8085    2.3828 N   0  0  0  0  0  0  0  0  0  0  0  0
   -9.4531   -5.3632    1.0023 C   0  0  0  0  0  0  0  0  0  0  0  0
   -9.8183   -3.3741    2.8596 C   0  0  0  0  0  0  0  0  0  0  0  0
  -10.0082   -2.3859    2.2433 O   0  0  0  0  0  0  0  0  0  0  0  0
   -9.7424   -3.3623    4.4016 C   0  0  0  0  0  0  0  0  0  0  0  0
   -8.3876   -3.4798    4.8260 O   0  0  0  0  0  0  0  0  0  0  0  0
   -7.9126   -2.6811    5.8152 C   0  0  0  0  0  0  0  0  0  0  0  0
   -6.5433   -2.8317    6.0285 C   0  0  0  0  0  0  0  0  0  0  0  0
   -5.9033   -2.0296    6.9488 C   0  0  0  0  0  0  0  0  0  0  0  0
   -4.5745   -2.1418    7.1201 F   0  0  0  0  0  0  0  0  0  0  0  0
   -6.6054   -1.0501    7.6523 C   0  0  0  0  0  0  0  0  0  0  0  0
   -5.9601   -0.3523    8.6708 N   0  0  0  0  0  0  0  0  0  0  0  0
   -7.9810   -0.8672    7.4346 C   0  0  0  0  0  0  0  0  0  0  0  0
   -8.7710    0.2486    8.0920 C   0  0  0  0  0  0  0  0  0  0  0  0
   -8.1537    1.5842    8.0381 N   0  0  0  0  0  0  0  0  0  0  0  0
   -7.8659    2.2338    6.7386 C   0  0  0  0  0  0  0  0  0  0  0  0
   -9.0009    2.0633    5.7156 C   0  0  0  0  0  0  0  0  0  0  0  0
   -7.7260    3.7455    7.0334 C   0  0  0  0  0  0  0  0  0  0  0  0
   -6.5105    1.7259    6.1568 C   0  0  0  0  0  0  0  0  0  0  0  0
   -5.9437    2.5334    5.1188 O   0  0  0  0  0  0  0  0  0  0  0  0
   -8.6320   -1.7286    6.5395 C   0  0  0  0  0  0  0  0  0  0  0  0
  -10.8230   -6.6490    2.1647 H   0  0  0  0  0  0  0  0  0  0  0  0
  -11.3723   -5.4469    3.2566 H   0  0  0  0  0  0  0  0  0  0  0  0
  -11.6353   -5.0834    1.5960 H   0  0  0  0  0  0  0  0  0  0  0  0
   -8.4848   -4.9545    0.6768 H   0  0  0  0  0  0  0  0  0  0  0  0
  -10.1446   -4.9463    0.2536 H   0  0  0  0  0  0  0  0  0  0  0  0
   -9.3018   -6.4509    0.9456 H   0  0  0  0  0  0  0  0  0  0  0  0
  -10.2373   -2.4361    4.7040 H   0  0  0  0  0  0  0  0  0  0  0  0
  -10.3133   -4.1956    4.8198 H   0  0  0  0  0  0  0  0  0  0  0  0
   -5.9743   -3.5614    5.4643 H   0  0  0  0  0  0  0  0  0  0  0  0
   -6.4164    0.5521    8.8086 H   0  0  0  0  0  0  0  0  0  0  0  0
   -4.9500   -0.3140    8.5582 H   0  0  0  0  0  0  0  0  0  0  0  0
   -9.7851    0.3038    7.6795 H   0  0  0  0  0  0  0  0  0  0  0  0
   -8.8946   -0.0248    9.1475 H   0  0  0  0  0  0  0  0  0  0  0  0
   -8.7074    2.2059    8.6289 H   0  0  0  0  0  0  0  0  0  0  0  0
   -9.9641    2.3733    6.1373 H   0  0  0  0  0  0  0  0  0  0  0  0
   -9.0980    1.0264    5.3798 H   0  0  0  0  0  0  0  0  0  0  0  0
   -8.8273    2.6748    4.8230 H   0  0  0  0  0  0  0  0  0  0  0  0
   -8.6390    4.1525    7.4848 H   0  0  0  0  0  0  0  0  0  0  0  0
   -7.5393    4.3191    6.1183 H   0  0  0  0  0  0  0  0  0  0  0  0
   -6.8952    3.9428    7.7208 H   0  0  0  0  0  0  0  0  0  0  0  0
   -5.7506    1.6997    6.9433 H   0  0  0  0  0  0  0  0  0  0  0  0
   -6.6097    0.7276    5.7282 H   0  0  0  0  0  0  0  0  0  0  0  0
   -6.6027    2.5759    4.4024 H   0  0  0  0  0  0  0  0  0  0  0  0
   -9.7019   -1.6082    6.4124 H   0  0  0  0  0  0  0  0  0  0  0  0
  1  2  1  0
  2  3  1  0
  2  4  1  0
  4  5  2  0
  4  6  1  0
  6  7  1  0
  7  8  1  0
  8  9  2  0
  9 10  1  0
 10 11  1  0
 10 12  2  0
 12 13  1  0
 12 14  1  0
 14 15  1  0
 15 16  1  0
 16 17  1  0
 17 18  1  0
 17 19  1  0
 17 20  1  0
 20 21  1  0
 14 22  2  0
 22  8  1  0
  1 23  1  0
  1 24  1  0
  1 25  1  0
  3 26  1  0
  3 27  1  0
  3 28  1  0
  6 29  1  0
  6 30  1  0
  9 31  1  0
 13 32  1  0
 13 33  1  0
 15 34  1  0
 15 35  1  0
 16 36  1  0
 18 37  1  0
 18 38  1  0
 18 39  1  0
 19 40  1  0
 19 41  1  0
 19 42  1  0
 20 43  1  0
 20 44  1  0
 21 45  1  0
 22 46  1  0
M  END
>  <Energy>  (891) 
166.70166788161799

>  <compound_id>  (891) 
1184

>  <target_id>  (891) 
1

>  <reference_id>  (891) 
84

>  <inspiration_ids>  (891) 
[84, 69]

>  <energy_score>  (891) 
34.261557631174924

>  <distance_score>  (891) 
2.816171600804059

>  <path>  (891) 
/opt/xchem-fragalysis-2/maxwin/BulkDock/SCRATCH/505733/C1184-P84/C1184-P84.minimised.mol

>  <scratch_subdir>  (891) 
/opt/xchem-fragalysis-2/maxwin/BulkDock/SCRATCH/505733/C1184-P84

>  <fragmenstein_runtime>  (891) 
5.65026068687439

>  <fragmenstein_outcome>  (891) 
too moved

>  <fragmenstein_mode>  (891) 
expansion

>  <fragmenstein_error>  (891) 


$$$$
C1184-P69
     RDKit          3D

 46 46  0  0  0  0  0  0  0  0999 V2000
   -8.3112   -0.8313    3.2106 C   0  0  0  0  0  0  0  0  0  0  0  0
   -9.2786   -1.9586    2.9715 N   0  0  0  0  0  0  0  0  0  0  0  0
   -9.2570   -1.3494    1.6084 C   0  0  0  0  0  0  0  0  0  0  0  0
   -8.7172   -3.2843    3.4753 C   0  0  0  0  0  0  0  0  0  0  0  0
   -8.0666   -4.0972    2.9209 O   0  0  0  0  0  0  0  0  0  0  0  0
   -9.2401   -3.4572    4.9254 C   0  0  0  0  0  0  0  0  0  0  0  0
   -8.2305   -3.8373    5.8605 O   0  0  0  0  0  0  0  0  0  0  0  0
   -7.5967   -2.7885    6.4481 C   0  0  0  0  0  0  0  0  0  0  0  0
   -6.2184   -2.7548    6.3108 C   0  0  0  0  0  0  0  0  0  0  0  0
   -5.5116   -1.7452    6.9324 C   0  0  0  0  0  0  0  0  0  0  0  0
   -4.1710   -1.7305    6.8422 F   0  0  0  0  0  0  0  0  0  0  0  0
   -6.1523   -0.7368    7.6727 C   0  0  0  0  0  0  0  0  0  0  0  0
   -5.3274    0.1585    8.3984 N   0  0  0  0  0  0  0  0  0  0  0  0
   -7.5514   -0.7737    7.8334 C   0  0  0  0  0  0  0  0  0  0  0  0
   -8.3442    0.2323    8.6449 C   0  0  0  0  0  0  0  0  0  0  0  0
   -8.0970    1.6436    8.3638 N   0  0  0  0  0  0  0  0  0  0  0  0
   -8.3894    2.2013    7.0360 C   0  0  0  0  0  0  0  0  0  0  0  0
   -9.7353    1.7154    6.4695 C   0  0  0  0  0  0  0  0  0  0  0  0
   -8.4981    3.7250    7.2653 C   0  0  0  0  0  0  0  0  0  0  0  0
   -7.2291    1.9292    6.0344 C   0  0  0  0  0  0  0  0  0  0  0  0
   -7.3186    2.7038    4.8375 O   0  0  0  0  0  0  0  0  0  0  0  0
   -8.2582   -1.8313    7.2233 C   0  0  0  0  0  0  0  0  0  0  0  0
   -8.7298    0.1832    3.1202 H   0  0  0  0  0  0  0  0  0  0  0  0
   -8.0706   -0.8974    4.2795 H   0  0  0  0  0  0  0  0  0  0  0  0
   -7.3266   -0.9655    2.7349 H   0  0  0  0  0  0  0  0  0  0  0  0
   -8.3078   -1.4524    1.0597 H   0  0  0  0  0  0  0  0  0  0  0  0
   -9.7424   -0.3655    1.5266 H   0  0  0  0  0  0  0  0  0  0  0  0
   -9.9259   -2.0107    1.0374 H   0  0  0  0  0  0  0  0  0  0  0  0
   -9.9685   -4.2764    4.8898 H   0  0  0  0  0  0  0  0  0  0  0  0
   -9.8062   -2.5760    5.2483 H   0  0  0  0  0  0  0  0  0  0  0  0
   -5.6986   -3.5137    5.7386 H   0  0  0  0  0  0  0  0  0  0  0  0
   -5.1821   -0.2455    9.3262 H   0  0  0  0  0  0  0  0  0  0  0  0
   -4.3998    0.1739    7.9594 H   0  0  0  0  0  0  0  0  0  0  0  0
   -9.4194    0.0327    8.5672 H   0  0  0  0  0  0  0  0  0  0  0  0
   -8.1031    0.0553    9.7005 H   0  0  0  0  0  0  0  0  0  0  0  0
   -7.1239    1.8357    8.6079 H   0  0  0  0  0  0  0  0  0  0  0  0
  -10.5421    1.8401    7.2015 H   0  0  0  0  0  0  0  0  0  0  0  0
   -9.7000    0.6596    6.1826 H   0  0  0  0  0  0  0  0  0  0  0  0
  -10.0251    2.2828    5.5782 H   0  0  0  0  0  0  0  0  0  0  0  0
   -9.2734    3.9629    8.0041 H   0  0  0  0  0  0  0  0  0  0  0  0
   -8.7602    4.2551    6.3426 H   0  0  0  0  0  0  0  0  0  0  0  0
   -7.5518    4.1437    7.6289 H   0  0  0  0  0  0  0  0  0  0  0  0
   -6.2632    2.1753    6.4869 H   0  0  0  0  0  0  0  0  0  0  0  0
   -7.2029    0.8841    5.7221 H   0  0  0  0  0  0  0  0  0  0  0  0
   -8.2033    2.5736    4.4594 H   0  0  0  0  0  0  0  0  0  0  0  0
   -9.3318   -1.9231    7.3813 H   0  0  0  0  0  0  0  0  0  0  0  0
  1  2  1  0
  2  3  1  0
  2  4  1  0
  4  5  2  0
  4  6  1  0
  6  7  1  0
  7  8  1  0
  8  9  2  0
  9 10  1  0
 10 11  1  0
 10 12  2  0
 12 13  1  0
 12 14  1  0
 14 15  1  0
 15 16  1  0
 16 17  1  0
 17 18  1  0
 17 19  1  0
 17 20  1  0
 20 21  1  0
 14 22  2  0
 22  8  1  0
  1 23  1  0
  1 24  1  0
  1 25  1  0
  3 26  1  0
  3 27  1  0
  3 28  1  0
  6 29  1  0
  6 30  1  0
  9 31  1  0
 13 32  1  0
 13 33  1  0
 15 34  1  0
 15 35  1  0
 16 36  1  0
 18 37  1  0
 18 38  1  0
 18 39  1  0
 19 40  1  0
 19 41  1  0
 19 42  1  0
 20 43  1  0
 20 44  1  0
 21 45  1  0
 22 46  1  0
M  END
>  <Energy>  (892) 
162.06061608425662

>  <compound_id>  (892) 
1184

>  <target_id>  (892) 
1

>  <reference_id>  (892) 
69

>  <inspiration_ids>  (892) 
[84, 69]

>  <energy_score>  (892) 
29.620505833813183

>  <distance_score>  (892) 
2.308561852208673

>  <path>  (892) 
/opt/xchem-fragalysis-2/maxwin/BulkDock/SCRATCH/505733/C1184-P69/C1184-P69.minimised.mol

>  <scratch_subdir>  (892) 
/opt/xchem-fragalysis-2/maxwin/BulkDock/SCRATCH/505733/C1184-P69

>  <fragmenstein_runtime>  (892) 
5.97430944442749

>  <fragmenstein_outcome>  (892) 
too moved

>  <fragmenstein_mode>  (892) 
expansion

>  <fragmenstein_error>  (892) 


$$$$
C71-P84
     RDKit          3D

 28 28  0  0  0  0  0  0  0  0999 V2000
   -5.4560   -3.0783    6.7149 C   0  0  0  0  0  0  0  0  0  0  0  0
   -4.8926   -1.8165    6.1582 N   0  0  0  0  0  0  0  0  0  0  0  0
   -4.6140   -2.7282    5.0432 C   0  0  0  0  0  0  0  0  0  0  0  0
   -3.9657   -1.1564    7.1374 C   0  0  0  0  0  0  0  0  0  0  0  0
   -2.8084   -1.2787    7.2887 O   0  0  0  0  0  0  0  0  0  0  0  0
   -4.7774   -0.1338    7.9598 C   0  0  0  0  0  0  0  0  0  0  0  0
   -5.7471    0.7411    7.3661 O   0  0  0  0  0  0  0  0  0  0  0  0
   -6.9461    0.1077    7.1928 C   0  0  0  0  0  0  0  0  0  0  0  0
   -7.7555   -0.2205    8.2726 C   0  0  0  0  0  0  0  0  0  0  0  0
   -8.6944   -1.2360    8.1142 C   0  0  0  0  0  0  0  0  0  0  0  0
   -8.7964   -1.9340    6.9086 C   0  0  0  0  0  0  0  0  0  0  0  0
   -9.4463   -3.1748    6.8997 N   0  0  0  0  0  0  0  0  0  0  0  0
   -8.0105   -1.5082    5.8351 C   0  0  0  0  0  0  0  0  0  0  0  0
   -7.8387   -2.3013    4.7688 F   0  0  0  0  0  0  0  0  0  0  0  0
   -7.2032   -0.3885    5.9243 C   0  0  0  0  0  0  0  0  0  0  0  0
   -4.6519   -3.6964    7.1327 H   0  0  0  0  0  0  0  0  0  0  0  0
   -6.0094   -2.7414    7.5920 H   0  0  0  0  0  0  0  0  0  0  0  0
   -6.2136   -3.6459    6.1520 H   0  0  0  0  0  0  0  0  0  0  0  0
   -4.1048   -2.0578    4.3426 H   0  0  0  0  0  0  0  0  0  0  0  0
   -3.8807   -3.5115    5.2639 H   0  0  0  0  0  0  0  0  0  0  0  0
   -5.4859   -3.0608    4.4600 H   0  0  0  0  0  0  0  0  0  0  0  0
   -5.1808   -0.6567    8.8339 H   0  0  0  0  0  0  0  0  0  0  0  0
   -3.9948    0.5350    8.3364 H   0  0  0  0  0  0  0  0  0  0  0  0
   -7.5927    0.2126    9.2516 H   0  0  0  0  0  0  0  0  0  0  0  0
   -9.2920   -1.5502    8.9659 H   0  0  0  0  0  0  0  0  0  0  0  0
  -10.1872   -3.2248    7.6018 H   0  0  0  0  0  0  0  0  0  0  0  0
   -9.7570   -3.4679    5.9746 H   0  0  0  0  0  0  0  0  0  0  0  0
   -6.5673   -0.1255    5.0857 H   0  0  0  0  0  0  0  0  0  0  0  0
  1  2  1  0
  2  3  1  0
  2  4  1  0
  4  5  2  0
  4  6  1  0
  6  7  1  0
  7  8  1  0
  8  9  2  0
  9 10  1  0
 10 11  2  0
 11 12  1  0
 11 13  1  0
 13 14  1  0
 13 15  2  0
 15  8  1  0
  1 16  1  0
  1 17  1  0
  1 18  1  0
  3 19  1  0
  3 20  1  0
  3 21  1  0
  6 22  1  0
  6 23  1  0
  9 24  1  0
 10 25  1  0
 12 26  1  0
 12 27  1  0
 15 28  1  0
M  END
>  <Energy>  (893) 
144.89296218505379

>  <compound_id>  (893) 
71

>  <target_id>  (893) 
1

>  <reference_id>  (893) 
84

>  <inspiration_ids>  (893) 
[84, 73]

>  <energy_score>  (893) 
76.1356589712596

>  <distance_score>  (893) 
1.6108818707254438

>  <path>  (893) 
/opt/xchem-fragalysis-2/maxwin/BulkDock/SCRATCH/505733/C71-P84/C71-P84.minimised.mol

>  <scratch_subdir>  (893) 
/opt/xchem-fragalysis-2/maxwin/BulkDock/SCRATCH/505733/C71-P84

>  <fragmenstein_runtime>  (893) 
3.311145305633545

>  <fragmenstein_outcome>  (893) 
too moved

>  <fragmenstein_mode>  (893) 
expansion

>  <fragmenstein_error>  (893) 


$$$$
C71-P73
     RDKit          3D

 28 28  0  0  0  0  0  0  0  0999 V2000
   -7.3210    3.7261    7.4020 C   0  0  0  0  0  0  0  0  0  0  0  0
   -5.8303    3.8324    7.2007 N   0  0  0  0  0  0  0  0  0  0  0  0
   -6.2315    5.2314    6.8706 C   0  0  0  0  0  0  0  0  0  0  0  0
   -5.3133    2.7130    6.3082 C   0  0  0  0  0  0  0  0  0  0  0  0
   -5.1861    2.6685    5.1352 O   0  0  0  0  0  0  0  0  0  0  0  0
   -4.8309    1.5640    7.2243 C   0  0  0  0  0  0  0  0  0  0  0  0
   -5.8148    0.9678    8.0519 O   0  0  0  0  0  0  0  0  0  0  0  0
   -6.3974   -0.1894    7.6471 C   0  0  0  0  0  0  0  0  0  0  0  0
   -7.6871   -0.3978    8.1344 C   0  0  0  0  0  0  0  0  0  0  0  0
   -8.3807   -1.5642    7.8056 C   0  0  0  0  0  0  0  0  0  0  0  0
   -7.7850   -2.5577    7.0255 C   0  0  0  0  0  0  0  0  0  0  0  0
   -8.5601   -3.6381    6.5910 N   0  0  0  0  0  0  0  0  0  0  0  0
   -6.4932   -2.3245    6.5449 C   0  0  0  0  0  0  0  0  0  0  0  0
   -5.8713   -3.2380    5.7877 F   0  0  0  0  0  0  0  0  0  0  0  0
   -5.7914   -1.1673    6.8664 C   0  0  0  0  0  0  0  0  0  0  0  0
   -7.7378    4.3388    8.2165 H   0  0  0  0  0  0  0  0  0  0  0  0
   -7.9046    3.7546    6.4676 H   0  0  0  0  0  0  0  0  0  0  0  0
   -7.4964    2.7045    7.7582 H   0  0  0  0  0  0  0  0  0  0  0  0
   -6.8206    5.3516    5.9480 H   0  0  0  0  0  0  0  0  0  0  0  0
   -6.5687    5.8356    7.7260 H   0  0  0  0  0  0  0  0  0  0  0  0
   -5.2742    5.6980    6.5936 H   0  0  0  0  0  0  0  0  0  0  0  0
   -4.2917    0.8468    6.6041 H   0  0  0  0  0  0  0  0  0  0  0  0
   -4.0590    1.9870    7.8762 H   0  0  0  0  0  0  0  0  0  0  0  0
   -8.1619    0.3495    8.7645 H   0  0  0  0  0  0  0  0  0  0  0  0
   -9.3984   -1.6955    8.1688 H   0  0  0  0  0  0  0  0  0  0  0  0
   -8.0305   -4.4239    6.2100 H   0  0  0  0  0  0  0  0  0  0  0  0
   -9.2648   -3.9202    7.2643 H   0  0  0  0  0  0  0  0  0  0  0  0
   -4.7752   -1.0928    6.5024 H   0  0  0  0  0  0  0  0  0  0  0  0
  1  2  1  0
  2  3  1  0
  2  4  1  0
  4  5  2  0
  4  6  1  0
  6  7  1  0
  7  8  1  0
  8  9  2  0
  9 10  1  0
 10 11  2  0
 11 12  1  0
 11 13  1  0
 13 14  1  0
 13 15  2  0
 15  8  1  0
  1 16  1  0
  1 17  1  0
  1 18  1  0
  3 19  1  0
  3 20  1  0
  3 21  1  0
  6 22  1  0
  6 23  1  0
  9 24  1  0
 10 25  1  0
 12 26  1  0
 12 27  1  0
 15 28  1  0
M  END
>  <Energy>  (894) 
127.98766255817659

>  <compound_id>  (894) 
71

>  <target_id>  (894) 
1

>  <reference_id>  (894) 
73

>  <inspiration_ids>  (894) 
[84, 73]

>  <energy_score>  (894) 
59.230359344381554

>  <distance_score>  (894) 
3.3466759093932414

>  <path>  (894) 
/opt/xchem-fragalysis-2/maxwin/BulkDock/SCRATCH/505733/C71-P73/C71-P73.minimised.mol

>  <scratch_subdir>  (894) 
/opt/xchem-fragalysis-2/maxwin/BulkDock/SCRATCH/505733/C71-P73

>  <fragmenstein_runtime>  (894) 
3.7972466945648193

>  <fragmenstein_outcome>  (894) 
too moved

>  <fragmenstein_mode>  (894) 
expansion

>  <fragmenstein_error>  (894) 


$$$$
C71-P84
     RDKit          2D

  0  0  0  0  0  0  0  0  0  0999 V2000
M  END
>  <compound_id>  (895) 
71

>  <target_id>  (895) 
1

>  <reference_id>  (895) 
84

>  <inspiration_ids>  (895) 
[84, 74]

>  <energy_score>  (895) 
nan

>  <distance_score>  (895) 
nan

>  <path>  (895) 
/opt/xchem-fragalysis-2/maxwin/BulkDock/SCRATCH/505733/C71-P84/C71-P84.minimised.mol

>  <scratch_subdir>  (895) 
/opt/xchem-fragalysis-2/maxwin/BulkDock/SCRATCH/505733/C71-P84

>  <fragmenstein_runtime>  (895) 
0.3613889217376709

>  <fragmenstein_outcome>  (895) 
crashed

>  <fragmenstein_mode>  (895) 
expansion

>  <fragmenstein_error>  (895) 
PoisonError: None has poison atoms [8, 9, 8, 9, 8, 9, 8, 9, 12, 14, 9, 8, 12, 14, 9, 8]

$$$$
C1132-P84
     RDKit          3D

 61 62  0  0  0  0  0  0  0  0999 V2000
  -13.2067    2.3930    5.5048 C   0  0  0  0  0  0  0  0  0  0  0  0
  -12.8197    1.5447    4.2819 C   0  0  0  0  0  0  0  0  0  0  0  0
  -14.0535    0.8204    3.7461 C   0  0  0  0  0  0  0  0  0  0  0  0
  -14.3396   -0.4785    4.4949 C   0  0  0  0  0  0  0  0  0  0  0  0
  -13.4102   -0.7430    5.6816 C   0  0  0  0  0  0  0  0  0  0  0  0
  -11.9925   -0.6380    5.3461 N   0  0  0  0  0  0  0  0  0  0  0  0
  -10.8393   -1.2480    6.4609 S   0  0  0  0  0  0  0  0  0  0  0  0
  -11.1861   -2.9273    6.7155 C   0  0  0  0  0  0  0  0  0  0  0  0
   -9.5780   -1.2874    5.7574 O   0  0  0  0  0  0  0  0  0  0  0  0
  -11.1326   -0.4756    7.7471 N   0  0  0  0  0  0  0  0  0  0  0  0
  -10.0533    0.3092    8.3116 C   0  0  0  0  0  0  0  0  0  0  0  0
  -10.2242    1.6572    7.7993 N   0  0  0  0  0  0  0  0  0  0  0  0
   -9.3365    2.3664    7.3542 C   0  0  0  0  0  0  0  0  0  0  0  0
   -7.8733    1.8663    7.2950 C   0  0  0  0  0  0  0  0  0  0  0  0
   -7.6431    0.7626    6.4287 O   0  0  0  0  0  0  0  0  0  0  0  0
   -6.4966    0.0729    6.7292 C   0  0  0  0  0  0  0  0  0  0  0  0
   -5.4045    0.6855    7.3370 C   0  0  0  0  0  0  0  0  0  0  0  0
   -4.2845   -0.0473    7.6953 C   0  0  0  0  0  0  0  0  0  0  0  0
   -4.2210   -1.3954    7.3981 C   0  0  0  0  0  0  0  0  0  0  0  0
   -3.0328   -2.0728    7.6361 N   0  0  0  0  0  0  0  0  0  0  0  0
   -5.2609   -1.9800    6.6752 C   0  0  0  0  0  0  0  0  0  0  0  0
   -5.1417   -3.2606    6.2947 F   0  0  0  0  0  0  0  0  0  0  0  0
   -6.4122   -1.2682    6.3672 C   0  0  0  0  0  0  0  0  0  0  0  0
   -9.3880    3.8028    6.8136 N   0  0  0  0  0  0  0  0  0  0  0  0
  -10.5637    4.7295    6.5760 C   0  0  0  0  0  0  0  0  0  0  0  0
   -9.1409    4.8533    7.9572 C   0  0  0  0  0  0  0  0  0  0  0  0
  -11.6444    0.5630    4.5649 C   0  0  0  0  0  0  0  0  0  0  0  0
  -10.9647    0.1021    3.2492 C   0  0  0  0  0  0  0  0  0  0  0  0
  -11.7408   -0.8783    2.5585 O   0  0  0  0  0  0  0  0  0  0  0  0
  -12.3519    2.5737    6.1570 H   0  0  0  0  0  0  0  0  0  0  0  0
  -13.9983    1.9455    6.1111 H   0  0  0  0  0  0  0  0  0  0  0  0
  -13.5885    3.3653    5.1728 H   0  0  0  0  0  0  0  0  0  0  0  0
  -12.4843    2.2583    3.5169 H   0  0  0  0  0  0  0  0  0  0  0  0
  -14.9320    1.4765    3.7869 H   0  0  0  0  0  0  0  0  0  0  0  0
  -13.9143    0.5930    2.6820 H   0  0  0  0  0  0  0  0  0  0  0  0
  -15.3791   -0.4787    4.8446 H   0  0  0  0  0  0  0  0  0  0  0  0
  -14.2653   -1.3070    3.7816 H   0  0  0  0  0  0  0  0  0  0  0  0
  -13.6590   -0.0841    6.5190 H   0  0  0  0  0  0  0  0  0  0  0  0
  -13.6342   -1.7505    6.0453 H   0  0  0  0  0  0  0  0  0  0  0  0
  -10.3638   -3.2942    7.3289 H   0  0  0  0  0  0  0  0  0  0  0  0
  -12.1542   -3.0370    7.1972 H   0  0  0  0  0  0  0  0  0  0  0  0
  -11.1416   -3.4495    5.7617 H   0  0  0  0  0  0  0  0  0  0  0  0
  -10.1988    0.3465    9.3975 H   0  0  0  0  0  0  0  0  0  0  0  0
   -9.0798   -0.1597    8.1611 H   0  0  0  0  0  0  0  0  0  0  0  0
   -7.2464    2.7042    6.9667 H   0  0  0  0  0  0  0  0  0  0  0  0
   -7.6164    1.6119    8.3279 H   0  0  0  0  0  0  0  0  0  0  0  0
   -5.3834    1.7548    7.5174 H   0  0  0  0  0  0  0  0  0  0  0  0
   -3.4436    0.4493    8.1701 H   0  0  0  0  0  0  0  0  0  0  0  0
   -2.5341   -1.7412    8.4563 H   0  0  0  0  0  0  0  0  0  0  0  0
   -3.1447   -3.0868    7.6128 H   0  0  0  0  0  0  0  0  0  0  0  0
   -7.2177   -1.7583    5.8339 H   0  0  0  0  0  0  0  0  0  0  0  0
  -10.3112    5.7501    6.2489 H   0  0  0  0  0  0  0  0  0  0  0  0
  -11.0546    4.3200    5.6840 H   0  0  0  0  0  0  0  0  0  0  0  0
  -11.3461    4.6978    7.3491 H   0  0  0  0  0  0  0  0  0  0  0  0
   -9.8935    4.8334    8.7599 H   0  0  0  0  0  0  0  0  0  0  0  0
   -8.2121    4.5285    8.4458 H   0  0  0  0  0  0  0  0  0  0  0  0
   -8.8939    5.8653    7.6025 H   0  0  0  0  0  0  0  0  0  0  0  0
  -10.8877    1.1453    5.1043 H   0  0  0  0  0  0  0  0  0  0  0  0
   -9.9794   -0.3336    3.4408 H   0  0  0  0  0  0  0  0  0  0  0  0
  -10.8126    0.9490    2.5721 H   0  0  0  0  0  0  0  0  0  0  0  0
  -11.9045   -1.5787    3.2239 H   0  0  0  0  0  0  0  0  0  0  0  0
  1  2  1  0
  2  3  1  0
  3  4  1  0
  4  5  1  0
  5  6  1  0
  6  7  1  0
  7  8  1  0
  7  9  2  0
  7 10  2  0
 10 11  1  0
 11 12  1  0
 12 13  2  3
 13 14  1  0
 14 15  1  0
 15 16  1  0
 16 17  2  0
 17 18  1  0
 18 19  2  0
 19 20  1  0
 19 21  1  0
 21 22  1  0
 21 23  2  0
 13 24  1  0
 24 25  1  0
 24 26  1  0
  6 27  1  0
 27 28  1  0
 28 29  1  0
 27  2  1  0
 23 16  1  0
  1 30  1  0
  1 31  1  0
  1 32  1  0
  2 33  1  0
  3 34  1  0
  3 35  1  0
  4 36  1  0
  4 37  1  0
  5 38  1  0
  5 39  1  0
  8 40  1  0
  8 41  1  0
  8 42  1  0
 11 43  1  0
 11 44  1  0
 14 45  1  0
 14 46  1  0
 17 47  1  0
 18 48  1  0
 20 49  1  0
 20 50  1  0
 23 51  1  0
 25 52  1  0
 25 53  1  0
 25 54  1  0
 26 55  1  0
 26 56  1  0
 26 57  1  0
 27 58  1  0
 28 59  1  0
 28 60  1  0
 29 61  1  0
M  END
>  <Energy>  (896) 
19.301539639091878

>  <compound_id>  (896) 
1132

>  <target_id>  (896) 
1

>  <reference_id>  (896) 
84

>  <inspiration_ids>  (896) 
[84, 91]

>  <energy_score>  (896) 
-12.35494153506744

>  <distance_score>  (896) 
3.1900076185677073

>  <path>  (896) 
/opt/xchem-fragalysis-2/maxwin/BulkDock/SCRATCH/505733/C1132-P84/C1132-P84.minimised.mol

>  <scratch_subdir>  (896) 
/opt/xchem-fragalysis-2/maxwin/BulkDock/SCRATCH/505733/C1132-P84

>  <fragmenstein_runtime>  (896) 
7.455035448074341

>  <fragmenstein_outcome>  (896) 
too moved

>  <fragmenstein_mode>  (896) 
expansion

>  <fragmenstein_error>  (896) 


$$$$
C1186-P84
     RDKit          3D

 43 44  0  0  0  0  0  0  0  0999 V2000
   -7.8289    1.4042    7.1528 C   0  0  0  0  0  0  0  0  0  0  0  0
   -7.1626    0.1451    7.6707 C   0  0  0  0  0  0  0  0  0  0  0  0
   -7.2464   -0.1417    8.8278 O   0  0  0  0  0  0  0  0  0  0  0  0
   -6.4608   -0.4909    6.5994 N   0  0  0  0  0  0  0  0  0  0  0  0
   -5.7150   -1.7248    6.5581 C   0  0  0  0  0  0  0  0  0  0  0  0
   -6.6206   -2.9294    6.2958 C   0  0  0  0  0  0  0  0  0  0  0  0
   -7.0757   -2.9959    4.8706 C   0  0  0  0  0  0  0  0  0  0  0  0
   -6.3861   -3.5875    3.8295 C   0  0  0  0  0  0  0  0  0  0  0  0
   -7.1031   -3.4129    2.6800 N   0  0  0  0  0  0  0  0  0  0  0  0
   -8.2563   -2.7218    2.9476 C   0  0  0  0  0  0  0  0  0  0  0  0
   -9.2703   -2.3043    2.0889 C   0  0  0  0  0  0  0  0  0  0  0  0
   -9.2077   -2.5674    0.7766 F   0  0  0  0  0  0  0  0  0  0  0  0
  -10.3480   -1.6045    2.6158 C   0  0  0  0  0  0  0  0  0  0  0  0
  -10.4226   -1.3467    3.9830 C   0  0  0  0  0  0  0  0  0  0  0  0
  -11.5341   -0.6471    4.3723 O   0  0  0  0  0  0  0  0  0  0  0  0
  -11.9907   -0.8910    5.6977 C   0  0  0  0  0  0  0  0  0  0  0  0
  -11.4747    0.1315    6.7334 C   0  0  0  0  0  0  0  0  0  0  0  0
  -11.0917    1.2228    6.4002 O   0  0  0  0  0  0  0  0  0  0  0  0
  -11.5031   -0.4904    8.0212 N   0  0  0  0  0  0  0  0  0  0  0  0
  -10.9685   -0.0315    9.3363 C   0  0  0  0  0  0  0  0  0  0  0  0
  -12.8134   -0.2113    8.7027 C   0  0  0  0  0  0  0  0  0  0  0  0
   -9.3910   -1.7583    4.8424 C   0  0  0  0  0  0  0  0  0  0  0  0
   -8.2821   -2.4601    4.3166 C   0  0  0  0  0  0  0  0  0  0  0  0
   -8.3567    1.2080    6.2157 H   0  0  0  0  0  0  0  0  0  0  0  0
   -8.5583    1.7609    7.8855 H   0  0  0  0  0  0  0  0  0  0  0  0
   -7.0719    2.1776    6.9968 H   0  0  0  0  0  0  0  0  0  0  0  0
   -6.6829   -0.0164    5.7313 H   0  0  0  0  0  0  0  0  0  0  0  0
   -4.9357   -1.6220    5.7959 H   0  0  0  0  0  0  0  0  0  0  0  0
   -5.2346   -1.8410    7.5346 H   0  0  0  0  0  0  0  0  0  0  0  0
   -6.0648   -3.8428    6.5259 H   0  0  0  0  0  0  0  0  0  0  0  0
   -7.4874   -2.9145    6.9676 H   0  0  0  0  0  0  0  0  0  0  0  0
   -5.4416   -4.1123    3.8136 H   0  0  0  0  0  0  0  0  0  0  0  0
   -6.8265   -3.7185    1.7565 H   0  0  0  0  0  0  0  0  0  0  0  0
  -11.1443   -1.2761    1.9557 H   0  0  0  0  0  0  0  0  0  0  0  0
  -11.7896   -1.9202    6.0218 H   0  0  0  0  0  0  0  0  0  0  0  0
  -13.0813   -0.7816    5.6705 H   0  0  0  0  0  0  0  0  0  0  0  0
  -11.1237    1.0365    9.5514 H   0  0  0  0  0  0  0  0  0  0  0  0
   -9.8813   -0.0960    9.2018 H   0  0  0  0  0  0  0  0  0  0  0  0
  -11.1642   -0.7058   10.1822 H   0  0  0  0  0  0  0  0  0  0  0  0
  -13.5889   -0.5091    7.9815 H   0  0  0  0  0  0  0  0  0  0  0  0
  -13.0182    0.8589    8.8637 H   0  0  0  0  0  0  0  0  0  0  0  0
  -13.0315   -0.8439    9.5754 H   0  0  0  0  0  0  0  0  0  0  0  0
   -9.4172   -1.5459    5.9056 H   0  0  0  0  0  0  0  0  0  0  0  0
  1  2  1  0
  2  3  2  0
  2  4  1  0
  4  5  1  0
  5  6  1  0
  6  7  1  0
  7  8  2  0
  8  9  1  0
  9 10  1  0
 10 11  2  0
 11 12  1  0
 11 13  1  0
 13 14  2  0
 14 15  1  0
 15 16  1  0
 16 17  1  0
 17 18  2  0
 17 19  1  0
 19 20  1  0
 19 21  1  0
 14 22  1  0
 22 23  2  0
 23  7  1  0
 23 10  1  0
  1 24  1  0
  1 25  1  0
  1 26  1  0
  4 27  1  0
  5 28  1  0
  5 29  1  0
  6 30  1  0
  6 31  1  0
  8 32  1  0
  9 33  1  0
 13 34  1  0
 16 35  1  0
 16 36  1  0
 20 37  1  0
 20 38  1  0
 20 39  1  0
 21 40  1  0
 21 41  1  0
 21 42  1  0
 22 43  1  0
M  END
>  <Energy>  (897) 
85.450289547007912

>  <compound_id>  (897) 
1186

>  <target_id>  (897) 
1

>  <reference_id>  (897) 
84

>  <inspiration_ids>  (897) 
[84, 99]

>  <energy_score>  (897) 
33.467151272548506

>  <distance_score>  (897) 
4.178702075443731

>  <path>  (897) 
/opt/xchem-fragalysis-2/maxwin/BulkDock/SCRATCH/505733/C1186-P84/C1186-P84.minimised.mol

>  <scratch_subdir>  (897) 
/opt/xchem-fragalysis-2/maxwin/BulkDock/SCRATCH/505733/C1186-P84

>  <fragmenstein_runtime>  (897) 
7.682971000671387

>  <fragmenstein_outcome>  (897) 
too moved

>  <fragmenstein_mode>  (897) 
expansion

>  <fragmenstein_error>  (897) 


$$$$
C1186-P99
     RDKit          3D

 43 44  0  0  0  0  0  0  0  0999 V2000
   -4.2375    0.1211    8.1331 C   0  0  0  0  0  0  0  0  0  0  0  0
   -3.7552   -0.9855    7.2415 C   0  0  0  0  0  0  0  0  0  0  0  0
   -2.6398   -1.1654    6.9714 O   0  0  0  0  0  0  0  0  0  0  0  0
   -5.0175   -1.7584    6.8281 N   0  0  0  0  0  0  0  0  0  0  0  0
   -5.1625   -2.9660    6.0756 C   0  0  0  0  0  0  0  0  0  0  0  0
   -6.4302   -3.0955    5.2436 C   0  0  0  0  0  0  0  0  0  0  0  0
   -7.6654   -2.7577    6.0077 C   0  0  0  0  0  0  0  0  0  0  0  0
   -8.5258   -3.6026    6.6785 C   0  0  0  0  0  0  0  0  0  0  0  0
   -9.4796   -2.8368    7.3019 N   0  0  0  0  0  0  0  0  0  0  0  0
   -9.2320   -1.5020    7.0748 C   0  0  0  0  0  0  0  0  0  0  0  0
   -9.8631   -0.3524    7.5518 C   0  0  0  0  0  0  0  0  0  0  0  0
  -10.9040   -0.4287    8.3907 F   0  0  0  0  0  0  0  0  0  0  0  0
   -9.3650    0.8972    7.1717 C   0  0  0  0  0  0  0  0  0  0  0  0
   -8.2753    1.0024    6.3089 C   0  0  0  0  0  0  0  0  0  0  0  0
   -7.8407    2.2781    6.0500 O   0  0  0  0  0  0  0  0  0  0  0  0
   -6.7138    2.3976    5.1880 C   0  0  0  0  0  0  0  0  0  0  0  0
   -6.2109    3.8476    5.1297 C   0  0  0  0  0  0  0  0  0  0  0  0
   -6.6946    4.6614    4.4280 O   0  0  0  0  0  0  0  0  0  0  0  0
   -5.0114    3.9421    6.0727 N   0  0  0  0  0  0  0  0  0  0  0  0
   -4.0384    5.0620    6.3064 C   0  0  0  0  0  0  0  0  0  0  0  0
   -5.4363    4.3657    7.4541 C   0  0  0  0  0  0  0  0  0  0  0  0
   -7.6854   -0.1605    5.8025 C   0  0  0  0  0  0  0  0  0  0  0  0
   -8.1421   -1.4320    6.2190 C   0  0  0  0  0  0  0  0  0  0  0  0
   -3.3964    0.7715    8.3704 H   0  0  0  0  0  0  0  0  0  0  0  0
   -5.0051    0.7159    7.6321 H   0  0  0  0  0  0  0  0  0  0  0  0
   -4.6389   -0.3054    9.0528 H   0  0  0  0  0  0  0  0  0  0  0  0
   -5.8225   -1.3766    7.3133 H   0  0  0  0  0  0  0  0  0  0  0  0
   -4.2805   -3.0870    5.4443 H   0  0  0  0  0  0  0  0  0  0  0  0
   -5.1493   -3.7353    6.8371 H   0  0  0  0  0  0  0  0  0  0  0  0
   -6.3570   -2.4349    4.3705 H   0  0  0  0  0  0  0  0  0  0  0  0
   -6.5056   -4.1143    4.8468 H   0  0  0  0  0  0  0  0  0  0  0  0
   -8.5387   -4.6793    6.7754 H   0  0  0  0  0  0  0  0  0  0  0  0
  -10.2146   -3.1671    7.9215 H   0  0  0  0  0  0  0  0  0  0  0  0
   -9.8402    1.7911    7.5648 H   0  0  0  0  0  0  0  0  0  0  0  0
   -6.9841    2.1045    4.1659 H   0  0  0  0  0  0  0  0  0  0  0  0
   -5.8851    1.7671    5.5302 H   0  0  0  0  0  0  0  0  0  0  0  0
   -3.2691    4.8674    7.0676 H   0  0  0  0  0  0  0  0  0  0  0  0
   -4.4856    6.0674    6.3396 H   0  0  0  0  0  0  0  0  0  0  0  0
   -3.4711    5.0901    5.3643 H   0  0  0  0  0  0  0  0  0  0  0  0
   -4.6864    4.2211    8.2455 H   0  0  0  0  0  0  0  0  0  0  0  0
   -5.9584    5.3350    7.4910 H   0  0  0  0  0  0  0  0  0  0  0  0
   -6.2279    3.6535    7.7261 H   0  0  0  0  0  0  0  0  0  0  0  0
   -6.8437   -0.1304    5.1210 H   0  0  0  0  0  0  0  0  0  0  0  0
  1  2  1  0
  2  3  2  0
  2  4  1  0
  4  5  1  0
  5  6  1  0
  6  7  1  0
  7  8  2  0
  8  9  1  0
  9 10  1  0
 10 11  2  0
 11 12  1  0
 11 13  1  0
 13 14  2  0
 14 15  1  0
 15 16  1  0
 16 17  1  0
 17 18  2  0
 17 19  1  0
 19 20  1  0
 19 21  1  0
 14 22  1  0
 22 23  2  0
 23  7  1  0
 23 10  1  0
  1 24  1  0
  1 25  1  0
  1 26  1  0
  4 27  1  0
  5 28  1  0
  5 29  1  0
  6 30  1  0
  6 31  1  0
  8 32  1  0
  9 33  1  0
 13 34  1  0
 16 35  1  0
 16 36  1  0
 20 37  1  0
 20 38  1  0
 20 39  1  0
 21 40  1  0
 21 41  1  0
 21 42  1  0
 22 43  1  0
M  END
>  <Energy>  (898) 
112.19618746192882

>  <compound_id>  (898) 
1186

>  <target_id>  (898) 
1

>  <reference_id>  (898) 
99

>  <inspiration_ids>  (898) 
[84, 99]

>  <energy_score>  (898) 
61.36012923293447

>  <distance_score>  (898) 
3.8187696178606316

>  <path>  (898) 
/opt/xchem-fragalysis-2/maxwin/BulkDock/SCRATCH/505733/C1186-P99/C1186-P99.minimised.mol

>  <scratch_subdir>  (898) 
/opt/xchem-fragalysis-2/maxwin/BulkDock/SCRATCH/505733/C1186-P99

>  <fragmenstein_runtime>  (898) 
4.3450767993927

>  <fragmenstein_outcome>  (898) 
too moved

>  <fragmenstein_mode>  (898) 
expansion

>  <fragmenstein_error>  (898) 


$$$$
C1189-P84
     RDKit          3D

 41 41  0  0  0  0  0  0  0  0999 V2000
   -8.1222    3.9346    7.4767 C   0  0  0  0  0  0  0  0  0  0  0  0
   -7.0019    2.3185    7.4769 N   0  0  0  0  0  0  0  0  0  0  0  0
   -7.4406    3.5368    7.2660 C   0  0  0  0  0  0  0  0  0  0  0  0
   -6.1090    1.5262    6.3957 C   0  0  0  0  0  0  0  0  0  0  0  0
   -5.8008    1.7679    5.3081 O   0  0  0  0  0  0  0  0  0  0  0  0
   -5.5930    0.2556    7.1434 C   0  0  0  0  0  0  0  0  0  0  0  0
   -6.3573   -0.3838    8.1509 O   0  0  0  0  0  0  0  0  0  0  0  0
   -7.4629   -0.9795    7.6172 C   0  0  0  0  0  0  0  0  0  0  0  0
   -7.4009   -2.2419    7.0528 C   0  0  0  0  0  0  0  0  0  0  0  0
   -8.5755   -2.8203    6.5844 C   0  0  0  0  0  0  0  0  0  0  0  0
   -8.5164   -4.0663    6.0944 F   0  0  0  0  0  0  0  0  0  0  0  0
   -9.8060   -2.1402    6.5980 C   0  0  0  0  0  0  0  0  0  0  0  0
  -10.9867   -2.8104    6.2320 N   0  0  0  0  0  0  0  0  0  0  0  0
   -9.8600   -0.8731    7.2019 C   0  0  0  0  0  0  0  0  0  0  0  0
  -11.1261   -0.0603    7.3710 C   0  0  0  0  0  0  0  0  0  0  0  0
  -12.0200   -0.2660    6.2701 O   0  0  0  0  0  0  0  0  0  0  0  0
  -11.7951   -0.4002    8.6925 C   0  0  0  0  0  0  0  0  0  0  0  0
  -12.7764    0.9885    9.1983 S   0  0  0  0  0  0  0  0  0  0  0  0
  -13.4937    0.4493   10.7290 C   0  0  0  0  0  0  0  0  0  0  0  0
  -11.8805    2.0916    9.4871 O   0  0  0  0  0  0  0  0  0  0  0  0
  -13.8412    1.1512    8.2243 O   0  0  0  0  0  0  0  0  0  0  0  0
   -8.6815   -0.3235    7.7355 C   0  0  0  0  0  0  0  0  0  0  0  0
   -9.1192    3.4388    7.9741 H   0  0  0  0  0  0  0  0  0  0  0  0
   -8.0254    4.7576    8.4017 H   0  0  0  0  0  0  0  0  0  0  0  0
   -8.7690    4.4113    6.5148 H   0  0  0  0  0  0  0  0  0  0  0  0
   -6.6164    4.2090    6.5422 H   0  0  0  0  0  0  0  0  0  0  0  0
   -6.4172    3.8332    7.9347 H   0  0  0  0  0  0  0  0  0  0  0  0
   -7.5457    3.1608    6.0404 H   0  0  0  0  0  0  0  0  0  0  0  0
   -5.3108   -0.4791    6.3761 H   0  0  0  0  0  0  0  0  0  0  0  0
   -4.6510    0.5586    7.6158 H   0  0  0  0  0  0  0  0  0  0  0  0
   -6.4718   -2.7963    7.0034 H   0  0  0  0  0  0  0  0  0  0  0  0
  -10.8491   -3.5471    5.5406 H   0  0  0  0  0  0  0  0  0  0  0  0
  -11.7032   -2.1565    5.9032 H   0  0  0  0  0  0  0  0  0  0  0  0
  -10.8467    0.9994    7.3191 H   0  0  0  0  0  0  0  0  0  0  0  0
  -12.8055    0.2952    6.4271 H   0  0  0  0  0  0  0  0  0  0  0  0
  -11.0759   -0.5759    9.4993 H   0  0  0  0  0  0  0  0  0  0  0  0
  -12.4709   -1.2555    8.5982 H   0  0  0  0  0  0  0  0  0  0  0  0
  -14.1173   -0.4254   10.5366 H   0  0  0  0  0  0  0  0  0  0  0  0
  -12.6932    0.2077   11.4301 H   0  0  0  0  0  0  0  0  0  0  0  0
  -14.1045    1.2632   11.1247 H   0  0  0  0  0  0  0  0  0  0  0  0
   -8.7150    0.6301    8.2578 H   0  0  0  0  0  0  0  0  0  0  0  0
  1  2  1  0
  2  3  1  0
  2  4  1  0
  4  5  2  0
  4  6  1  0
  6  7  1  0
  7  8  1  0
  8  9  2  0
  9 10  1  0
 10 11  1  0
 10 12  2  0
 12 13  1  0
 12 14  1  0
 14 15  1  0
 15 16  1  0
 15 17  1  0
 17 18  1  0
 18 19  1  0
 18 20  2  0
 18 21  2  0
 14 22  2  0
 22  8  1  0
  1 23  1  0
  1 24  1  0
  1 25  1  0
  3 26  1  0
  3 27  1  0
  3 28  1  0
  6 29  1  0
  6 30  1  0
  9 31  1  0
 13 32  1  0
 13 33  1  0
 15 34  1  0
 16 35  1  0
 17 36  1  0
 17 37  1  0
 19 38  1  0
 19 39  1  0
 19 40  1  0
 22 41  1  0
M  END
>  <Energy>  (899) 
779.00420780785635

>  <compound_id>  (899) 
1189

>  <target_id>  (899) 
1

>  <reference_id>  (899) 
84

>  <inspiration_ids>  (899) 
[84, 139]

>  <energy_score>  (899) 
680.9526623426799

>  <distance_score>  (899) 
2.011733432083167

>  <path>  (899) 
/opt/xchem-fragalysis-2/maxwin/BulkDock/SCRATCH/505733/C1189-P84/C1189-P84.minimised.mol

>  <scratch_subdir>  (899) 
/opt/xchem-fragalysis-2/maxwin/BulkDock/SCRATCH/505733/C1189-P84

>  <fragmenstein_runtime>  (899) 
8.97531509399414

>  <fragmenstein_outcome>  (899) 
too moved

>  <fragmenstein_mode>  (899) 
expansion

>  <fragmenstein_error>  (899) 


$$$$
C1189-P139
     RDKit          3D

 41 41  0  0  0  0  0  0  0  0999 V2000
   -5.3710   -0.2286    3.2063 C   0  0  0  0  0  0  0  0  0  0  0  0
   -5.4006   -0.8045    4.3701 N   0  0  0  0  0  0  0  0  0  0  0  0
   -5.6001   -0.4340    2.4496 C   0  0  0  0  0  0  0  0  0  0  0  0
   -5.0314   -2.2377    4.9307 C   0  0  0  0  0  0  0  0  0  0  0  0
   -4.7200   -3.2214    4.4127 O   0  0  0  0  0  0  0  0  0  0  0  0
   -5.1542   -2.1037    6.4714 C   0  0  0  0  0  0  0  0  0  0  0  0
   -6.1695   -1.2916    7.0390 O   0  0  0  0  0  0  0  0  0  0  0  0
   -7.4721   -1.6436    6.8129 C   0  0  0  0  0  0  0  0  0  0  0  0
   -7.9212   -2.8314    6.2487 C   0  0  0  0  0  0  0  0  0  0  0  0
   -9.2892   -3.0150    6.0409 C   0  0  0  0  0  0  0  0  0  0  0  0
   -9.7087   -4.1621    5.4856 F   0  0  0  0  0  0  0  0  0  0  0  0
  -10.2386   -2.0347    6.3590 C   0  0  0  0  0  0  0  0  0  0  0  0
  -11.6132   -2.3108    6.2159 N   0  0  0  0  0  0  0  0  0  0  0  0
   -9.7958   -0.8704    7.0143 C   0  0  0  0  0  0  0  0  0  0  0  0
  -10.7578    0.1742    7.5519 C   0  0  0  0  0  0  0  0  0  0  0  0
  -11.6853    0.5101    6.5130 O   0  0  0  0  0  0  0  0  0  0  0  0
  -11.4543   -0.3390    8.8062 C   0  0  0  0  0  0  0  0  0  0  0  0
  -12.3662    0.9424    9.6274 S   0  0  0  0  0  0  0  0  0  0  0  0
  -11.1255    2.0422   10.2596 C   0  0  0  0  0  0  0  0  0  0  0  0
  -13.1168    1.6657    8.6147 O   0  0  0  0  0  0  0  0  0  0  0  0
  -13.0409    0.3514   10.7682 O   0  0  0  0  0  0  0  0  0  0  0  0
   -8.4104   -0.6851    7.2145 C   0  0  0  0  0  0  0  0  0  0  0  0
   -4.8749    0.9603    3.2805 H   0  0  0  0  0  0  0  0  0  0  0  0
   -4.1230   -0.3228    3.4033 H   0  0  0  0  0  0  0  0  0  0  0  0
   -6.1951    0.5215    3.8061 H   0  0  0  0  0  0  0  0  0  0  0  0
   -6.4810    0.2998    1.9514 H   0  0  0  0  0  0  0  0  0  0  0  0
   -4.6928   -0.6893    1.6401 H   0  0  0  0  0  0  0  0  0  0  0  0
   -6.1941   -1.4558    2.1420 H   0  0  0  0  0  0  0  0  0  0  0  0
   -5.2083   -3.1107    6.9028 H   0  0  0  0  0  0  0  0  0  0  0  0
   -4.1966   -1.6875    6.8083 H   0  0  0  0  0  0  0  0  0  0  0  0
   -7.2593   -3.6382    5.9572 H   0  0  0  0  0  0  0  0  0  0  0  0
  -11.8372   -3.0182    5.5112 H   0  0  0  0  0  0  0  0  0  0  0  0
  -12.1502   -1.4586    6.0440 H   0  0  0  0  0  0  0  0  0  0  0  0
  -10.2010    1.0924    7.7648 H   0  0  0  0  0  0  0  0  0  0  0  0
  -12.3863    1.0741    6.9037 H   0  0  0  0  0  0  0  0  0  0  0  0
  -10.7479   -0.7431    9.5384 H   0  0  0  0  0  0  0  0  0  0  0  0
  -12.1984   -1.1054    8.5671 H   0  0  0  0  0  0  0  0  0  0  0  0
  -10.3782    1.4586   10.7930 H   0  0  0  0  0  0  0  0  0  0  0  0
  -10.6677    2.5864    9.4326 H   0  0  0  0  0  0  0  0  0  0  0  0
  -11.6086    2.7461   10.9405 H   0  0  0  0  0  0  0  0  0  0  0  0
   -8.0469    0.2222    7.6938 H   0  0  0  0  0  0  0  0  0  0  0  0
  1  2  1  0
  2  3  1  0
  2  4  1  0
  4  5  2  0
  4  6  1  0
  6  7  1  0
  7  8  1  0
  8  9  2  0
  9 10  1  0
 10 11  1  0
 10 12  2  0
 12 13  1  0
 12 14  1  0
 14 15  1  0
 15 16  1  0
 15 17  1  0
 17 18  1  0
 18 19  1  0
 18 20  2  0
 18 21  2  0
 14 22  2  0
 22  8  1  0
  1 23  1  0
  1 24  1  0
  1 25  1  0
  3 26  1  0
  3 27  1  0
  3 28  1  0
  6 29  1  0
  6 30  1  0
  9 31  1  0
 13 32  1  0
 13 33  1  0
 15 34  1  0
 16 35  1  0
 17 36  1  0
 17 37  1  0
 19 38  1  0
 19 39  1  0
 19 40  1  0
 22 41  1  0
M  END
>  <Energy>  (900) 
782.12608542470844

>  <compound_id>  (900) 
1189

>  <target_id>  (900) 
1

>  <reference_id>  (900) 
139

>  <inspiration_ids>  (900) 
[84, 139]

>  <energy_score>  (900) 
684.0745399595305

>  <distance_score>  (900) 
2.175491997635195

>  <path>  (900) 
/opt/xchem-fragalysis-2/maxwin/BulkDock/SCRATCH/505733/C1189-P139/C1189-P139.minimised.mol

>  <scratch_subdir>  (900) 
/opt/xchem-fragalysis-2/maxwin/BulkDock/SCRATCH/505733/C1189-P139

>  <fragmenstein_runtime>  (900) 
9.49876618385315

>  <fragmenstein_outcome>  (900) 
too moved

>  <fragmenstein_mode>  (900) 
expansion

>  <fragmenstein_error>  (900) 


$$$$
C1191-P84
     RDKit          3D

 28 28  0  0  0  0  0  0  0  0999 V2000
   -8.2298   -0.0238    2.0084 C   0  0  0  0  0  0  0  0  0  0  0  0
   -7.3160   -0.9920    2.6862 N   0  0  0  0  0  0  0  0  0  0  0  0
   -6.6382   -0.8964    1.3460 C   0  0  0  0  0  0  0  0  0  0  0  0
   -6.3211   -0.7877    3.8236 C   0  0  0  0  0  0  0  0  0  0  0  0
   -5.9869    0.1977    4.3755 O   0  0  0  0  0  0  0  0  0  0  0  0
   -5.8111   -2.2108    4.1971 C   0  0  0  0  0  0  0  0  0  0  0  0
   -5.4426   -2.4736    5.5484 O   0  0  0  0  0  0  0  0  0  0  0  0
   -6.4549   -2.1716    6.4228 C   0  0  0  0  0  0  0  0  0  0  0  0
   -7.6745   -2.8320    6.3453 C   0  0  0  0  0  0  0  0  0  0  0  0
   -8.7026   -2.4554    7.1985 C   0  0  0  0  0  0  0  0  0  0  0  0
   -9.8651   -3.1147    7.1167 F   0  0  0  0  0  0  0  0  0  0  0  0
   -8.5671   -1.3944    8.1018 C   0  0  0  0  0  0  0  0  0  0  0  0
   -9.5970   -1.0603    8.9839 N   0  0  0  0  0  0  0  0  0  0  0  0
   -7.3137   -0.7962    8.2299 C   0  0  0  0  0  0  0  0  0  0  0  0
   -6.2504   -1.2171    7.4242 C   0  0  0  0  0  0  0  0  0  0  0  0
   -4.3474   -0.5021    7.8134 I   0  0  0  0  0  0  0  0  0  0  0  0
   -7.7967    0.9660    1.7946 H   0  0  0  0  0  0  0  0  0  0  0  0
   -8.9607    0.2109    2.7965 H   0  0  0  0  0  0  0  0  0  0  0  0
   -8.8498   -0.4492    1.2053 H   0  0  0  0  0  0  0  0  0  0  0  0
   -5.7968   -1.6029    1.4112 H   0  0  0  0  0  0  0  0  0  0  0  0
   -6.1305    0.0634    1.1586 H   0  0  0  0  0  0  0  0  0  0  0  0
   -7.2159   -1.2838    0.4923 H   0  0  0  0  0  0  0  0  0  0  0  0
   -4.9037   -2.3549    3.6012 H   0  0  0  0  0  0  0  0  0  0  0  0
   -6.5181   -2.9769    3.8550 H   0  0  0  0  0  0  0  0  0  0  0  0
   -7.8476   -3.6416    5.6454 H   0  0  0  0  0  0  0  0  0  0  0  0
   -9.7014   -0.0850    9.2278 H   0  0  0  0  0  0  0  0  0  0  0  0
  -10.4607   -1.5899    8.8416 H   0  0  0  0  0  0  0  0  0  0  0  0
   -7.1625   -0.0478    9.0005 H   0  0  0  0  0  0  0  0  0  0  0  0
  1  2  1  0
  2  3  1  0
  2  4  1  0
  4  5  2  0
  4  6  1  0
  6  7  1  0
  7  8  1  0
  8  9  2  0
  9 10  1  0
 10 11  1  0
 10 12  2  0
 12 13  1  0
 12 14  1  0
 14 15  2  0
 15 16  1  0
 15  8  1  0
  1 17  1  0
  1 18  1  0
  1 19  1  0
  3 20  1  0
  3 21  1  0
  3 22  1  0
  6 23  1  0
  6 24  1  0
  9 25  1  0
 13 26  1  0
 13 27  1  0
 14 28  1  0
M  END
>  <Energy>  (901) 
138.74988141071506

>  <compound_id>  (901) 
1191

>  <target_id>  (901) 
1

>  <reference_id>  (901) 
84

>  <inspiration_ids>  (901) 
[84, 169]

>  <energy_score>  (901) 
64.10933127675457

>  <distance_score>  (901) 
2.549224969054809

>  <path>  (901) 
/opt/xchem-fragalysis-2/maxwin/BulkDock/SCRATCH/505733/C1191-P84/C1191-P84.minimised.mol

>  <scratch_subdir>  (901) 
/opt/xchem-fragalysis-2/maxwin/BulkDock/SCRATCH/505733/C1191-P84

>  <fragmenstein_runtime>  (901) 
2.3358919620513916

>  <fragmenstein_outcome>  (901) 
too moved

>  <fragmenstein_mode>  (901) 
expansion

>  <fragmenstein_error>  (901) 


$$$$
C1191-P169
     RDKit          3D

 28 28  0  0  0  0  0  0  0  0999 V2000
   -7.0198   -0.9756    1.0524 C   0  0  0  0  0  0  0  0  0  0  0  0
   -6.4060   -1.7514    2.1712 N   0  0  0  0  0  0  0  0  0  0  0  0
   -5.2451   -1.7280    1.2088 C   0  0  0  0  0  0  0  0  0  0  0  0
   -5.9756   -1.3093    3.5666 C   0  0  0  0  0  0  0  0  0  0  0  0
   -5.9552   -0.2375    4.0531 O   0  0  0  0  0  0  0  0  0  0  0  0
   -5.6128   -2.6095    4.3298 C   0  0  0  0  0  0  0  0  0  0  0  0
   -5.3057   -2.4684    5.7155 O   0  0  0  0  0  0  0  0  0  0  0  0
   -6.3851   -2.1530    6.5010 C   0  0  0  0  0  0  0  0  0  0  0  0
   -7.5489   -2.9139    6.4546 C   0  0  0  0  0  0  0  0  0  0  0  0
   -8.6224   -2.5699    7.2618 C   0  0  0  0  0  0  0  0  0  0  0  0
   -9.7444   -3.2925    7.1608 F   0  0  0  0  0  0  0  0  0  0  0  0
   -8.5566   -1.5065    8.1684 C   0  0  0  0  0  0  0  0  0  0  0  0
   -9.6933   -1.1179    8.9145 N   0  0  0  0  0  0  0  0  0  0  0  0
   -7.3987   -0.7311    8.2028 C   0  0  0  0  0  0  0  0  0  0  0  0
   -6.2992   -1.0846    7.4076 C   0  0  0  0  0  0  0  0  0  0  0  0
   -4.5295   -0.0182    7.6430 I   0  0  0  0  0  0  0  0  0  0  0  0
   -6.5966    0.0269    0.8852 H   0  0  0  0  0  0  0  0  0  0  0  0
   -8.0211   -0.7402    1.4430 H   0  0  0  0  0  0  0  0  0  0  0  0
   -7.2315   -1.5537    0.1410 H   0  0  0  0  0  0  0  0  0  0  0  0
   -4.4684   -2.3314    1.6967 H   0  0  0  0  0  0  0  0  0  0  0  0
   -4.7622   -0.7436    1.1066 H   0  0  0  0  0  0  0  0  0  0  0  0
   -5.4030   -2.2611    0.2583 H   0  0  0  0  0  0  0  0  0  0  0  0
   -6.3887   -3.3640    4.1592 H   0  0  0  0  0  0  0  0  0  0  0  0
   -4.7095   -3.0143    3.8678 H   0  0  0  0  0  0  0  0  0  0  0  0
   -7.6519   -3.7850    5.8191 H   0  0  0  0  0  0  0  0  0  0  0  0
  -10.2658   -0.4796    8.3671 H   0  0  0  0  0  0  0  0  0  0  0  0
  -10.2637   -1.9641    9.0839 H   0  0  0  0  0  0  0  0  0  0  0  0
   -7.3488    0.1105    8.8884 H   0  0  0  0  0  0  0  0  0  0  0  0
  1  2  1  0
  2  3  1  0
  2  4  1  0
  4  5  2  0
  4  6  1  0
  6  7  1  0
  7  8  1  0
  8  9  2  0
  9 10  1  0
 10 11  1  0
 10 12  2  0
 12 13  1  0
 12 14  1  0
 14 15  2  0
 15 16  1  0
 15  8  1  0
  1 17  1  0
  1 18  1  0
  1 19  1  0
  3 20  1  0
  3 21  1  0
  3 22  1  0
  6 23  1  0
  6 24  1  0
  9 25  1  0
 13 26  1  0
 13 27  1  0
 14 28  1  0
M  END
>  <Energy>  (902) 
139.63908222712431

>  <compound_id>  (902) 
1191

>  <target_id>  (902) 
1

>  <reference_id>  (902) 
169

>  <inspiration_ids>  (902) 
[84, 169]

>  <energy_score>  (902) 
64.99853209316507

>  <distance_score>  (902) 
2.480165602919245

>  <path>  (902) 
/opt/xchem-fragalysis-2/maxwin/BulkDock/SCRATCH/505733/C1191-P169/C1191-P169.minimised.mol

>  <scratch_subdir>  (902) 
/opt/xchem-fragalysis-2/maxwin/BulkDock/SCRATCH/505733/C1191-P169

>  <fragmenstein_runtime>  (902) 
3.489839553833008

>  <fragmenstein_outcome>  (902) 
too moved

>  <fragmenstein_mode>  (902) 
expansion

>  <fragmenstein_error>  (902) 


$$$$
C1192-P84
     RDKit          3D

 46 46  0  0  0  0  0  0  0  0999 V2000
  -11.9386    3.6414   11.9771 C   0  0  0  0  0  0  0  0  0  0  0  0
  -10.5449    3.6177   11.4032 N   0  0  0  0  0  0  0  0  0  0  0  0
  -10.3865    4.7933   12.3069 C   0  0  0  0  0  0  0  0  0  0  0  0
  -10.5998    3.5377    9.9751 C   0  0  0  0  0  0  0  0  0  0  0  0
  -10.6220    4.4075    9.1432 O   0  0  0  0  0  0  0  0  0  0  0  0
  -10.5350    2.0489    9.5770 C   0  0  0  0  0  0  0  0  0  0  0  0
  -10.5509    1.9234    8.1519 O   0  0  0  0  0  0  0  0  0  0  0  0
  -10.1456    0.6758    7.7701 C   0  0  0  0  0  0  0  0  0  0  0  0
  -11.1200   -0.3022    7.5936 C   0  0  0  0  0  0  0  0  0  0  0  0
  -10.7555   -1.5370    7.0641 C   0  0  0  0  0  0  0  0  0  0  0  0
  -11.7167   -2.4424    6.8137 F   0  0  0  0  0  0  0  0  0  0  0  0
   -9.4325   -1.8232    6.7030 C   0  0  0  0  0  0  0  0  0  0  0  0
   -9.0492   -3.0907    6.2327 N   0  0  0  0  0  0  0  0  0  0  0  0
   -8.4592   -0.8660    6.9617 C   0  0  0  0  0  0  0  0  0  0  0  0
   -8.8140    0.4086    7.4351 C   0  0  0  0  0  0  0  0  0  0  0  0
   -7.7211    1.4196    7.3886 C   0  0  0  0  0  0  0  0  0  0  0  0
   -6.6348    1.0114    7.6770 O   0  0  0  0  0  0  0  0  0  0  0  0
   -8.1383    2.6919    6.9144 N   0  0  0  0  0  0  0  0  0  0  0  0
   -7.3649    3.8793    6.5343 C   0  0  0  0  0  0  0  0  0  0  0  0
   -8.3385    4.9438    6.0005 C   0  0  0  0  0  0  0  0  0  0  0  0
   -6.3929    3.4789    5.3846 C   0  0  0  0  0  0  0  0  0  0  0  0
   -5.4221    2.4796    5.7288 O   0  0  0  0  0  0  0  0  0  0  0  0
   -6.5687    4.4472    7.7291 C   0  0  0  0  0  0  0  0  0  0  0  0
   -5.8608    5.6332    7.3690 O   0  0  0  0  0  0  0  0  0  0  0  0
  -12.4658    2.7942   11.5151 H   0  0  0  0  0  0  0  0  0  0  0  0
  -11.9902    3.4087   13.0487 H   0  0  0  0  0  0  0  0  0  0  0  0
  -12.5463    4.5069   11.6695 H   0  0  0  0  0  0  0  0  0  0  0  0
   -9.3488    5.1099   12.1258 H   0  0  0  0  0  0  0  0  0  0  0  0
  -10.9633    5.6846   12.0177 H   0  0  0  0  0  0  0  0  0  0  0  0
  -10.4040    4.5573   13.3791 H   0  0  0  0  0  0  0  0  0  0  0  0
  -11.4076    1.5290    9.9867 H   0  0  0  0  0  0  0  0  0  0  0  0
   -9.6186    1.6220   10.0004 H   0  0  0  0  0  0  0  0  0  0  0  0
  -12.1617   -0.1064    7.8231 H   0  0  0  0  0  0  0  0  0  0  0  0
   -9.8388   -3.5897    5.8256 H   0  0  0  0  0  0  0  0  0  0  0  0
   -8.2261   -3.0643    5.6401 H   0  0  0  0  0  0  0  0  0  0  0  0
   -7.4188   -1.0819    6.7255 H   0  0  0  0  0  0  0  0  0  0  0  0
   -9.1550    2.7060    6.8547 H   0  0  0  0  0  0  0  0  0  0  0  0
   -8.9365    4.5500    5.1702 H   0  0  0  0  0  0  0  0  0  0  0  0
   -7.8120    5.8330    5.6376 H   0  0  0  0  0  0  0  0  0  0  0  0
   -9.0390    5.2604    6.7817 H   0  0  0  0  0  0  0  0  0  0  0  0
   -5.8399    4.3506    5.0184 H   0  0  0  0  0  0  0  0  0  0  0  0
   -6.9619    3.0778    4.5376 H   0  0  0  0  0  0  0  0  0  0  0  0
   -5.7261    2.0385    6.5537 H   0  0  0  0  0  0  0  0  0  0  0  0
   -7.2437    4.7007    8.5531 H   0  0  0  0  0  0  0  0  0  0  0  0
   -5.8395    3.7181    8.0948 H   0  0  0  0  0  0  0  0  0  0  0  0
   -5.1634    5.7497    8.0397 H   0  0  0  0  0  0  0  0  0  0  0  0
  1  2  1  0
  2  3  1  0
  2  4  1  0
  4  5  2  0
  4  6  1  0
  6  7  1  0
  7  8  1  0
  8  9  2  0
  9 10  1  0
 10 11  1  0
 10 12  2  0
 12 13  1  0
 12 14  1  0
 14 15  2  0
 15 16  1  0
 16 17  2  0
 16 18  1  0
 18 19  1  0
 19 20  1  0
 19 21  1  0
 21 22  1  0
 19 23  1  0
 23 24  1  0
 15  8  1  0
  1 25  1  0
  1 26  1  0
  1 27  1  0
  3 28  1  0
  3 29  1  0
  3 30  1  0
  6 31  1  0
  6 32  1  0
  9 33  1  0
 13 34  1  0
 13 35  1  0
 14 36  1  0
 18 37  1  0
 20 38  1  0
 20 39  1  0
 20 40  1  0
 21 41  1  0
 21 42  1  0
 22 43  1  0
 23 44  1  0
 23 45  1  0
 24 46  1  0
M  END
>  <Energy>  (903) 
161.48676544514666

>  <compound_id>  (903) 
1192

>  <target_id>  (903) 
1

>  <reference_id>  (903) 
84

>  <inspiration_ids>  (903) 
[84, 179]

>  <energy_score>  (903) 
14.524165469935667

>  <distance_score>  (903) 
3.3657879496303087

>  <path>  (903) 
/opt/xchem-fragalysis-2/maxwin/BulkDock/SCRATCH/505733/C1192-P84/C1192-P84.minimised.mol

>  <scratch_subdir>  (903) 
/opt/xchem-fragalysis-2/maxwin/BulkDock/SCRATCH/505733/C1192-P84

>  <fragmenstein_runtime>  (903) 
7.820266962051392

>  <fragmenstein_outcome>  (903) 
too moved

>  <fragmenstein_mode>  (903) 
expansion

>  <fragmenstein_error>  (903) 


$$$$
C1192-P179
     RDKit          3D

 46 46  0  0  0  0  0  0  0  0999 V2000
  -11.7979    2.8254   12.4435 C   0  0  0  0  0  0  0  0  0  0  0  0
  -12.7943    2.0814   11.5904 N   0  0  0  0  0  0  0  0  0  0  0  0
  -13.7082    2.4690   12.7038 C   0  0  0  0  0  0  0  0  0  0  0  0
  -12.2677    0.8027   11.2149 C   0  0  0  0  0  0  0  0  0  0  0  0
  -12.3574   -0.2687   11.7556 O   0  0  0  0  0  0  0  0  0  0  0  0
  -11.5754    0.9060    9.8335 C   0  0  0  0  0  0  0  0  0  0  0  0
  -10.2138    1.3265    9.9103 O   0  0  0  0  0  0  0  0  0  0  0  0
   -9.8976    2.1916    8.8986 C   0  0  0  0  0  0  0  0  0  0  0  0
  -10.2483    3.5346    9.0604 C   0  0  0  0  0  0  0  0  0  0  0  0
   -9.8804    4.4694    8.1005 C   0  0  0  0  0  0  0  0  0  0  0  0
  -10.2258    5.7544    8.2791 F   0  0  0  0  0  0  0  0  0  0  0  0
   -9.1506    4.1056    6.9678 C   0  0  0  0  0  0  0  0  0  0  0  0
   -8.8742    5.0192    5.9445 N   0  0  0  0  0  0  0  0  0  0  0  0
   -8.8767    2.7589    6.7752 C   0  0  0  0  0  0  0  0  0  0  0  0
   -9.1665    1.8042    7.7697 C   0  0  0  0  0  0  0  0  0  0  0  0
   -8.6857    0.4084    7.5241 C   0  0  0  0  0  0  0  0  0  0  0  0
   -9.4226   -0.4940    7.7837 O   0  0  0  0  0  0  0  0  0  0  0  0
   -7.3935    0.4123    6.9057 N   0  0  0  0  0  0  0  0  0  0  0  0
   -6.5284   -0.6853    6.4850 C   0  0  0  0  0  0  0  0  0  0  0  0
   -5.4324   -0.8551    7.5413 C   0  0  0  0  0  0  0  0  0  0  0  0
   -7.2957   -2.0025    6.2462 C   0  0  0  0  0  0  0  0  0  0  0  0
   -7.7492   -2.6125    7.4445 O   0  0  0  0  0  0  0  0  0  0  0  0
   -5.9022   -0.2588    5.1305 C   0  0  0  0  0  0  0  0  0  0  0  0
   -5.3876    1.0759    5.1978 O   0  0  0  0  0  0  0  0  0  0  0  0
  -11.9918    3.9047   12.5331 H   0  0  0  0  0  0  0  0  0  0  0  0
  -11.5604    2.3294   13.3976 H   0  0  0  0  0  0  0  0  0  0  0  0
  -10.8447    2.7856   11.9050 H   0  0  0  0  0  0  0  0  0  0  0  0
  -14.6701    2.0293   12.4015 H   0  0  0  0  0  0  0  0  0  0  0  0
  -13.9243    3.5445   12.7770 H   0  0  0  0  0  0  0  0  0  0  0  0
  -13.5086    1.9671   13.6627 H   0  0  0  0  0  0  0  0  0  0  0  0
  -12.1930    1.5512    9.1925 H   0  0  0  0  0  0  0  0  0  0  0  0
  -11.5983   -0.0946    9.3847 H   0  0  0  0  0  0  0  0  0  0  0  0
  -10.7989    3.8722    9.9295 H   0  0  0  0  0  0  0  0  0  0  0  0
   -8.8861    5.9846    6.2701 H   0  0  0  0  0  0  0  0  0  0  0  0
   -8.0562    4.8023    5.3854 H   0  0  0  0  0  0  0  0  0  0  0  0
   -8.4200    2.4542    5.8353 H   0  0  0  0  0  0  0  0  0  0  0  0
   -7.0223    1.3560    6.9202 H   0  0  0  0  0  0  0  0  0  0  0  0
   -4.8232    0.0510    7.6388 H   0  0  0  0  0  0  0  0  0  0  0  0
   -4.7619   -1.6834    7.2894 H   0  0  0  0  0  0  0  0  0  0  0  0
   -5.8681   -1.0465    8.5254 H   0  0  0  0  0  0  0  0  0  0  0  0
   -6.6401   -2.7321    5.7571 H   0  0  0  0  0  0  0  0  0  0  0  0
   -8.1590   -1.8517    5.5875 H   0  0  0  0  0  0  0  0  0  0  0  0
   -8.4831   -2.0504    7.7897 H   0  0  0  0  0  0  0  0  0  0  0  0
   -6.6644   -0.2546    4.3430 H   0  0  0  0  0  0  0  0  0  0  0  0
   -5.1015   -0.9394    4.8188 H   0  0  0  0  0  0  0  0  0  0  0  0
   -4.4137    1.0121    5.2426 H   0  0  0  0  0  0  0  0  0  0  0  0
  1  2  1  0
  2  3  1  0
  2  4  1  0
  4  5  2  0
  4  6  1  0
  6  7  1  0
  7  8  1  0
  8  9  2  0
  9 10  1  0
 10 11  1  0
 10 12  2  0
 12 13  1  0
 12 14  1  0
 14 15  2  0
 15 16  1  0
 16 17  2  0
 16 18  1  0
 18 19  1  0
 19 20  1  0
 19 21  1  0
 21 22  1  0
 19 23  1  0
 23 24  1  0
 15  8  1  0
  1 25  1  0
  1 26  1  0
  1 27  1  0
  3 28  1  0
  3 29  1  0
  3 30  1  0
  6 31  1  0
  6 32  1  0
  9 33  1  0
 13 34  1  0
 13 35  1  0
 14 36  1  0
 18 37  1  0
 20 38  1  0
 20 39  1  0
 20 40  1  0
 21 41  1  0
 21 42  1  0
 22 43  1  0
 23 44  1  0
 23 45  1  0
 24 46  1  0
M  END
>  <Energy>  (904) 
165.75238603741499

>  <compound_id>  (904) 
1192

>  <target_id>  (904) 
1

>  <reference_id>  (904) 
179

>  <inspiration_ids>  (904) 
[84, 179]

>  <energy_score>  (904) 
18.789786062205394

>  <distance_score>  (904) 
3.2840507838509114

>  <path>  (904) 
/opt/xchem-fragalysis-2/maxwin/BulkDock/SCRATCH/505733/C1192-P179/C1192-P179.minimised.mol

>  <scratch_subdir>  (904) 
/opt/xchem-fragalysis-2/maxwin/BulkDock/SCRATCH/505733/C1192-P179

>  <fragmenstein_runtime>  (904) 
8.350296020507812

>  <fragmenstein_outcome>  (904) 
too moved

>  <fragmenstein_mode>  (904) 
expansion

>  <fragmenstein_error>  (904) 


$$$$
C1194-P84
     RDKit          3D

 47 48  0  0  0  0  0  0  0  0999 V2000
   -7.9934    4.4374    5.4015 C   0  0  0  0  0  0  0  0  0  0  0  0
   -7.5539    3.5996    4.2471 N   0  0  0  0  0  0  0  0  0  0  0  0
   -7.2045    4.9510    3.6809 C   0  0  0  0  0  0  0  0  0  0  0  0
   -6.4434    2.7044    4.1104 C   0  0  0  0  0  0  0  0  0  0  0  0
   -5.5305    2.4678    4.8615 O   0  0  0  0  0  0  0  0  0  0  0  0
   -6.5936    1.9519    2.7656 C   0  0  0  0  0  0  0  0  0  0  0  0
   -5.8672    0.7361    2.6620 O   0  0  0  0  0  0  0  0  0  0  0  0
   -6.2891   -0.3099    3.4324 C   0  0  0  0  0  0  0  0  0  0  0  0
   -5.2860   -1.1667    3.8598 C   0  0  0  0  0  0  0  0  0  0  0  0
   -5.6109   -2.2815    4.6201 C   0  0  0  0  0  0  0  0  0  0  0  0
   -4.6193   -3.0858    5.0347 F   0  0  0  0  0  0  0  0  0  0  0  0
   -6.9385   -2.6102    4.9417 C   0  0  0  0  0  0  0  0  0  0  0  0
   -7.1781   -3.7266    5.7641 N   0  0  0  0  0  0  0  0  0  0  0  0
   -7.9516   -1.7034    4.5794 C   0  0  0  0  0  0  0  0  0  0  0  0
   -9.3951   -1.8647    5.0245 C   0  0  0  0  0  0  0  0  0  0  0  0
   -9.8217   -1.0845    6.1961 N   0  0  0  0  0  0  0  0  0  0  0  0
   -9.1013   -1.3986    7.4399 C   0  0  0  0  0  0  0  0  0  0  0  0
   -8.2266   -0.2503    7.9309 C   0  0  0  0  0  0  0  0  0  0  0  0
   -9.0886    0.9809    8.2050 C   0  0  0  0  0  0  0  0  0  0  0  0
   -8.2882    2.1524    8.0856 O   0  0  0  0  0  0  0  0  0  0  0  0
  -10.2704    1.1052    7.2434 C   0  0  0  0  0  0  0  0  0  0  0  0
   -9.9944    0.3483    5.9469 C   0  0  0  0  0  0  0  0  0  0  0  0
   -7.6121   -0.5842    3.7794 C   0  0  0  0  0  0  0  0  0  0  0  0
   -7.1758    4.9212    5.9564 H   0  0  0  0  0  0  0  0  0  0  0  0
   -8.3712    3.6958    6.1145 H   0  0  0  0  0  0  0  0  0  0  0  0
   -8.8675    5.0767    5.2112 H   0  0  0  0  0  0  0  0  0  0  0  0
   -6.8187    4.7565    2.6695 H   0  0  0  0  0  0  0  0  0  0  0  0
   -6.3571    5.4457    4.1815 H   0  0  0  0  0  0  0  0  0  0  0  0
   -8.0651    5.6115    3.4966 H   0  0  0  0  0  0  0  0  0  0  0  0
   -6.1736    2.6143    1.9992 H   0  0  0  0  0  0  0  0  0  0  0  0
   -7.6473    1.8140    2.5004 H   0  0  0  0  0  0  0  0  0  0  0  0
   -4.2486   -0.9599    3.6236 H   0  0  0  0  0  0  0  0  0  0  0  0
   -6.3939   -4.3726    5.7752 H   0  0  0  0  0  0  0  0  0  0  0  0
   -8.0452   -4.2274    5.5834 H   0  0  0  0  0  0  0  0  0  0  0  0
   -9.6191   -2.9213    5.2110 H   0  0  0  0  0  0  0  0  0  0  0  0
  -10.0472   -1.6177    4.1750 H   0  0  0  0  0  0  0  0  0  0  0  0
   -9.8585   -1.6007    8.2069 H   0  0  0  0  0  0  0  0  0  0  0  0
   -8.5206   -2.3206    7.3773 H   0  0  0  0  0  0  0  0  0  0  0  0
   -7.4408   -0.0227    7.1992 H   0  0  0  0  0  0  0  0  0  0  0  0
   -7.6996   -0.5359    8.8486 H   0  0  0  0  0  0  0  0  0  0  0  0
   -9.4761    0.9557    9.2304 H   0  0  0  0  0  0  0  0  0  0  0  0
   -7.6627    2.1511    8.8353 H   0  0  0  0  0  0  0  0  0  0  0  0
  -10.4873    2.1562    7.0198 H   0  0  0  0  0  0  0  0  0  0  0  0
  -11.1696    0.6849    7.7126 H   0  0  0  0  0  0  0  0  0  0  0  0
   -9.1122    0.7988    5.4822 H   0  0  0  0  0  0  0  0  0  0  0  0
  -10.8359    0.4960    5.2604 H   0  0  0  0  0  0  0  0  0  0  0  0
   -8.4131    0.0663    3.4429 H   0  0  0  0  0  0  0  0  0  0  0  0
  1  2  1  0
  2  3  1  0
  2  4  1  0
  4  5  2  0
  4  6  1  0
  6  7  1  0
  7  8  1  0
  8  9  2  0
  9 10  1  0
 10 11  1  0
 10 12  2  0
 12 13  1  0
 12 14  1  0
 14 15  1  0
 15 16  1  0
 16 17  1  0
 17 18  1  0
 18 19  1  0
 19 20  1  0
 19 21  1  0
 21 22  1  0
 14 23  2  0
 23  8  1  0
 22 16  1  0
  1 24  1  0
  1 25  1  0
  1 26  1  0
  3 27  1  0
  3 28  1  0
  3 29  1  0
  6 30  1  0
  6 31  1  0
  9 32  1  0
 13 33  1  0
 13 34  1  0
 15 35  1  0
 15 36  1  0
 17 37  1  0
 17 38  1  0
 18 39  1  0
 18 40  1  0
 19 41  1  0
 20 42  1  0
 21 43  1  0
 21 44  1  0
 22 45  1  0
 22 46  1  0
 23 47  1  0
M  END
>  <Energy>  (905) 
131.68674251446944

>  <compound_id>  (905) 
1194

>  <target_id>  (905) 
1

>  <reference_id>  (905) 
84

>  <inspiration_ids>  (905) 
[84, 182]

>  <energy_score>  (905) 
-15.792592473095738

>  <distance_score>  (905) 
3.154740209316545

>  <path>  (905) 
/opt/xchem-fragalysis-2/maxwin/BulkDock/SCRATCH/505733/C1194-P84/C1194-P84.minimised.mol

>  <scratch_subdir>  (905) 
/opt/xchem-fragalysis-2/maxwin/BulkDock/SCRATCH/505733/C1194-P84

>  <fragmenstein_runtime>  (905) 
7.090274095535278

>  <fragmenstein_outcome>  (905) 
too moved

>  <fragmenstein_mode>  (905) 
expansion

>  <fragmenstein_error>  (905) 


$$$$
C1194-P182
     RDKit          3D

 47 48  0  0  0  0  0  0  0  0999 V2000
   -6.2534    5.9732    2.4508 C   0  0  0  0  0  0  0  0  0  0  0  0
   -6.5639    4.5450    2.7492 N   0  0  0  0  0  0  0  0  0  0  0  0
   -6.3931    4.4235    1.2566 C   0  0  0  0  0  0  0  0  0  0  0  0
   -5.7945    3.5426    3.4164 C   0  0  0  0  0  0  0  0  0  0  0  0
   -4.6608    3.5695    3.8300 O   0  0  0  0  0  0  0  0  0  0  0  0
   -6.6483    2.2800    3.6074 C   0  0  0  0  0  0  0  0  0  0  0  0
   -6.2417    1.3098    2.6423 O   0  0  0  0  0  0  0  0  0  0  0  0
   -6.3052    0.0069    3.0488 C   0  0  0  0  0  0  0  0  0  0  0  0
   -5.4168   -0.8636    2.4367 C   0  0  0  0  0  0  0  0  0  0  0  0
   -5.3821   -2.1922    2.8405 C   0  0  0  0  0  0  0  0  0  0  0  0
   -4.5195   -3.0276    2.2406 F   0  0  0  0  0  0  0  0  0  0  0  0
   -6.2147   -2.6966    3.8533 C   0  0  0  0  0  0  0  0  0  0  0  0
   -6.0104   -4.0047    4.3071 N   0  0  0  0  0  0  0  0  0  0  0  0
   -7.0712   -1.8058    4.5119 C   0  0  0  0  0  0  0  0  0  0  0  0
   -7.8633   -2.2427    5.7362 C   0  0  0  0  0  0  0  0  0  0  0  0
   -8.3713   -1.1137    6.5275 N   0  0  0  0  0  0  0  0  0  0  0  0
   -7.2920   -0.4514    7.2810 C   0  0  0  0  0  0  0  0  0  0  0  0
   -7.8344    0.8534    7.8419 C   0  0  0  0  0  0  0  0  0  0  0  0
   -9.0037    0.5840    8.7771 C   0  0  0  0  0  0  0  0  0  0  0  0
   -9.5813    1.8155    9.1948 O   0  0  0  0  0  0  0  0  0  0  0  0
  -10.0637   -0.2588    8.0792 C   0  0  0  0  0  0  0  0  0  0  0  0
   -9.4567   -1.5062    7.4354 C   0  0  0  0  0  0  0  0  0  0  0  0
   -7.1721   -0.4809    4.0257 C   0  0  0  0  0  0  0  0  0  0  0  0
   -5.2301    6.1645    2.0939 H   0  0  0  0  0  0  0  0  0  0  0  0
   -6.2524    6.4426    3.4455 H   0  0  0  0  0  0  0  0  0  0  0  0
   -7.0425    6.5118    1.9068 H   0  0  0  0  0  0  0  0  0  0  0  0
   -6.6296    3.3766    1.0175 H   0  0  0  0  0  0  0  0  0  0  0  0
   -5.3520    4.5321    0.9140 H   0  0  0  0  0  0  0  0  0  0  0  0
   -7.1241    4.9853    0.6553 H   0  0  0  0  0  0  0  0  0  0  0  0
   -7.7126    2.5033    3.4747 H   0  0  0  0  0  0  0  0  0  0  0  0
   -6.4762    1.9576    4.6427 H   0  0  0  0  0  0  0  0  0  0  0  0
   -4.7384   -0.5171    1.6652 H   0  0  0  0  0  0  0  0  0  0  0  0
   -5.5005   -4.5814    3.6414 H   0  0  0  0  0  0  0  0  0  0  0  0
   -6.8059   -4.4895    4.7154 H   0  0  0  0  0  0  0  0  0  0  0  0
   -7.2548   -2.8941    6.3764 H   0  0  0  0  0  0  0  0  0  0  0  0
   -8.7006   -2.8410    5.3608 H   0  0  0  0  0  0  0  0  0  0  0  0
   -6.9107   -1.0955    8.0837 H   0  0  0  0  0  0  0  0  0  0  0  0
   -6.4372   -0.2077    6.6416 H   0  0  0  0  0  0  0  0  0  0  0  0
   -8.1511    1.5196    7.0273 H   0  0  0  0  0  0  0  0  0  0  0  0
   -7.0449    1.3966    8.3615 H   0  0  0  0  0  0  0  0  0  0  0  0
   -8.6575    0.0638    9.6754 H   0  0  0  0  0  0  0  0  0  0  0  0
   -8.9010    2.2915    9.7084 H   0  0  0  0  0  0  0  0  0  0  0  0
  -10.5733    0.3451    7.3161 H   0  0  0  0  0  0  0  0  0  0  0  0
  -10.8422   -0.5430    8.7971 H   0  0  0  0  0  0  0  0  0  0  0  0
  -10.2491   -2.0205    6.8784 H   0  0  0  0  0  0  0  0  0  0  0  0
   -9.0912   -2.1992    8.2019 H   0  0  0  0  0  0  0  0  0  0  0  0
   -7.9062    0.1843    4.4738 H   0  0  0  0  0  0  0  0  0  0  0  0
  1  2  1  0
  2  3  1  0
  2  4  1  0
  4  5  2  0
  4  6  1  0
  6  7  1  0
  7  8  1  0
  8  9  2  0
  9 10  1  0
 10 11  1  0
 10 12  2  0
 12 13  1  0
 12 14  1  0
 14 15  1  0
 15 16  1  0
 16 17  1  0
 17 18  1  0
 18 19  1  0
 19 20  1  0
 19 21  1  0
 21 22  1  0
 14 23  2  0
 23  8  1  0
 22 16  1  0
  1 24  1  0
  1 25  1  0
  1 26  1  0
  3 27  1  0
  3 28  1  0
  3 29  1  0
  6 30  1  0
  6 31  1  0
  9 32  1  0
 13 33  1  0
 13 34  1  0
 15 35  1  0
 15 36  1  0
 17 37  1  0
 17 38  1  0
 18 39  1  0
 18 40  1  0
 19 41  1  0
 20 42  1  0
 21 43  1  0
 21 44  1  0
 22 45  1  0
 22 46  1  0
 23 47  1  0
M  END
>  <Energy>  (906) 
121.84916725463074

>  <compound_id>  (906) 
1194

>  <target_id>  (906) 
1

>  <reference_id>  (906) 
182

>  <inspiration_ids>  (906) 
[84, 182]

>  <energy_score>  (906) 
-25.630167732934865

>  <distance_score>  (906) 
3.1674761096795345

>  <path>  (906) 
/opt/xchem-fragalysis-2/maxwin/BulkDock/SCRATCH/505733/C1194-P182/C1194-P182.minimised.mol

>  <scratch_subdir>  (906) 
/opt/xchem-fragalysis-2/maxwin/BulkDock/SCRATCH/505733/C1194-P182

>  <fragmenstein_runtime>  (906) 
8.422508955001831

>  <fragmenstein_outcome>  (906) 
too moved

>  <fragmenstein_mode>  (906) 
expansion

>  <fragmenstein_error>  (906) 


$$$$
C1195-P85
     RDKit          3D

 54 54  0  0  0  0  0  0  0  0999 V2000
   -1.9013  -19.3190    4.0339 C   0  0  0  0  0  0  0  0  0  0  0  0
   -0.7803  -20.3242    4.1084 C   0  0  0  0  0  0  0  0  0  0  0  0
   -0.5331  -21.0188    3.1581 O   0  0  0  0  0  0  0  0  0  0  0  0
   -0.2320  -20.3249    5.4287 N   0  0  0  0  0  0  0  0  0  0  0  0
    0.7333  -21.2521    6.0768 C   0  0  0  0  0  0  0  0  0  0  0  0
    0.9873  -19.3589    5.5021 C   0  0  0  0  0  0  0  0  0  0  0  0
    1.3461  -18.6874    6.8741 C   0  0  0  0  0  0  0  0  0  0  0  0
    1.4121  -17.1396    6.8252 C   0  0  0  0  0  0  0  0  0  0  0  0
    2.0528  -16.3707    8.0039 C   0  0  0  0  0  0  0  0  0  0  0  0
    3.5715  -16.0862    7.9927 C   0  0  0  0  0  0  0  0  0  0  0  0
    3.8986  -14.5889    8.2575 C   0  0  0  0  0  0  0  0  0  0  0  0
    4.1039  -13.6155    7.1021 C   0  0  0  0  0  0  0  0  0  0  0  0
    4.8495  -14.2030    6.1279 F   0  0  0  0  0  0  0  0  0  0  0  0
    2.8874  -12.8901    6.5040 C   0  0  0  0  0  0  0  0  0  0  0  0
    1.8253  -13.7281    5.9639 N   0  0  0  0  0  0  0  0  0  0  0  0
    4.1824  -16.7571    9.1268 O   0  0  0  0  0  0  0  0  0  0  0  0
    4.8472  -18.0007    8.8617 C   0  0  0  0  0  0  0  0  0  0  0  0
    4.0121  -19.2574    9.2444 C   0  0  0  0  0  0  0  0  0  0  0  0
    3.9677  -19.5691   10.6823 N   0  0  0  0  0  0  0  0  0  0  0  0
    3.4104  -18.4790   11.4726 C   0  0  0  0  0  0  0  0  0  0  0  0
    3.1515  -20.7681   10.9107 C   0  0  0  0  0  0  0  0  0  0  0  0
    2.7042  -19.1002    8.7101 O   0  0  0  0  0  0  0  0  0  0  0  0
    2.6504  -19.2552    7.3670 C   0  0  0  0  0  0  0  0  0  0  0  0
    3.5243  -19.7921    6.7023 O   0  0  0  0  0  0  0  0  0  0  0  0
   -2.8580  -19.8440    4.0992 H   0  0  0  0  0  0  0  0  0  0  0  0
   -1.8337  -18.6016    4.8512 H   0  0  0  0  0  0  0  0  0  0  0  0
   -1.8416  -18.7782    3.0858 H   0  0  0  0  0  0  0  0  0  0  0  0
    1.6265  -21.5242    5.4960 H   0  0  0  0  0  0  0  0  0  0  0  0
    0.8870  -21.0803    7.1462 H   0  0  0  0  0  0  0  0  0  0  0  0
    0.1801  -22.2038    6.0702 H   0  0  0  0  0  0  0  0  0  0  0  0
    1.8415  -19.6965    4.8908 H   0  0  0  0  0  0  0  0  0  0  0  0
    0.6352  -18.5184    4.8851 H   0  0  0  0  0  0  0  0  0  0  0  0
    0.5648  -18.9557    7.5986 H   0  0  0  0  0  0  0  0  0  0  0  0
    1.8154  -16.7612    5.8879 H   0  0  0  0  0  0  0  0  0  0  0  0
    0.3652  -16.8214    6.7912 H   0  0  0  0  0  0  0  0  0  0  0  0
    1.5778  -15.3988    7.9466 H   0  0  0  0  0  0  0  0  0  0  0  0
    1.7305  -16.8053    8.9567 H   0  0  0  0  0  0  0  0  0  0  0  0
    4.0494  -16.4015    7.0739 H   0  0  0  0  0  0  0  0  0  0  0  0
    4.8540  -14.5750    8.8031 H   0  0  0  0  0  0  0  0  0  0  0  0
    3.1716  -14.1596    8.9484 H   0  0  0  0  0  0  0  0  0  0  0  0
    4.7412  -12.8173    7.5004 H   0  0  0  0  0  0  0  0  0  0  0  0
    3.2510  -12.2678    5.6819 H   0  0  0  0  0  0  0  0  0  0  0  0
    2.4658  -12.2053    7.2462 H   0  0  0  0  0  0  0  0  0  0  0  0
    1.0274  -13.7213    6.6042 H   0  0  0  0  0  0  0  0  0  0  0  0
    1.4661  -13.2842    5.1118 H   0  0  0  0  0  0  0  0  0  0  0  0
    5.1514  -18.0472    7.8114 H   0  0  0  0  0  0  0  0  0  0  0  0
    5.7770  -18.0015    9.4420 H   0  0  0  0  0  0  0  0  0  0  0  0
    4.5178  -20.1186    8.7854 H   0  0  0  0  0  0  0  0  0  0  0  0
    2.3989  -18.2046   11.1534 H   0  0  0  0  0  0  0  0  0  0  0  0
    4.0461  -17.5924   11.4426 H   0  0  0  0  0  0  0  0  0  0  0  0
    3.3788  -18.7828   12.5248 H   0  0  0  0  0  0  0  0  0  0  0  0
    3.2010  -21.0666   11.9642 H   0  0  0  0  0  0  0  0  0  0  0  0
    3.5385  -21.6150   10.3327 H   0  0  0  0  0  0  0  0  0  0  0  0
    2.0973  -20.6235   10.6474 H   0  0  0  0  0  0  0  0  0  0  0  0
  1  2  1  0
  2  3  2  0
  2  4  1  0
  4  5  1  0
  4  6  1  0
  6  7  1  0
  7  8  1  0
  8  9  1  0
  9 10  1  0
 10 11  1  0
 11 12  1  0
 12 13  1  0
 12 14  1  0
 14 15  1  0
 10 16  1  0
 16 17  1  0
 17 18  1  0
 18 19  1  0
 19 20  1  0
 19 21  1  0
 18 22  1  0
 22 23  1  0
 23 24  2  0
 23  7  1  0
  1 25  1  0
  1 26  1  0
  1 27  1  0
  5 28  1  0
  5 29  1  0
  5 30  1  0
  6 31  1  0
  6 32  1  0
  7 33  1  0
  8 34  1  0
  8 35  1  0
  9 36  1  0
  9 37  1  0
 10 38  1  0
 11 39  1  0
 11 40  1  0
 12 41  1  0
 14 42  1  0
 14 43  1  0
 15 44  1  0
 15 45  1  0
 17 46  1  0
 17 47  1  0
 18 48  1  0
 20 49  1  0
 20 50  1  0
 20 51  1  0
 21 52  1  0
 21 53  1  0
 21 54  1  0
M  END
>  <Energy>  (907) 
130.28874772045614

>  <compound_id>  (907) 
1195

>  <target_id>  (907) 
1

>  <reference_id>  (907) 
85

>  <inspiration_ids>  (907) 
[85, 67]

>  <energy_score>  (907) 
-89.70928828238667

>  <distance_score>  (907) 
3.0652297273629334

>  <path>  (907) 
/opt/xchem-fragalysis-2/maxwin/BulkDock/SCRATCH/505733/C1195-P85/C1195-P85.minimised.mol

>  <scratch_subdir>  (907) 
/opt/xchem-fragalysis-2/maxwin/BulkDock/SCRATCH/505733/C1195-P85

>  <fragmenstein_runtime>  (907) 
17.361194133758545

>  <fragmenstein_outcome>  (907) 
too moved

>  <fragmenstein_mode>  (907) 
expansion

>  <fragmenstein_error>  (907) 


$$$$
C1195-P67
     RDKit          3D

 54 54  0  0  0  0  0  0  0  0999 V2000
    3.0748  -22.8324   10.8210 C   0  0  0  0  0  0  0  0  0  0  0  0
    3.5085  -22.3855   12.2038 C   0  0  0  0  0  0  0  0  0  0  0  0
    3.9207  -23.1911   12.9976 O   0  0  0  0  0  0  0  0  0  0  0  0
    3.3432  -20.9701   12.3163 N   0  0  0  0  0  0  0  0  0  0  0  0
    3.5219  -20.0601   13.4831 C   0  0  0  0  0  0  0  0  0  0  0  0
    4.5964  -20.2603   11.8464 C   0  0  0  0  0  0  0  0  0  0  0  0
    4.3920  -18.9697   10.9946 C   0  0  0  0  0  0  0  0  0  0  0  0
    3.0062  -18.6700   10.3798 C   0  0  0  0  0  0  0  0  0  0  0  0
    3.0060  -17.3252    9.5994 C   0  0  0  0  0  0  0  0  0  0  0  0
    3.0607  -17.3624    8.0655 C   0  0  0  0  0  0  0  0  0  0  0  0
    1.7452  -17.0670    7.3661 C   0  0  0  0  0  0  0  0  0  0  0  0
    0.5838  -17.7883    8.0088 C   0  0  0  0  0  0  0  0  0  0  0  0
    0.0514  -16.9576    8.9574 F   0  0  0  0  0  0  0  0  0  0  0  0
   -0.4997  -18.1566    6.9980 C   0  0  0  0  0  0  0  0  0  0  0  0
   -1.8296  -18.1034    7.6177 N   0  0  0  0  0  0  0  0  0  0  0  0
    3.4464  -18.6493    7.6085 O   0  0  0  0  0  0  0  0  0  0  0  0
    4.7850  -18.7166    7.1198 C   0  0  0  0  0  0  0  0  0  0  0  0
    5.4175  -19.9963    7.6978 C   0  0  0  0  0  0  0  0  0  0  0  0
    6.7563  -20.3607    7.2449 N   0  0  0  0  0  0  0  0  0  0  0  0
    7.7958  -19.4424    7.6942 C   0  0  0  0  0  0  0  0  0  0  0  0
    6.7872  -20.4814    5.7896 C   0  0  0  0  0  0  0  0  0  0  0  0
    5.2636  -20.0715    9.1262 O   0  0  0  0  0  0  0  0  0  0  0  0
    5.4030  -18.9545    9.8760 C   0  0  0  0  0  0  0  0  0  0  0  0
    6.1372  -18.0005    9.6485 O   0  0  0  0  0  0  0  0  0  0  0  0
    3.9536  -23.1625   10.2605 H   0  0  0  0  0  0  0  0  0  0  0  0
    2.3686  -23.6617   10.9196 H   0  0  0  0  0  0  0  0  0  0  0  0
    2.5835  -22.0288   10.2649 H   0  0  0  0  0  0  0  0  0  0  0  0
    4.3260  -20.3785   14.1640 H   0  0  0  0  0  0  0  0  0  0  0  0
    2.6173  -20.2433   14.0812 H   0  0  0  0  0  0  0  0  0  0  0  0
    3.4935  -18.9845   13.2881 H   0  0  0  0  0  0  0  0  0  0  0  0
    5.0606  -21.0027   11.1802 H   0  0  0  0  0  0  0  0  0  0  0  0
    5.4380  -20.1596   12.5599 H   0  0  0  0  0  0  0  0  0  0  0  0
    4.6261  -18.1336   11.6533 H   0  0  0  0  0  0  0  0  0  0  0  0
    2.6637  -19.5027    9.7576 H   0  0  0  0  0  0  0  0  0  0  0  0
    2.2792  -18.5790   11.1962 H   0  0  0  0  0  0  0  0  0  0  0  0
    2.1604  -16.7125    9.9274 H   0  0  0  0  0  0  0  0  0  0  0  0
    3.8906  -16.7614    9.8982 H   0  0  0  0  0  0  0  0  0  0  0  0
    3.7636  -16.5923    7.7218 H   0  0  0  0  0  0  0  0  0  0  0  0
    1.8274  -17.4018    6.3303 H   0  0  0  0  0  0  0  0  0  0  0  0
    1.5705  -15.9887    7.3623 H   0  0  0  0  0  0  0  0  0  0  0  0
    0.8812  -18.7058    8.5244 H   0  0  0  0  0  0  0  0  0  0  0  0
   -0.3128  -19.1579    6.5940 H   0  0  0  0  0  0  0  0  0  0  0  0
   -0.4945  -17.4976    6.1400 H   0  0  0  0  0  0  0  0  0  0  0  0
   -1.7263  -17.4576    8.4215 H   0  0  0  0  0  0  0  0  0  0  0  0
   -1.9294  -18.9660    8.1766 H   0  0  0  0  0  0  0  0  0  0  0  0
    4.7219  -18.7702    6.0295 H   0  0  0  0  0  0  0  0  0  0  0  0
    5.3665  -17.8256    7.3730 H   0  0  0  0  0  0  0  0  0  0  0  0
    4.7590  -20.8119    7.3679 H   0  0  0  0  0  0  0  0  0  0  0  0
    7.9185  -19.4893    8.7800 H   0  0  0  0  0  0  0  0  0  0  0  0
    7.6168  -18.4064    7.3890 H   0  0  0  0  0  0  0  0  0  0  0  0
    8.7686  -19.7411    7.2847 H   0  0  0  0  0  0  0  0  0  0  0  0
    5.9970  -21.1493    5.4281 H   0  0  0  0  0  0  0  0  0  0  0  0
    6.6941  -19.5180    5.2762 H   0  0  0  0  0  0  0  0  0  0  0  0
    7.7347  -20.9324    5.4721 H   0  0  0  0  0  0  0  0  0  0  0  0
  1  2  1  0
  2  3  2  0
  2  4  1  0
  4  5  1  0
  4  6  1  0
  6  7  1  0
  7  8  1  0
  8  9  1  0
  9 10  1  0
 10 11  1  0
 11 12  1  0
 12 13  1  0
 12 14  1  0
 14 15  1  0
 10 16  1  0
 16 17  1  0
 17 18  1  0
 18 19  1  0
 19 20  1  0
 19 21  1  0
 18 22  1  0
 22 23  1  0
 23 24  2  0
 23  7  1  0
  1 25  1  0
  1 26  1  0
  1 27  1  0
  5 28  1  0
  5 29  1  0
  5 30  1  0
  6 31  1  0
  6 32  1  0
  7 33  1  0
  8 34  1  0
  8 35  1  0
  9 36  1  0
  9 37  1  0
 10 38  1  0
 11 39  1  0
 11 40  1  0
 12 41  1  0
 14 42  1  0
 14 43  1  0
 15 44  1  0
 15 45  1  0
 17 46  1  0
 17 47  1  0
 18 48  1  0
 20 49  1  0
 20 50  1  0
 20 51  1  0
 21 52  1  0
 21 53  1  0
 21 54  1  0
M  END
>  <Energy>  (908) 
134.40370291721226

>  <compound_id>  (908) 
1195

>  <target_id>  (908) 
1

>  <reference_id>  (908) 
67

>  <inspiration_ids>  (908) 
[85, 67]

>  <energy_score>  (908) 
-85.59433308563642

>  <distance_score>  (908) 
4.9790962816632796

>  <path>  (908) 
/opt/xchem-fragalysis-2/maxwin/BulkDock/SCRATCH/505733/C1195-P67/C1195-P67.minimised.mol

>  <scratch_subdir>  (908) 
/opt/xchem-fragalysis-2/maxwin/BulkDock/SCRATCH/505733/C1195-P67

>  <fragmenstein_runtime>  (908) 
17.57724142074585

>  <fragmenstein_outcome>  (908) 
too moved

>  <fragmenstein_mode>  (908) 
expansion

>  <fragmenstein_error>  (908) 


$$$$
C1203-P86
     RDKit          3D

 44 46  0  0  0  0  0  0  0  0999 V2000
   13.8911   -4.4923   18.6383 C   0  0  0  0  0  0  0  0  0  0  0  0
   14.4865   -3.2617   18.2440 O   0  0  0  0  0  0  0  0  0  0  0  0
   13.8000   -2.4625   17.3765 C   0  0  0  0  0  0  0  0  0  0  0  0
   12.5399   -2.6513   17.2199 N   0  0  0  0  0  0  0  0  0  0  0  0
   11.7393   -1.9671   16.2296 C   0  0  0  0  0  0  0  0  0  0  0  0
   11.7241   -2.8294   14.9982 C   0  0  0  0  0  0  0  0  0  0  0  0
   12.5059   -2.1796   13.9029 C   0  0  0  0  0  0  0  0  0  0  0  0
   13.9383   -1.8029   14.2690 C   0  0  0  0  0  0  0  0  0  0  0  0
   14.7245   -1.6917   13.1279 C   0  0  0  0  0  0  0  0  0  0  0  0
   15.3933   -0.4992   12.8833 C   0  0  0  0  0  0  0  0  0  0  0  0
   16.1344   -0.3013   11.5936 C   0  0  0  0  0  0  0  0  0  0  0  0
   15.2062    0.5690   13.7595 C   0  0  0  0  0  0  0  0  0  0  0  0
   14.5779    0.3733   14.9787 C   0  0  0  0  0  0  0  0  0  0  0  0
   14.2133   -0.9189   15.3369 C   0  0  0  0  0  0  0  0  0  0  0  0
   14.7428   -1.4423   16.7131 C   0  0  0  0  0  0  0  0  0  0  0  0
   16.0931   -2.1654   16.3959 C   0  0  0  0  0  0  0  0  0  0  0  0
   17.0225   -1.9329   17.5846 C   0  0  0  0  0  0  0  0  0  0  0  0
   16.3723   -0.9995   18.4882 N   0  0  0  0  0  0  0  0  0  0  0  0
   15.3010   -0.3556   17.7260 C   0  0  0  0  0  0  0  0  0  0  0  0
   14.3502    0.2858   18.7216 C   0  0  0  0  0  0  0  0  0  0  0  0
   14.6921   -5.1740   18.9361 H   0  0  0  0  0  0  0  0  0  0  0  0
   13.2390   -4.3254   19.4989 H   0  0  0  0  0  0  0  0  0  0  0  0
   13.3394   -4.9471   17.8131 H   0  0  0  0  0  0  0  0  0  0  0  0
   11.9774   -0.9086   16.0993 H   0  0  0  0  0  0  0  0  0  0  0  0
   10.6996   -1.9274   16.5185 H   0  0  0  0  0  0  0  0  0  0  0  0
   10.6944   -2.9802   14.6575 H   0  0  0  0  0  0  0  0  0  0  0  0
   12.1224   -3.8202   15.2236 H   0  0  0  0  0  0  0  0  0  0  0  0
   11.9968   -1.2607   13.5809 H   0  0  0  0  0  0  0  0  0  0  0  0
   12.4924   -2.8503   13.0375 H   0  0  0  0  0  0  0  0  0  0  0  0
   14.6457   -2.4225   12.3234 H   0  0  0  0  0  0  0  0  0  0  0  0
   16.9385    0.4320   11.7154 H   0  0  0  0  0  0  0  0  0  0  0  0
   16.5963   -1.2380   11.2637 H   0  0  0  0  0  0  0  0  0  0  0  0
   15.4489    0.0494   10.8158 H   0  0  0  0  0  0  0  0  0  0  0  0
   15.6160    1.5484   13.5221 H   0  0  0  0  0  0  0  0  0  0  0  0
   14.5880    1.1955   15.6870 H   0  0  0  0  0  0  0  0  0  0  0  0
   16.5868   -1.7376   15.5139 H   0  0  0  0  0  0  0  0  0  0  0  0
   15.9651   -3.2356   16.1914 H   0  0  0  0  0  0  0  0  0  0  0  0
   17.9793   -1.5271   17.2361 H   0  0  0  0  0  0  0  0  0  0  0  0
   17.2380   -2.8705   18.1069 H   0  0  0  0  0  0  0  0  0  0  0  0
   17.0313   -0.3228   18.8675 H   0  0  0  0  0  0  0  0  0  0  0  0
   15.7951    0.4528   17.1763 H   0  0  0  0  0  0  0  0  0  0  0  0
   14.0253   -0.4241   19.4863 H   0  0  0  0  0  0  0  0  0  0  0  0
   13.4757    0.6859   18.2029 H   0  0  0  0  0  0  0  0  0  0  0  0
   14.8365    1.1183   19.2432 H   0  0  0  0  0  0  0  0  0  0  0  0
  1  2  1  0
  2  3  1  0
  3  4  2  3
  4  5  1  0
  5  6  1  0
  6  7  1  0
  7  8  1  0
  8  9  2  0
  9 10  1  0
 10 11  1  0
 10 12  2  0
 12 13  1  0
 13 14  2  0
 14 15  1  0
 15 16  1  0
 16 17  1  0
 17 18  1  0
 18 19  1  0
 19 20  1  0
 15  3  1  0
 14  8  1  0
 19 15  1  0
  1 21  1  0
  1 22  1  0
  1 23  1  0
  5 24  1  0
  5 25  1  0
  6 26  1  0
  6 27  1  0
  7 28  1  0
  7 29  1  0
  9 30  1  0
 11 31  1  0
 11 32  1  0
 11 33  1  0
 12 34  1  0
 13 35  1  0
 16 36  1  0
 16 37  1  0
 17 38  1  0
 17 39  1  0
 18 40  1  0
 19 41  1  0
 20 42  1  0
 20 43  1  0
 20 44  1  0
M  END
>  <Energy>  (909) 
135.46804211429497

>  <compound_id>  (909) 
1203

>  <target_id>  (909) 
1

>  <reference_id>  (909) 
86

>  <inspiration_ids>  (909) 
[86, 23]

>  <energy_score>  (909) 
-158.25563408461892

>  <distance_score>  (909) 
3.278589934718225

>  <path>  (909) 
/opt/xchem-fragalysis-2/maxwin/BulkDock/SCRATCH/505733/C1203-P86/C1203-P86.minimised.mol

>  <scratch_subdir>  (909) 
/opt/xchem-fragalysis-2/maxwin/BulkDock/SCRATCH/505733/C1203-P86

>  <fragmenstein_runtime>  (909) 
9.28286361694336

>  <fragmenstein_outcome>  (909) 
too moved

>  <fragmenstein_mode>  (909) 
expansion

>  <fragmenstein_error>  (909) 


$$$$
C1203-P23
     RDKit          3D

 44 46  0  0  0  0  0  0  0  0999 V2000
   13.4281   -4.3555   17.4242 C   0  0  0  0  0  0  0  0  0  0  0  0
   13.7879   -3.0155   17.7486 O   0  0  0  0  0  0  0  0  0  0  0  0
   13.6781   -2.0957   16.7404 C   0  0  0  0  0  0  0  0  0  0  0  0
   12.7763   -2.2307   15.8327 N   0  0  0  0  0  0  0  0  0  0  0  0
   12.6717   -1.2994   14.7210 C   0  0  0  0  0  0  0  0  0  0  0  0
   13.5206   -1.6921   13.5360 C   0  0  0  0  0  0  0  0  0  0  0  0
   15.0338   -1.5097   13.6036 C   0  0  0  0  0  0  0  0  0  0  0  0
   15.8617   -2.1827   14.6814 C   0  0  0  0  0  0  0  0  0  0  0  0
   16.8275   -3.0623   14.1868 C   0  0  0  0  0  0  0  0  0  0  0  0
   17.6770   -3.8083   14.9998 C   0  0  0  0  0  0  0  0  0  0  0  0
   18.6707   -4.7659   14.4126 C   0  0  0  0  0  0  0  0  0  0  0  0
   17.5643   -3.6851   16.3637 C   0  0  0  0  0  0  0  0  0  0  0  0
   16.6847   -2.7691   16.8895 C   0  0  0  0  0  0  0  0  0  0  0  0
   15.8662   -1.9731   16.0831 C   0  0  0  0  0  0  0  0  0  0  0  0
   14.8702   -1.1035   16.8218 C   0  0  0  0  0  0  0  0  0  0  0  0
   14.9022    0.2907   16.1782 C   0  0  0  0  0  0  0  0  0  0  0  0
   16.0914    0.9935   16.8121 C   0  0  0  0  0  0  0  0  0  0  0  0
   16.1457    0.5330   18.1891 N   0  0  0  0  0  0  0  0  0  0  0  0
   15.1185   -0.5242   18.3003 C   0  0  0  0  0  0  0  0  0  0  0  0
   15.3992   -1.2958   19.5837 C   0  0  0  0  0  0  0  0  0  0  0  0
   13.4982   -4.9412   18.3434 H   0  0  0  0  0  0  0  0  0  0  0  0
   12.4011   -4.4121   17.0539 H   0  0  0  0  0  0  0  0  0  0  0  0
   14.1264   -4.7592   16.6873 H   0  0  0  0  0  0  0  0  0  0  0  0
   12.8389   -0.2600   14.9911 H   0  0  0  0  0  0  0  0  0  0  0  0
   11.6230   -1.3250   14.3990 H   0  0  0  0  0  0  0  0  0  0  0  0
   13.1983   -1.0630   12.7005 H   0  0  0  0  0  0  0  0  0  0  0  0
   13.2695   -2.7081   13.2360 H   0  0  0  0  0  0  0  0  0  0  0  0
   15.3155   -0.4583   13.5065 H   0  0  0  0  0  0  0  0  0  0  0  0
   15.3744   -1.8947   12.6292 H   0  0  0  0  0  0  0  0  0  0  0  0
   16.9431   -3.1694   13.1091 H   0  0  0  0  0  0  0  0  0  0  0  0
   18.8926   -4.5193   13.3691 H   0  0  0  0  0  0  0  0  0  0  0  0
   18.2799   -5.7873   14.4559 H   0  0  0  0  0  0  0  0  0  0  0  0
   19.6170   -4.7242   14.9625 H   0  0  0  0  0  0  0  0  0  0  0  0
   18.1807   -4.2849   17.0285 H   0  0  0  0  0  0  0  0  0  0  0  0
   16.6396   -2.7334   17.9672 H   0  0  0  0  0  0  0  0  0  0  0  0
   14.0121    0.8712   16.4033 H   0  0  0  0  0  0  0  0  0  0  0  0
   15.0011    0.3759   15.1088 H   0  0  0  0  0  0  0  0  0  0  0  0
   15.9809    2.0815   16.7681 H   0  0  0  0  0  0  0  0  0  0  0  0
   17.0190    0.7316   16.2896 H   0  0  0  0  0  0  0  0  0  0  0  0
   17.0708    0.1369   18.3636 H   0  0  0  0  0  0  0  0  0  0  0  0
   14.1978    0.0061   18.5558 H   0  0  0  0  0  0  0  0  0  0  0  0
   15.2605   -0.6375   20.4517 H   0  0  0  0  0  0  0  0  0  0  0  0
   14.7183   -2.1361   19.7275 H   0  0  0  0  0  0  0  0  0  0  0  0
   16.4266   -1.6637   19.6540 H   0  0  0  0  0  0  0  0  0  0  0  0
  1  2  1  0
  2  3  1  0
  3  4  2  3
  4  5  1  0
  5  6  1  0
  6  7  1  0
  7  8  1  0
  8  9  2  0
  9 10  1  0
 10 11  1  0
 10 12  2  0
 12 13  1  0
 13 14  2  0
 14 15  1  0
 15 16  1  0
 16 17  1  0
 17 18  1  0
 18 19  1  0
 19 20  1  0
 15  3  1  0
 14  8  1  0
 19 15  1  0
  1 21  1  0
  1 22  1  0
  1 23  1  0
  5 24  1  0
  5 25  1  0
  6 26  1  0
  6 27  1  0
  7 28  1  0
  7 29  1  0
  9 30  1  0
 11 31  1  0
 11 32  1  0
 11 33  1  0
 12 34  1  0
 13 35  1  0
 16 36  1  0
 16 37  1  0
 17 38  1  0
 17 39  1  0
 18 40  1  0
 19 41  1  0
 20 42  1  0
 20 43  1  0
 20 44  1  0
M  END
>  <Energy>  (910) 
114.00814615908045

>  <compound_id>  (910) 
1203

>  <target_id>  (910) 
1

>  <reference_id>  (910) 
23

>  <inspiration_ids>  (910) 
[86, 23]

>  <energy_score>  (910) 
-179.71553003983698

>  <distance_score>  (910) 
3.669597281310564

>  <path>  (910) 
/opt/xchem-fragalysis-2/maxwin/BulkDock/SCRATCH/505733/C1203-P23/C1203-P23.minimised.mol

>  <scratch_subdir>  (910) 
/opt/xchem-fragalysis-2/maxwin/BulkDock/SCRATCH/505733/C1203-P23

>  <fragmenstein_runtime>  (910) 
9.476794242858887

>  <fragmenstein_outcome>  (910) 
too moved

>  <fragmenstein_mode>  (910) 
expansion

>  <fragmenstein_error>  (910) 


$$$$
C1208-P86
     RDKit          3D

 47 49  0  0  0  0  0  0  0  0999 V2000
   13.2848   -2.0021   13.1402 C   0  0  0  0  0  0  0  0  0  0  0  0
   12.1456   -2.6618   13.8915 C   0  0  0  0  0  0  0  0  0  0  0  0
   11.4749   -1.8101   14.9384 C   0  0  0  0  0  0  0  0  0  0  0  0
   12.3462   -1.4370   16.1501 C   0  0  0  0  0  0  0  0  0  0  0  0
   13.2379   -0.2147   15.9369 C   0  0  0  0  0  0  0  0  0  0  0  0
   14.7327   -0.4439   15.7678 C   0  0  0  0  0  0  0  0  0  0  0  0
   15.3835   -1.5484   16.6376 C   0  0  0  0  0  0  0  0  0  0  0  0
   16.6864   -1.7891   15.9505 N   0  0  0  0  0  0  0  0  0  0  0  0
   17.7548   -1.5658   16.9234 C   0  0  0  0  0  0  0  0  0  0  0  0
   17.1383   -0.6037   17.9038 C   0  0  0  0  0  0  0  0  0  0  0  0
   15.7691   -1.1125   17.9914 N   0  0  0  0  0  0  0  0  0  0  0  0
   14.9306   -0.1753   18.7074 C   0  0  0  0  0  0  0  0  0  0  0  0
   14.4985   -2.8534   16.6081 C   0  0  0  0  0  0  0  0  0  0  0  0
   15.0125   -3.9169   17.5737 C   0  0  0  0  0  0  0  0  0  0  0  0
   14.5807   -4.1011   18.8059 N   0  0  0  0  0  0  0  0  0  0  0  0
   15.3440   -5.0618   19.4378 C   0  0  0  0  0  0  0  0  0  0  0  0
   16.2994   -5.6801   18.6574 C   0  0  0  0  0  0  0  0  0  0  0  0
   17.2700   -6.7027   18.9677 C   0  0  0  0  0  0  0  0  0  0  0  0
   18.3275   -6.8938   18.3835 O   0  0  0  0  0  0  0  0  0  0  0  0
   16.9011   -7.4761   20.0225 O   0  0  0  0  0  0  0  0  0  0  0  0
   16.2466   -5.0079   17.0808 S   0  0  0  0  0  0  0  0  0  0  0  0
   13.0058   -2.6174   16.8744 C   0  0  0  0  0  0  0  0  0  0  0  0
   14.2235   -2.1204   13.6754 H   0  0  0  0  0  0  0  0  0  0  0  0
   13.0995   -0.9414   12.9529 H   0  0  0  0  0  0  0  0  0  0  0  0
   13.4562   -2.4946   12.1810 H   0  0  0  0  0  0  0  0  0  0  0  0
   11.4159   -3.0192   13.1680 H   0  0  0  0  0  0  0  0  0  0  0  0
   12.4690   -3.5519   14.4139 H   0  0  0  0  0  0  0  0  0  0  0  0
   11.0722   -0.8982   14.4813 H   0  0  0  0  0  0  0  0  0  0  0  0
   10.6036   -2.3662   15.3055 H   0  0  0  0  0  0  0  0  0  0  0  0
   11.5881   -1.0583   16.8394 H   0  0  0  0  0  0  0  0  0  0  0  0
   13.1022    0.4447   16.8033 H   0  0  0  0  0  0  0  0  0  0  0  0
   12.8750    0.3864   15.0936 H   0  0  0  0  0  0  0  0  0  0  0  0
   14.9345   -0.6294   14.7103 H   0  0  0  0  0  0  0  0  0  0  0  0
   15.2418    0.5168   15.9362 H   0  0  0  0  0  0  0  0  0  0  0  0
   16.7475   -2.7475   15.6126 H   0  0  0  0  0  0  0  0  0  0  0  0
   18.0317   -2.5031   17.4183 H   0  0  0  0  0  0  0  0  0  0  0  0
   18.6460   -1.1531   16.4422 H   0  0  0  0  0  0  0  0  0  0  0  0
   17.1730    0.4212   17.5124 H   0  0  0  0  0  0  0  0  0  0  0  0
   17.6489   -0.6333   18.8716 H   0  0  0  0  0  0  0  0  0  0  0  0
   14.9149    0.8227   18.2570 H   0  0  0  0  0  0  0  0  0  0  0  0
   13.9109   -0.5395   18.7788 H   0  0  0  0  0  0  0  0  0  0  0  0
   15.2865   -0.0632   19.7381 H   0  0  0  0  0  0  0  0  0  0  0  0
   14.5644   -3.2747   15.5986 H   0  0  0  0  0  0  0  0  0  0  0  0
   15.1554   -5.2527   20.4874 H   0  0  0  0  0  0  0  0  0  0  0  0
   15.9759   -7.3690   20.3035 H   0  0  0  0  0  0  0  0  0  0  0  0
   12.8964   -2.4527   17.9452 H   0  0  0  0  0  0  0  0  0  0  0  0
   12.4406   -3.5413   16.6907 H   0  0  0  0  0  0  0  0  0  0  0  0
  1  2  1  0
  2  3  1  0
  3  4  1  0
  4  5  1  0
  5  6  1  0
  6  7  1  0
  7  8  1  0
  8  9  1  0
  9 10  1  0
 10 11  1  0
 11 12  1  0
  7 13  1  0
 13 14  1  0
 14 15  2  0
 15 16  1  0
 16 17  2  0
 17 18  1  0
 18 19  2  0
 18 20  1  0
 17 21  1  0
 13 22  1  0
 22  4  1  0
 11  7  1  0
 21 14  1  0
  1 23  1  0
  1 24  1  0
  1 25  1  0
  2 26  1  0
  2 27  1  0
  3 28  1  0
  3 29  1  0
  4 30  1  0
  5 31  1  0
  5 32  1  0
  6 33  1  0
  6 34  1  0
  8 35  1  0
  9 36  1  0
  9 37  1  0
 10 38  1  0
 10 39  1  0
 12 40  1  0
 12 41  1  0
 12 42  1  0
 13 43  1  0
 16 44  1  0
 20 45  1  0
 22 46  1  0
 22 47  1  0
M  END
>  <Energy>  (911) 
38.893310941271608

>  <compound_id>  (911) 
1208

>  <target_id>  (911) 
1

>  <reference_id>  (911) 
86

>  <inspiration_ids>  (911) 
[86, 36]

>  <energy_score>  (911) 
-76.94257179246992

>  <distance_score>  (911) 
1.8555281875231189

>  <path>  (911) 
/opt/xchem-fragalysis-2/maxwin/BulkDock/SCRATCH/505733/C1208-P86/C1208-P86.minimised.mol

>  <scratch_subdir>  (911) 
/opt/xchem-fragalysis-2/maxwin/BulkDock/SCRATCH/505733/C1208-P86

>  <fragmenstein_runtime>  (911) 
10.195731163024902

>  <fragmenstein_outcome>  (911) 
too moved

>  <fragmenstein_mode>  (911) 
expansion

>  <fragmenstein_error>  (911) 


$$$$
C1208-P36
     RDKit          3D

 47 49  0  0  0  0  0  0  0  0999 V2000
    9.1988   -1.3384   15.1382 C   0  0  0  0  0  0  0  0  0  0  0  0
   10.5797   -1.9978   15.1024 C   0  0  0  0  0  0  0  0  0  0  0  0
   11.5754   -1.0247   15.6623 C   0  0  0  0  0  0  0  0  0  0  0  0
   12.9829   -1.5369   15.9274 C   0  0  0  0  0  0  0  0  0  0  0  0
   13.8653   -1.4130   14.6901 C   0  0  0  0  0  0  0  0  0  0  0  0
   15.2964   -1.9057   14.9349 C   0  0  0  0  0  0  0  0  0  0  0  0
   15.6421   -2.2587   16.4133 C   0  0  0  0  0  0  0  0  0  0  0  0
   16.9870   -2.9022   16.3641 N   0  0  0  0  0  0  0  0  0  0  0  0
   17.8873   -2.0916   17.1831 C   0  0  0  0  0  0  0  0  0  0  0  0
   16.9678   -1.3928   18.1565 C   0  0  0  0  0  0  0  0  0  0  0  0
   15.7726   -1.1042   17.3465 N   0  0  0  0  0  0  0  0  0  0  0  0
   15.9398    0.2162   16.7315 C   0  0  0  0  0  0  0  0  0  0  0  0
   14.5453   -3.3252   16.8671 C   0  0  0  0  0  0  0  0  0  0  0  0
   14.6409   -3.7160   18.3269 C   0  0  0  0  0  0  0  0  0  0  0  0
   14.0314   -3.0969   19.3147 N   0  0  0  0  0  0  0  0  0  0  0  0
   14.3037   -3.7217   20.5144 C   0  0  0  0  0  0  0  0  0  0  0  0
   15.1383   -4.8158   20.4389 C   0  0  0  0  0  0  0  0  0  0  0  0
   15.6266   -5.6782   21.4755 C   0  0  0  0  0  0  0  0  0  0  0  0
   16.3859   -6.6315   21.3828 O   0  0  0  0  0  0  0  0  0  0  0  0
   15.1374   -5.3312   22.6876 O   0  0  0  0  0  0  0  0  0  0  0  0
   15.5879   -5.0714   18.8047 S   0  0  0  0  0  0  0  0  0  0  0  0
   13.0874   -2.9386   16.5147 C   0  0  0  0  0  0  0  0  0  0  0  0
    9.1739   -0.4444   14.5064 H   0  0  0  0  0  0  0  0  0  0  0  0
    8.9333   -1.0001   16.1400 H   0  0  0  0  0  0  0  0  0  0  0  0
    8.4190   -2.0327   14.8107 H   0  0  0  0  0  0  0  0  0  0  0  0
   10.5800   -2.9221   15.6755 H   0  0  0  0  0  0  0  0  0  0  0  0
   10.8951   -2.2849   14.0989 H   0  0  0  0  0  0  0  0  0  0  0  0
   11.6247   -0.1391   15.0142 H   0  0  0  0  0  0  0  0  0  0  0  0
   11.1898   -0.6471   16.6102 H   0  0  0  0  0  0  0  0  0  0  0  0
   13.3610   -0.8423   16.6848 H   0  0  0  0  0  0  0  0  0  0  0  0
   13.8993   -0.3666   14.3622 H   0  0  0  0  0  0  0  0  0  0  0  0
   13.4299   -1.9695   13.8509 H   0  0  0  0  0  0  0  0  0  0  0  0
   15.4480   -2.8015   14.3181 H   0  0  0  0  0  0  0  0  0  0  0  0
   16.0070   -1.1825   14.5140 H   0  0  0  0  0  0  0  0  0  0  0  0
   16.9218   -3.8233   16.7933 H   0  0  0  0  0  0  0  0  0  0  0  0
   18.6316   -2.7117   17.6921 H   0  0  0  0  0  0  0  0  0  0  0  0
   18.4196   -1.3780   16.5448 H   0  0  0  0  0  0  0  0  0  0  0  0
   17.4300   -0.5023   18.5977 H   0  0  0  0  0  0  0  0  0  0  0  0
   16.7089   -2.0517   18.9908 H   0  0  0  0  0  0  0  0  0  0  0  0
   16.8119    0.2817   16.0719 H   0  0  0  0  0  0  0  0  0  0  0  0
   15.0562    0.5253   16.1694 H   0  0  0  0  0  0  0  0  0  0  0  0
   16.0580    0.9778   17.5121 H   0  0  0  0  0  0  0  0  0  0  0  0
   14.7394   -4.2411   16.2859 H   0  0  0  0  0  0  0  0  0  0  0  0
   13.8630   -3.3262   21.4232 H   0  0  0  0  0  0  0  0  0  0  0  0
   15.5610   -5.9763   23.2909 H   0  0  0  0  0  0  0  0  0  0  0  0
   12.4231   -3.0303   17.3773 H   0  0  0  0  0  0  0  0  0  0  0  0
   12.7155   -3.6673   15.7841 H   0  0  0  0  0  0  0  0  0  0  0  0
  1  2  1  0
  2  3  1  0
  3  4  1  0
  4  5  1  0
  5  6  1  0
  6  7  1  0
  7  8  1  0
  8  9  1  0
  9 10  1  0
 10 11  1  0
 11 12  1  0
  7 13  1  0
 13 14  1  0
 14 15  2  0
 15 16  1  0
 16 17  2  0
 17 18  1  0
 18 19  2  0
 18 20  1  0
 17 21  1  0
 13 22  1  0
 22  4  1  0
 11  7  1  0
 21 14  1  0
  1 23  1  0
  1 24  1  0
  1 25  1  0
  2 26  1  0
  2 27  1  0
  3 28  1  0
  3 29  1  0
  4 30  1  0
  5 31  1  0
  5 32  1  0
  6 33  1  0
  6 34  1  0
  8 35  1  0
  9 36  1  0
  9 37  1  0
 10 38  1  0
 10 39  1  0
 12 40  1  0
 12 41  1  0
 12 42  1  0
 13 43  1  0
 16 44  1  0
 20 45  1  0
 22 46  1  0
 22 47  1  0
M  END
>  <Energy>  (912) 
27.599377575311692

>  <compound_id>  (912) 
1208

>  <target_id>  (912) 
1

>  <reference_id>  (912) 
36

>  <inspiration_ids>  (912) 
[86, 36]

>  <energy_score>  (912) 
-88.23650515842965

>  <distance_score>  (912) 
2.1466667353590183

>  <path>  (912) 
/opt/xchem-fragalysis-2/maxwin/BulkDock/SCRATCH/505733/C1208-P36/C1208-P36.minimised.mol

>  <scratch_subdir>  (912) 
/opt/xchem-fragalysis-2/maxwin/BulkDock/SCRATCH/505733/C1208-P36

>  <fragmenstein_runtime>  (912) 
10.838571786880493

>  <fragmenstein_outcome>  (912) 
too moved

>  <fragmenstein_mode>  (912) 
expansion

>  <fragmenstein_error>  (912) 


$$$$
C1209-P86
     RDKit          3D

 35 36  0  0  0  0  0  0  0  0999 V2000
   14.6065    2.8548   16.5507 C   0  0  0  0  0  0  0  0  0  0  0  0
   13.8851    1.6928   17.0815 N   0  0  0  0  0  0  0  0  0  0  0  0
   14.5730    0.4929   16.6857 N   0  0  0  0  0  0  0  0  0  0  0  0
   13.7485   -0.7061   16.9801 C   0  0  0  0  0  0  0  0  0  0  0  0
   12.3992   -1.1974   15.8564 S   0  0  0  0  0  0  0  0  0  0  0  0
   12.2872   -2.6434   15.8600 O   0  0  0  0  0  0  0  0  0  0  0  0
   11.2196   -0.3759   16.0212 O   0  0  0  0  0  0  0  0  0  0  0  0
   13.1428   -0.8182   14.3281 C   0  0  0  0  0  0  0  0  0  0  0  0
   14.2072   -1.6884   13.9225 C   0  0  0  0  0  0  0  0  0  0  0  0
   14.8170   -1.3239   12.7531 C   0  0  0  0  0  0  0  0  0  0  0  0
   15.8311   -2.0270   12.0190 C   0  0  0  0  0  0  0  0  0  0  0  0
   15.9853   -2.0992   10.8080 O   0  0  0  0  0  0  0  0  0  0  0  0
   16.6466   -2.6796   12.8732 O   0  0  0  0  0  0  0  0  0  0  0  0
   14.2649    0.1825   12.2519 S   0  0  0  0  0  0  0  0  0  0  0  0
   13.0093    0.2760   13.4789 C   0  0  0  0  0  0  0  0  0  0  0  0
   12.1411    1.4793   13.4027 C   0  0  0  0  0  0  0  0  0  0  0  0
   11.9160    2.1121   12.1621 C   0  0  0  0  0  0  0  0  0  0  0  0
   11.2169    3.3148   12.0566 C   0  0  0  0  0  0  0  0  0  0  0  0
   10.6367    3.8788   13.1791 C   0  0  0  0  0  0  0  0  0  0  0  0
   10.8073    3.2631   14.4105 C   0  0  0  0  0  0  0  0  0  0  0  0
   11.5765    2.0975   14.5203 C   0  0  0  0  0  0  0  0  0  0  0  0
   14.0850    3.7696   16.8488 H   0  0  0  0  0  0  0  0  0  0  0  0
   15.6288    2.9039   16.9409 H   0  0  0  0  0  0  0  0  0  0  0  0
   14.6409    2.8364   15.4561 H   0  0  0  0  0  0  0  0  0  0  0  0
   13.8786    1.7884   18.1045 H   0  0  0  0  0  0  0  0  0  0  0  0
   14.8403    0.4939   15.6962 H   0  0  0  0  0  0  0  0  0  0  0  0
   13.3402   -0.6285   17.9817 H   0  0  0  0  0  0  0  0  0  0  0  0
   14.4317   -1.5637   16.9881 H   0  0  0  0  0  0  0  0  0  0  0  0
   14.5104   -2.5686   14.4783 H   0  0  0  0  0  0  0  0  0  0  0  0
   17.1643   -3.2778   12.2984 H   0  0  0  0  0  0  0  0  0  0  0  0
   12.3184    1.7054   11.2368 H   0  0  0  0  0  0  0  0  0  0  0  0
   11.1444    3.8204   11.0981 H   0  0  0  0  0  0  0  0  0  0  0  0
   10.0868    4.8141   13.1071 H   0  0  0  0  0  0  0  0  0  0  0  0
   10.3871    3.7134   15.3074 H   0  0  0  0  0  0  0  0  0  0  0  0
   11.7513    1.7295   15.5222 H   0  0  0  0  0  0  0  0  0  0  0  0
  1  2  1  0
  2  3  1  0
  3  4  1  0
  4  5  1  0
  5  6  2  0
  5  7  2  0
  5  8  1  0
  8  9  1  0
  9 10  2  0
 10 11  1  0
 11 12  2  0
 11 13  1  0
 10 14  1  0
 14 15  1  0
 15 16  1  0
 16 17  2  0
 17 18  1  0
 18 19  2  0
 19 20  1  0
 20 21  2  0
 15  8  2  0
 21 16  1  0
  1 22  1  0
  1 23  1  0
  1 24  1  0
  2 25  1  0
  3 26  1  0
  4 27  1  0
  4 28  1  0
  9 29  1  0
 13 30  1  0
 17 31  1  0
 18 32  1  0
 19 33  1  0
 20 34  1  0
 21 35  1  0
M  END
>  <Energy>  (913) 
158.71866555775168

>  <compound_id>  (913) 
1209

>  <target_id>  (913) 
1

>  <reference_id>  (913) 
86

>  <inspiration_ids>  (913) 
[86, 50]

>  <energy_score>  (913) 
-39.23790324073556

>  <distance_score>  (913) 
2.349403450736381

>  <path>  (913) 
/opt/xchem-fragalysis-2/maxwin/BulkDock/SCRATCH/505733/C1209-P86/C1209-P86.minimised.mol

>  <scratch_subdir>  (913) 
/opt/xchem-fragalysis-2/maxwin/BulkDock/SCRATCH/505733/C1209-P86

>  <fragmenstein_runtime>  (913) 
36.42290496826172

>  <fragmenstein_outcome>  (913) 
too moved

>  <fragmenstein_mode>  (913) 
expansion

>  <fragmenstein_error>  (913) 


$$$$
C1209-P50
     RDKit          3D

 35 36  0  0  0  0  0  0  0  0999 V2000
   13.9547    2.8023   18.1080 C   0  0  0  0  0  0  0  0  0  0  0  0
   14.3647    1.3983   18.0722 N   0  0  0  0  0  0  0  0  0  0  0  0
   13.9785    0.8358   16.8178 N   0  0  0  0  0  0  0  0  0  0  0  0
   13.6022   -0.5843   16.9955 C   0  0  0  0  0  0  0  0  0  0  0  0
   12.6663   -1.3527   15.6356 S   0  0  0  0  0  0  0  0  0  0  0  0
   12.8594   -2.7858   15.6611 O   0  0  0  0  0  0  0  0  0  0  0  0
   11.3495   -0.7716   15.4868 O   0  0  0  0  0  0  0  0  0  0  0  0
   13.6665   -0.7565   14.3434 C   0  0  0  0  0  0  0  0  0  0  0  0
   14.9034   -1.4432   14.0726 C   0  0  0  0  0  0  0  0  0  0  0  0
   15.7625   -0.7386   13.2607 C   0  0  0  0  0  0  0  0  0  0  0  0
   17.0838   -1.1389   12.8275 C   0  0  0  0  0  0  0  0  0  0  0  0
   17.7140   -2.1219   13.1875 O   0  0  0  0  0  0  0  0  0  0  0  0
   17.6314   -0.2915   11.9278 O   0  0  0  0  0  0  0  0  0  0  0  0
   15.0828    0.7596   12.8548 S   0  0  0  0  0  0  0  0  0  0  0  0
   13.5626    0.4475   13.6545 C   0  0  0  0  0  0  0  0  0  0  0  0
   12.5428    1.5193   13.5240 C   0  0  0  0  0  0  0  0  0  0  0  0
   12.4227    2.2119   12.3034 C   0  0  0  0  0  0  0  0  0  0  0  0
   11.5912    3.3232   12.1657 C   0  0  0  0  0  0  0  0  0  0  0  0
   10.7818    3.7227   13.2173 C   0  0  0  0  0  0  0  0  0  0  0  0
   10.8423    3.0319   14.4194 C   0  0  0  0  0  0  0  0  0  0  0  0
   11.7339    1.9624   14.5766 C   0  0  0  0  0  0  0  0  0  0  0  0
   14.1980    3.2268   19.0870 H   0  0  0  0  0  0  0  0  0  0  0  0
   14.4750    3.3898   17.3438 H   0  0  0  0  0  0  0  0  0  0  0  0
   12.8741    2.9049   17.9622 H   0  0  0  0  0  0  0  0  0  0  0  0
   15.3718    1.3403   18.2567 H   0  0  0  0  0  0  0  0  0  0  0  0
   14.7129    0.9237   16.1085 H   0  0  0  0  0  0  0  0  0  0  0  0
   12.9591   -0.6837   17.8531 H   0  0  0  0  0  0  0  0  0  0  0  0
   14.4964   -1.1967   17.1572 H   0  0  0  0  0  0  0  0  0  0  0  0
   15.1754   -2.4067   14.4950 H   0  0  0  0  0  0  0  0  0  0  0  0
   18.5082   -0.6882   11.7462 H   0  0  0  0  0  0  0  0  0  0  0  0
   13.0179    1.9286   11.4367 H   0  0  0  0  0  0  0  0  0  0  0  0
   11.6032    3.8936   11.2411 H   0  0  0  0  0  0  0  0  0  0  0  0
   10.1373    4.5929   13.1190 H   0  0  0  0  0  0  0  0  0  0  0  0
   10.2394    3.3539   15.2658 H   0  0  0  0  0  0  0  0  0  0  0  0
   11.7963    1.5264   15.5668 H   0  0  0  0  0  0  0  0  0  0  0  0
  1  2  1  0
  2  3  1  0
  3  4  1  0
  4  5  1  0
  5  6  2  0
  5  7  2  0
  5  8  1  0
  8  9  1  0
  9 10  2  0
 10 11  1  0
 11 12  2  0
 11 13  1  0
 10 14  1  0
 14 15  1  0
 15 16  1  0
 16 17  2  0
 17 18  1  0
 18 19  2  0
 19 20  1  0
 20 21  2  0
 15  8  2  0
 21 16  1  0
  1 22  1  0
  1 23  1  0
  1 24  1  0
  2 25  1  0
  3 26  1  0
  4 27  1  0
  4 28  1  0
  9 29  1  0
 13 30  1  0
 17 31  1  0
 18 32  1  0
 19 33  1  0
 20 34  1  0
 21 35  1  0
M  END
>  <Energy>  (914) 
155.96284406275402

>  <compound_id>  (914) 
1209

>  <target_id>  (914) 
1

>  <reference_id>  (914) 
50

>  <inspiration_ids>  (914) 
[86, 50]

>  <energy_score>  (914) 
-41.9937247357322

>  <distance_score>  (914) 
2.890472998899374

>  <path>  (914) 
/opt/xchem-fragalysis-2/maxwin/BulkDock/SCRATCH/505733/C1209-P50/C1209-P50.minimised.mol

>  <scratch_subdir>  (914) 
/opt/xchem-fragalysis-2/maxwin/BulkDock/SCRATCH/505733/C1209-P50

>  <fragmenstein_runtime>  (914) 
36.517401933670044

>  <fragmenstein_outcome>  (914) 
too moved

>  <fragmenstein_mode>  (914) 
expansion

>  <fragmenstein_error>  (914) 


$$$$
C1212-P86
     RDKit          3D

 45 48  0  0  0  0  0  0  0  0999 V2000
   19.0862   -4.9706   19.4774 O   0  0  0  0  0  0  0  0  0  0  0  0
   18.8341   -4.2445   18.5242 C   0  0  0  0  0  0  0  0  0  0  0  0
   19.5972   -3.1226   18.2611 O   0  0  0  0  0  0  0  0  0  0  0  0
   19.1080   -2.0558   17.4081 C   0  0  0  0  0  0  0  0  0  0  0  0
   19.8011   -0.7214   17.7357 C   0  0  0  0  0  0  0  0  0  0  0  0
   19.1981    0.4337   17.0446 N   0  0  0  0  0  0  0  0  0  0  0  0
   18.3042    1.2435   17.8832 C   0  0  0  0  0  0  0  0  0  0  0  0
   17.0957    0.4915   18.3832 C   0  0  0  0  0  0  0  0  0  0  0  0
   15.9440    0.3049   17.4978 C   0  0  0  0  0  0  0  0  0  0  0  0
   14.9755   -0.5488   17.8734 C   0  0  0  0  0  0  0  0  0  0  0  0
   15.0958   -1.2326   19.0787 N   0  0  0  0  0  0  0  0  0  0  0  0
   14.3529   -2.2545   19.6051 C   0  0  0  0  0  0  0  0  0  0  0  0
   14.8610   -2.4775   20.8644 C   0  0  0  0  0  0  0  0  0  0  0  0
   15.9540   -1.6881   21.0946 N   0  0  0  0  0  0  0  0  0  0  0  0
   16.0927   -0.9701   20.0025 C   0  0  0  0  0  0  0  0  0  0  0  0
   17.1001   -0.0510   19.6216 C   0  0  0  0  0  0  0  0  0  0  0  0
   17.7763   -4.4712   17.5758 C   0  0  0  0  0  0  0  0  0  0  0  0
   17.8465   -4.6044   16.2083 C   0  0  0  0  0  0  0  0  0  0  0  0
   16.6654   -4.3514   15.5545 N   0  0  0  0  0  0  0  0  0  0  0  0
   15.7062   -4.1216   16.4327 C   0  0  0  0  0  0  0  0  0  0  0  0
   14.4657   -3.4298   16.0808 C   0  0  0  0  0  0  0  0  0  0  0  0
   14.5670   -2.3217   15.2133 C   0  0  0  0  0  0  0  0  0  0  0  0
   13.4339   -1.6691   14.7277 C   0  0  0  0  0  0  0  0  0  0  0  0
   12.1772   -2.1417   15.0757 C   0  0  0  0  0  0  0  0  0  0  0  0
   12.0672   -3.2409   15.9262 C   0  0  0  0  0  0  0  0  0  0  0  0
   13.1982   -3.8656   16.4588 C   0  0  0  0  0  0  0  0  0  0  0  0
   16.1280   -4.5361   18.0446 S   0  0  0  0  0  0  0  0  0  0  0  0
   19.3292   -2.3157   16.3673 H   0  0  0  0  0  0  0  0  0  0  0  0
   18.0289   -1.9502   17.5344 H   0  0  0  0  0  0  0  0  0  0  0  0
   19.8685   -0.5699   18.8194 H   0  0  0  0  0  0  0  0  0  0  0  0
   20.8433   -0.8008   17.4025 H   0  0  0  0  0  0  0  0  0  0  0  0
   18.7103    0.1399   16.2007 H   0  0  0  0  0  0  0  0  0  0  0  0
   17.9776    2.1154   17.3031 H   0  0  0  0  0  0  0  0  0  0  0  0
   18.8798    1.6578   18.7212 H   0  0  0  0  0  0  0  0  0  0  0  0
   15.8871    0.8597   16.5673 H   0  0  0  0  0  0  0  0  0  0  0  0
   14.0851   -0.7342   17.2932 H   0  0  0  0  0  0  0  0  0  0  0  0
   13.5462   -2.7314   19.0730 H   0  0  0  0  0  0  0  0  0  0  0  0
   14.5086   -3.1835   21.6057 H   0  0  0  0  0  0  0  0  0  0  0  0
   17.9327    0.0814   20.3049 H   0  0  0  0  0  0  0  0  0  0  0  0
   18.7540   -4.7346   15.6302 H   0  0  0  0  0  0  0  0  0  0  0  0
   15.5484   -1.9893   14.8757 H   0  0  0  0  0  0  0  0  0  0  0  0
   13.5345   -0.8365   14.0366 H   0  0  0  0  0  0  0  0  0  0  0  0
   11.2854   -1.6902   14.6457 H   0  0  0  0  0  0  0  0  0  0  0  0
   11.0947   -3.6691   16.1264 H   0  0  0  0  0  0  0  0  0  0  0  0
   13.0712   -4.7375   17.0923 H   0  0  0  0  0  0  0  0  0  0  0  0
  1  2  2  0
  2  3  1  0
  3  4  1  0
  4  5  1  0
  5  6  1  0
  6  7  1  0
  7  8  1  0
  8  9  1  0
  9 10  2  0
 10 11  1  0
 11 12  1  0
 12 13  2  0
 13 14  1  0
 14 15  2  0
 15 16  1  0
  2 17  1  0
 17 18  2  0
 18 19  1  0
 19 20  2  0
 20 21  1  0
 21 22  2  0
 22 23  1  0
 23 24  2  0
 24 25  1  0
 25 26  2  0
 20 27  1  0
 16  8  2  0
 27 17  1  0
 15 11  1  0
 26 21  1  0
  4 28  1  0
  4 29  1  0
  5 30  1  0
  5 31  1  0
  6 32  1  0
  7 33  1  0
  7 34  1  0
  9 35  1  0
 10 36  1  0
 12 37  1  0
 13 38  1  0
 16 39  1  0
 18 40  1  0
 22 41  1  0
 23 42  1  0
 24 43  1  0
 25 44  1  0
 26 45  1  0
M  END
>  <Energy>  (915) 
93.373215759344546

>  <compound_id>  (915) 
1212

>  <target_id>  (915) 
1

>  <reference_id>  (915) 
86

>  <inspiration_ids>  (915) 
[86, 61]

>  <energy_score>  (915) 
-50.791060825363246

>  <distance_score>  (915) 
1.728719573362088

>  <path>  (915) 
/opt/xchem-fragalysis-2/maxwin/BulkDock/SCRATCH/505733/C1212-P86/C1212-P86.minimised.mol

>  <scratch_subdir>  (915) 
/opt/xchem-fragalysis-2/maxwin/BulkDock/SCRATCH/505733/C1212-P86

>  <fragmenstein_runtime>  (915) 
11.987153053283691

>  <fragmenstein_outcome>  (915) 
too moved

>  <fragmenstein_mode>  (915) 
expansion

>  <fragmenstein_error>  (915) 


$$$$
C1212-P61
     RDKit          3D

 45 48  0  0  0  0  0  0  0  0999 V2000
   20.4048   -4.2296   16.5529 O   0  0  0  0  0  0  0  0  0  0  0  0
   19.3804   -3.6767   16.9301 C   0  0  0  0  0  0  0  0  0  0  0  0
   19.3280   -2.4164   17.4435 O   0  0  0  0  0  0  0  0  0  0  0  0
   20.4957   -1.5932   17.3014 C   0  0  0  0  0  0  0  0  0  0  0  0
   20.0965   -0.1708   17.7397 C   0  0  0  0  0  0  0  0  0  0  0  0
   19.0244    0.3927   16.8919 N   0  0  0  0  0  0  0  0  0  0  0  0
   18.1472    1.3231   17.6250 C   0  0  0  0  0  0  0  0  0  0  0  0
   16.9799    0.5952   18.2580 C   0  0  0  0  0  0  0  0  0  0  0  0
   15.7716    0.3748   17.4566 C   0  0  0  0  0  0  0  0  0  0  0  0
   14.8356   -0.4745   17.9153 C   0  0  0  0  0  0  0  0  0  0  0  0
   15.0396   -1.1218   19.1293 N   0  0  0  0  0  0  0  0  0  0  0  0
   14.3777   -2.1775   19.7008 C   0  0  0  0  0  0  0  0  0  0  0  0
   14.9470   -2.3418   20.9428 C   0  0  0  0  0  0  0  0  0  0  0  0
   16.0127   -1.4971   21.1092 N   0  0  0  0  0  0  0  0  0  0  0  0
   16.0810   -0.8101   19.9888 C   0  0  0  0  0  0  0  0  0  0  0  0
   17.0599    0.1009   19.5139 C   0  0  0  0  0  0  0  0  0  0  0  0
   18.0424   -4.1994   16.8130 C   0  0  0  0  0  0  0  0  0  0  0  0
   17.5558   -5.2189   16.0228 C   0  0  0  0  0  0  0  0  0  0  0  0
   16.1758   -5.2201   15.8509 N   0  0  0  0  0  0  0  0  0  0  0  0
   15.6629   -4.1882   16.4928 C   0  0  0  0  0  0  0  0  0  0  0  0
   14.4540   -3.4565   16.1185 C   0  0  0  0  0  0  0  0  0  0  0  0
   14.5956   -2.3175   15.2997 C   0  0  0  0  0  0  0  0  0  0  0  0
   13.4824   -1.6441   14.7943 C   0  0  0  0  0  0  0  0  0  0  0  0
   12.2098   -2.1187   15.0808 C   0  0  0  0  0  0  0  0  0  0  0  0
   12.0616   -3.2485   15.8844 C   0  0  0  0  0  0  0  0  0  0  0  0
   13.1726   -3.9062   16.4219 C   0  0  0  0  0  0  0  0  0  0  0  0
   16.7174   -3.5258   17.6560 S   0  0  0  0  0  0  0  0  0  0  0  0
   21.2885   -1.9770   17.9520 H   0  0  0  0  0  0  0  0  0  0  0  0
   20.8356   -1.5960   16.2594 H   0  0  0  0  0  0  0  0  0  0  0  0
   19.7778   -0.2313   18.7852 H   0  0  0  0  0  0  0  0  0  0  0  0
   20.9695    0.4884   17.6922 H   0  0  0  0  0  0  0  0  0  0  0  0
   18.4494   -0.3767   16.5434 H   0  0  0  0  0  0  0  0  0  0  0  0
   17.7669    2.0662   16.9135 H   0  0  0  0  0  0  0  0  0  0  0  0
   18.7144    1.8959   18.3698 H   0  0  0  0  0  0  0  0  0  0  0  0
   15.6555    0.8911   16.5095 H   0  0  0  0  0  0  0  0  0  0  0  0
   13.9210   -0.7004   17.3884 H   0  0  0  0  0  0  0  0  0  0  0  0
   13.5822   -2.7109   19.2051 H   0  0  0  0  0  0  0  0  0  0  0  0
   14.6610   -3.0468   21.7127 H   0  0  0  0  0  0  0  0  0  0  0  0
   17.9309    0.2592   20.1393 H   0  0  0  0  0  0  0  0  0  0  0  0
   18.1588   -5.9121   15.4475 H   0  0  0  0  0  0  0  0  0  0  0  0
   15.5886   -1.9750   15.0114 H   0  0  0  0  0  0  0  0  0  0  0  0
   13.6116   -0.7851   14.1413 H   0  0  0  0  0  0  0  0  0  0  0  0
   11.3356   -1.6421   14.6414 H   0  0  0  0  0  0  0  0  0  0  0  0
   11.0767   -3.6703   16.0407 H   0  0  0  0  0  0  0  0  0  0  0  0
   13.0281   -4.8080   17.0067 H   0  0  0  0  0  0  0  0  0  0  0  0
  1  2  2  0
  2  3  1  0
  3  4  1  0
  4  5  1  0
  5  6  1  0
  6  7  1  0
  7  8  1  0
  8  9  1  0
  9 10  2  0
 10 11  1  0
 11 12  1  0
 12 13  2  0
 13 14  1  0
 14 15  2  0
 15 16  1  0
  2 17  1  0
 17 18  2  0
 18 19  1  0
 19 20  2  0
 20 21  1  0
 21 22  2  0
 22 23  1  0
 23 24  2  0
 24 25  1  0
 25 26  2  0
 20 27  1  0
 16  8  2  0
 27 17  1  0
 15 11  1  0
 26 21  1  0
  4 28  1  0
  4 29  1  0
  5 30  1  0
  5 31  1  0
  6 32  1  0
  7 33  1  0
  7 34  1  0
  9 35  1  0
 10 36  1  0
 12 37  1  0
 13 38  1  0
 16 39  1  0
 18 40  1  0
 22 41  1  0
 23 42  1  0
 24 43  1  0
 25 44  1  0
 26 45  1  0
M  END
>  <Energy>  (916) 
82.022664633797348

>  <compound_id>  (916) 
1212

>  <target_id>  (916) 
1

>  <reference_id>  (916) 
61

>  <inspiration_ids>  (916) 
[86, 61]

>  <energy_score>  (916) 
-62.14161195091083

>  <distance_score>  (916) 
1.9971790434538026

>  <path>  (916) 
/opt/xchem-fragalysis-2/maxwin/BulkDock/SCRATCH/505733/C1212-P61/C1212-P61.minimised.mol

>  <scratch_subdir>  (916) 
/opt/xchem-fragalysis-2/maxwin/BulkDock/SCRATCH/505733/C1212-P61

>  <fragmenstein_runtime>  (916) 
12.016791820526123

>  <fragmenstein_outcome>  (916) 
too moved

>  <fragmenstein_mode>  (916) 
expansion

>  <fragmenstein_error>  (916) 


$$$$
C1213-P86
     RDKit          3D

 24 25  0  0  0  0  0  0  0  0999 V2000
   17.3385   -1.9724   17.7475 O   0  0  0  0  0  0  0  0  0  0  0  0
   17.5333   -3.1714   17.6168 C   0  0  0  0  0  0  0  0  0  0  0  0
   18.6595   -3.6027   17.0040 O   0  0  0  0  0  0  0  0  0  0  0  0
   16.6167   -4.2955   18.0142 C   0  0  0  0  0  0  0  0  0  0  0  0
   15.4146   -4.6101   16.6956 S   0  0  0  0  0  0  0  0  0  0  0  0
   14.0050   -3.9818   17.6334 C   0  0  0  0  0  0  0  0  0  0  0  0
   13.2633   -2.9044   16.8777 C   0  0  0  0  0  0  0  0  0  0  0  0
   12.1491   -3.2609   16.1010 C   0  0  0  0  0  0  0  0  0  0  0  0
   11.4881   -2.3275   15.3013 C   0  0  0  0  0  0  0  0  0  0  0  0
   11.9177   -1.0069   15.2717 C   0  0  0  0  0  0  0  0  0  0  0  0
   13.0120   -0.6246   16.0435 C   0  0  0  0  0  0  0  0  0  0  0  0
   13.6845   -1.5663   16.8348 C   0  0  0  0  0  0  0  0  0  0  0  0
   14.5016   -3.6135   18.9247 N   0  0  0  0  0  0  0  0  0  0  0  0
   15.8018   -3.9526   19.2288 C   0  0  0  0  0  0  0  0  0  0  0  0
   16.2383   -3.9681   20.3728 O   0  0  0  0  0  0  0  0  0  0  0  0
   19.1287   -2.7778   16.7575 H   0  0  0  0  0  0  0  0  0  0  0  0
   17.1883   -5.2048   18.2230 H   0  0  0  0  0  0  0  0  0  0  0  0
   13.3255   -4.8193   17.8172 H   0  0  0  0  0  0  0  0  0  0  0  0
   11.7916   -4.2887   16.1008 H   0  0  0  0  0  0  0  0  0  0  0  0
   10.6450   -2.6367   14.6882 H   0  0  0  0  0  0  0  0  0  0  0  0
   11.4093   -0.2893   14.6327 H   0  0  0  0  0  0  0  0  0  0  0  0
   13.3665    0.4027   16.0129 H   0  0  0  0  0  0  0  0  0  0  0  0
   14.5604   -1.2505   17.4008 H   0  0  0  0  0  0  0  0  0  0  0  0
   13.8627   -3.4388   19.6932 H   0  0  0  0  0  0  0  0  0  0  0  0
  1  2  2  0
  2  3  1  0
  2  4  1  0
  4  5  1  0
  5  6  1  0
  6  7  1  0
  7  8  2  0
  8  9  1  0
  9 10  2  0
 10 11  1  0
 11 12  2  0
  6 13  1  0
 13 14  1  0
 14 15  2  0
 14  4  1  0
 12  7  1  0
  3 16  1  0
  4 17  1  0
  6 18  1  0
  8 19  1  0
  9 20  1  0
 10 21  1  0
 11 22  1  0
 12 23  1  0
 13 24  1  0
M  END
>  <Energy>  (917) 
-10.871739158028078

>  <compound_id>  (917) 
1213

>  <target_id>  (917) 
1

>  <reference_id>  (917) 
86

>  <inspiration_ids>  (917) 
[86, 63]

>  <energy_score>  (917) 
-42.37675706730627

>  <distance_score>  (917) 
1.0778940032666788

>  <path>  (917) 
/opt/xchem-fragalysis-2/maxwin/BulkDock/SCRATCH/505733/C1213-P86/C1213-P86.minimised.mol

>  <scratch_subdir>  (917) 
/opt/xchem-fragalysis-2/maxwin/BulkDock/SCRATCH/505733/C1213-P86

>  <fragmenstein_runtime>  (917) 
13.522353649139404

>  <fragmenstein_outcome>  (917) 
too moved

>  <fragmenstein_mode>  (917) 
expansion

>  <fragmenstein_error>  (917) 


$$$$
C1213-P63
     RDKit          3D

 24 25  0  0  0  0  0  0  0  0999 V2000
   16.0872   -6.6736   19.4612 O   0  0  0  0  0  0  0  0  0  0  0  0
   15.6200   -5.8869   20.2711 C   0  0  0  0  0  0  0  0  0  0  0  0
   15.3553   -6.2986   21.5290 O   0  0  0  0  0  0  0  0  0  0  0  0
   15.2212   -4.4649   20.0039 C   0  0  0  0  0  0  0  0  0  0  0  0
   13.6694   -4.4213   19.0768 S   0  0  0  0  0  0  0  0  0  0  0  0
   14.4015   -3.7748   17.5757 C   0  0  0  0  0  0  0  0  0  0  0  0
   13.5061   -2.8111   16.8219 C   0  0  0  0  0  0  0  0  0  0  0  0
   12.3788   -3.3118   16.1471 C   0  0  0  0  0  0  0  0  0  0  0  0
   11.5719   -2.4913   15.3544 C   0  0  0  0  0  0  0  0  0  0  0  0
   11.8506   -1.1347   15.2495 C   0  0  0  0  0  0  0  0  0  0  0  0
   12.9311   -0.6023   15.9476 C   0  0  0  0  0  0  0  0  0  0  0  0
   13.7515   -1.4322   16.7263 C   0  0  0  0  0  0  0  0  0  0  0  0
   15.6780   -3.2596   17.9766 N   0  0  0  0  0  0  0  0  0  0  0  0
   16.2285   -3.7750   19.1300 C   0  0  0  0  0  0  0  0  0  0  0  0
   17.4129   -3.6644   19.4147 O   0  0  0  0  0  0  0  0  0  0  0  0
   15.6505   -7.2340   21.5415 H   0  0  0  0  0  0  0  0  0  0  0  0
   15.1215   -3.9034   20.9374 H   0  0  0  0  0  0  0  0  0  0  0  0
   14.6250   -4.6111   16.9049 H   0  0  0  0  0  0  0  0  0  0  0  0
   12.1256   -4.3678   16.2278 H   0  0  0  0  0  0  0  0  0  0  0  0
   10.7298   -2.9150   14.8107 H   0  0  0  0  0  0  0  0  0  0  0  0
   11.2268   -0.5036   14.6207 H   0  0  0  0  0  0  0  0  0  0  0  0
   13.1520    0.4600   15.8763 H   0  0  0  0  0  0  0  0  0  0  0  0
   14.5944   -0.9845   17.2491 H   0  0  0  0  0  0  0  0  0  0  0  0
   16.3243   -2.9048   17.2844 H   0  0  0  0  0  0  0  0  0  0  0  0
  1  2  2  0
  2  3  1  0
  2  4  1  0
  4  5  1  0
  5  6  1  0
  6  7  1  0
  7  8  2  0
  8  9  1  0
  9 10  2  0
 10 11  1  0
 11 12  2  0
  6 13  1  0
 13 14  1  0
 14 15  2  0
 14  4  1  0
 12  7  1  0
  3 16  1  0
  4 17  1  0
  6 18  1  0
  8 19  1  0
  9 20  1  0
 10 21  1  0
 11 22  1  0
 12 23  1  0
 13 24  1  0
M  END
>  <Energy>  (918) 
-10.58792821752256

>  <compound_id>  (918) 
1213

>  <target_id>  (918) 
1

>  <reference_id>  (918) 
63

>  <inspiration_ids>  (918) 
[86, 63]

>  <energy_score>  (918) 
-42.09294612680104

>  <distance_score>  (918) 
1.6902994589752713

>  <path>  (918) 
/opt/xchem-fragalysis-2/maxwin/BulkDock/SCRATCH/505733/C1213-P63/C1213-P63.minimised.mol

>  <scratch_subdir>  (918) 
/opt/xchem-fragalysis-2/maxwin/BulkDock/SCRATCH/505733/C1213-P63

>  <fragmenstein_runtime>  (918) 
14.04891562461853

>  <fragmenstein_outcome>  (918) 
too moved

>  <fragmenstein_mode>  (918) 
expansion

>  <fragmenstein_error>  (918) 


$$$$
C1214-P86
     RDKit          3D

 30 32  0  0  0  0  0  0  0  0999 V2000
   14.6099    4.0721   12.5656 O   0  0  0  0  0  0  0  0  0  0  0  0
   13.5767    3.5479   11.7835 N   0  0  0  0  0  0  0  0  0  0  0  0
   13.0705    2.4856   12.3204 C   0  0  0  0  0  0  0  0  0  0  0  0
   12.0434    1.9294   11.6509 O   0  0  0  0  0  0  0  0  0  0  0  0
   13.4660    1.8059   13.6075 C   0  0  0  0  0  0  0  0  0  0  0  0
   12.3426    1.8583   14.6352 C   0  0  0  0  0  0  0  0  0  0  0  0
   12.5230    0.7629   15.6003 N   0  0  0  0  0  0  0  0  0  0  0  0
   12.7729   -0.4583   14.8039 C   0  0  0  0  0  0  0  0  0  0  0  0
   11.4758   -1.2100   14.3767 C   0  0  0  0  0  0  0  0  0  0  0  0
   11.1538   -2.2594   15.3783 N   0  0  0  0  0  0  0  0  0  0  0  0
   12.4404   -2.5370   15.9032 C   0  0  0  0  0  0  0  0  0  0  0  0
   12.7506   -3.6159   16.7073 C   0  0  0  0  0  0  0  0  0  0  0  0
   14.0363   -3.6992   17.2407 C   0  0  0  0  0  0  0  0  0  0  0  0
   14.9917   -2.7127   16.9601 C   0  0  0  0  0  0  0  0  0  0  0  0
   14.6711   -1.6228   16.1529 C   0  0  0  0  0  0  0  0  0  0  0  0
   13.3868   -1.5412   15.6359 C   0  0  0  0  0  0  0  0  0  0  0  0
   13.7769    0.0342   13.3685 S   0  0  0  0  0  0  0  0  0  0  0  0
   14.9493    4.8048   12.0152 H   0  0  0  0  0  0  0  0  0  0  0  0
   11.9946    2.3893   10.7948 H   0  0  0  0  0  0  0  0  0  0  0  0
   14.3813    2.2362   14.0228 H   0  0  0  0  0  0  0  0  0  0  0  0
   12.3562    2.8191   15.1627 H   0  0  0  0  0  0  0  0  0  0  0  0
   11.3490    1.7848   14.1748 H   0  0  0  0  0  0  0  0  0  0  0  0
   13.3743    0.9330   16.1355 H   0  0  0  0  0  0  0  0  0  0  0  0
   10.6288   -0.5248   14.2707 H   0  0  0  0  0  0  0  0  0  0  0  0
   11.6552   -1.7176   13.4215 H   0  0  0  0  0  0  0  0  0  0  0  0
   10.7527   -3.0936   14.9484 H   0  0  0  0  0  0  0  0  0  0  0  0
   12.0086   -4.3721   16.9348 H   0  0  0  0  0  0  0  0  0  0  0  0
   14.2971   -4.5291   17.8915 H   0  0  0  0  0  0  0  0  0  0  0  0
   15.9896   -2.7972   17.3844 H   0  0  0  0  0  0  0  0  0  0  0  0
   15.4136   -0.8587   15.9474 H   0  0  0  0  0  0  0  0  0  0  0  0
  1  2  1  0
  2  3  2  3
  3  4  1  0
  3  5  1  0
  5  6  1  0
  6  7  1  0
  7  8  1  0
  8  9  1  0
  9 10  1  0
 10 11  1  0
 11 12  2  0
 12 13  1  0
 13 14  2  0
 14 15  1  0
 15 16  2  0
  8 17  1  0
 17  5  1  0
 16  8  1  0
 16 11  1  0
  1 18  1  0
  4 19  1  0
  5 20  1  0
  6 21  1  0
  6 22  1  0
  7 23  1  0
  9 24  1  0
  9 25  1  0
 10 26  1  0
 12 27  1  0
 13 28  1  0
 14 29  1  0
 15 30  1  0
M  END
>  <Energy>  (919) 
86.233002642412487

>  <compound_id>  (919) 
1214

>  <target_id>  (919) 
1

>  <reference_id>  (919) 
86

>  <inspiration_ids>  (919) 
[86, 66]

>  <energy_score>  (919) 
-73.98160251088643

>  <distance_score>  (919) 
1.230178825073645

>  <path>  (919) 
/opt/xchem-fragalysis-2/maxwin/BulkDock/SCRATCH/505733/C1214-P86/C1214-P86.minimised.mol

>  <scratch_subdir>  (919) 
/opt/xchem-fragalysis-2/maxwin/BulkDock/SCRATCH/505733/C1214-P86

>  <fragmenstein_runtime>  (919) 
5.859177589416504

>  <fragmenstein_outcome>  (919) 
too moved

>  <fragmenstein_mode>  (919) 
expansion

>  <fragmenstein_error>  (919) 


$$$$
C1214-P66
     RDKit          3D

 30 32  0  0  0  0  0  0  0  0999 V2000
   16.3107    1.5575   11.2210 O   0  0  0  0  0  0  0  0  0  0  0  0
   15.0732    1.8933   10.6624 N   0  0  0  0  0  0  0  0  0  0  0  0
   14.1087    1.6764   11.4971 C   0  0  0  0  0  0  0  0  0  0  0  0
   12.8767    1.9783   11.0544 O   0  0  0  0  0  0  0  0  0  0  0  0
   14.1933    1.1238   12.8979 C   0  0  0  0  0  0  0  0  0  0  0  0
   13.0077    1.4850   13.7851 C   0  0  0  0  0  0  0  0  0  0  0  0
   13.0026    0.5756   14.9407 N   0  0  0  0  0  0  0  0  0  0  0  0
   13.1218   -0.7966   14.3977 C   0  0  0  0  0  0  0  0  0  0  0  0
   11.7497   -1.4960   14.1192 C   0  0  0  0  0  0  0  0  0  0  0  0
   11.4326   -2.4633   15.2001 N   0  0  0  0  0  0  0  0  0  0  0  0
   12.6968   -2.6858   15.7837 C   0  0  0  0  0  0  0  0  0  0  0  0
   12.9680   -3.6534   16.7310 C   0  0  0  0  0  0  0  0  0  0  0  0
   14.2276   -3.6693   17.3279 C   0  0  0  0  0  0  0  0  0  0  0  0
   15.2004   -2.7302   16.9641 C   0  0  0  0  0  0  0  0  0  0  0  0
   14.9266   -1.7638   15.9992 C   0  0  0  0  0  0  0  0  0  0  0  0
   13.6669   -1.7484   15.4175 C   0  0  0  0  0  0  0  0  0  0  0  0
   14.1639   -0.6894   12.8996 S   0  0  0  0  0  0  0  0  0  0  0  0
   16.9273    1.6832   10.4740 H   0  0  0  0  0  0  0  0  0  0  0  0
   12.9798    2.2763   10.1330 H   0  0  0  0  0  0  0  0  0  0  0  0
   15.1210    1.4603   13.3732 H   0  0  0  0  0  0  0  0  0  0  0  0
   13.0915    2.5218   14.1304 H   0  0  0  0  0  0  0  0  0  0  0  0
   12.0429    1.4129   13.2672 H   0  0  0  0  0  0  0  0  0  0  0  0
   13.8464    0.7439   15.4876 H   0  0  0  0  0  0  0  0  0  0  0  0
   10.9507   -0.7522   14.0511 H   0  0  0  0  0  0  0  0  0  0  0  0
   11.7917   -2.0631   13.1846 H   0  0  0  0  0  0  0  0  0  0  0  0
   11.0169   -3.3286   14.8605 H   0  0  0  0  0  0  0  0  0  0  0  0
   12.2141   -4.3748   17.0212 H   0  0  0  0  0  0  0  0  0  0  0  0
   14.4538   -4.4076   18.0921 H   0  0  0  0  0  0  0  0  0  0  0  0
   16.1791   -2.7608   17.4377 H   0  0  0  0  0  0  0  0  0  0  0  0
   15.6891   -1.0457   15.7155 H   0  0  0  0  0  0  0  0  0  0  0  0
  1  2  1  0
  2  3  2  3
  3  4  1  0
  3  5  1  0
  5  6  1  0
  6  7  1  0
  7  8  1  0
  8  9  1  0
  9 10  1  0
 10 11  1  0
 11 12  2  0
 12 13  1  0
 13 14  2  0
 14 15  1  0
 15 16  2  0
  8 17  1  0
 17  5  1  0
 16  8  1  0
 16 11  1  0
  1 18  1  0
  4 19  1  0
  5 20  1  0
  6 21  1  0
  6 22  1  0
  7 23  1  0
  9 24  1  0
  9 25  1  0
 10 26  1  0
 12 27  1  0
 13 28  1  0
 14 29  1  0
 15 30  1  0
M  END
>  <Energy>  (920) 
87.261603539077086

>  <compound_id>  (920) 
1214

>  <target_id>  (920) 
1

>  <reference_id>  (920) 
66

>  <inspiration_ids>  (920) 
[86, 66]

>  <energy_score>  (920) 
-72.95300161422242

>  <distance_score>  (920) 
1.288080924150695

>  <path>  (920) 
/opt/xchem-fragalysis-2/maxwin/BulkDock/SCRATCH/505733/C1214-P66/C1214-P66.minimised.mol

>  <scratch_subdir>  (920) 
/opt/xchem-fragalysis-2/maxwin/BulkDock/SCRATCH/505733/C1214-P66

>  <fragmenstein_runtime>  (920) 
5.900532960891724

>  <fragmenstein_outcome>  (920) 
too moved

>  <fragmenstein_mode>  (920) 
expansion

>  <fragmenstein_error>  (920) 


$$$$
C73-P86
     RDKit          3D

 21 22  0  0  0  0  0  0  0  0999 V2000
   17.6041   -7.2622   16.1450 O   0  0  0  0  0  0  0  0  0  0  0  0
   17.1231   -6.7462   17.1440 C   0  0  0  0  0  0  0  0  0  0  0  0
   17.0498   -7.4437   18.2988 O   0  0  0  0  0  0  0  0  0  0  0  0
   16.5680   -5.4236   17.2441 C   0  0  0  0  0  0  0  0  0  0  0  0
   16.4795   -4.4823   16.2420 C   0  0  0  0  0  0  0  0  0  0  0  0
   15.9314   -3.2680   16.6073 N   0  0  0  0  0  0  0  0  0  0  0  0
   15.6368   -3.2645   17.8951 C   0  0  0  0  0  0  0  0  0  0  0  0
   15.2478   -2.0462   18.6369 C   0  0  0  0  0  0  0  0  0  0  0  0
   14.9900   -2.0228   20.0162 C   0  0  0  0  0  0  0  0  0  0  0  0
   14.7169   -0.8190   20.6766 C   0  0  0  0  0  0  0  0  0  0  0  0
   14.6859    0.3806   19.9709 C   0  0  0  0  0  0  0  0  0  0  0  0
   14.9176    0.3795   18.5999 C   0  0  0  0  0  0  0  0  0  0  0  0
   15.1952   -0.8224   17.9422 C   0  0  0  0  0  0  0  0  0  0  0  0
   15.8518   -4.7919   18.6631 S   0  0  0  0  0  0  0  0  0  0  0  0
   17.3681   -8.3363   18.0497 H   0  0  0  0  0  0  0  0  0  0  0  0
   16.8097   -4.6267   15.2185 H   0  0  0  0  0  0  0  0  0  0  0  0
   15.0033   -2.9309   20.6137 H   0  0  0  0  0  0  0  0  0  0  0  0
   14.5167   -0.8264   21.7466 H   0  0  0  0  0  0  0  0  0  0  0  0
   14.4777    1.3113   20.4919 H   0  0  0  0  0  0  0  0  0  0  0  0
   14.8999    1.3113   18.0408 H   0  0  0  0  0  0  0  0  0  0  0  0
   15.3982   -0.7983   16.8718 H   0  0  0  0  0  0  0  0  0  0  0  0
  1  2  2  0
  2  3  1  0
  2  4  1  0
  4  5  2  0
  5  6  1  0
  6  7  2  0
  7  8  1  0
  8  9  2  0
  9 10  1  0
 10 11  2  0
 11 12  1  0
 12 13  2  0
  7 14  1  0
 14  4  1  0
 13  8  1  0
  3 15  1  0
  5 16  1  0
  9 17  1  0
 10 18  1  0
 11 19  1  0
 12 20  1  0
 13 21  1  0
M  END
>  <Energy>  (921) 
9.4946006849142659

>  <compound_id>  (921) 
73

>  <target_id>  (921) 
1

>  <reference_id>  (921) 
86

>  <inspiration_ids>  (921) 
[86, 80]

>  <energy_score>  (921) 
-71.41271575572685

>  <distance_score>  (921) 
2.430926160004186

>  <path>  (921) 
/opt/xchem-fragalysis-2/maxwin/BulkDock/SCRATCH/505733/C73-P86/C73-P86.minimised.mol

>  <scratch_subdir>  (921) 
/opt/xchem-fragalysis-2/maxwin/BulkDock/SCRATCH/505733/C73-P86

>  <fragmenstein_runtime>  (921) 
8.63628101348877

>  <fragmenstein_outcome>  (921) 
too moved

>  <fragmenstein_mode>  (921) 
expansion

>  <fragmenstein_error>  (921) 


$$$$
C73-P80
     RDKit          3D

 21 22  0  0  0  0  0  0  0  0999 V2000
   17.8851   -7.0544   16.2290 O   0  0  0  0  0  0  0  0  0  0  0  0
   17.4612   -6.5257   17.2468 C   0  0  0  0  0  0  0  0  0  0  0  0
   17.5975   -7.1470   18.4385 O   0  0  0  0  0  0  0  0  0  0  0  0
   16.7749   -5.2660   17.3362 C   0  0  0  0  0  0  0  0  0  0  0  0
   16.5186   -4.3831   16.3097 C   0  0  0  0  0  0  0  0  0  0  0  0
   15.8812   -3.2121   16.6724 N   0  0  0  0  0  0  0  0  0  0  0  0
   15.6767   -3.1856   17.9770 C   0  0  0  0  0  0  0  0  0  0  0  0
   15.2539   -1.9771   18.7151 C   0  0  0  0  0  0  0  0  0  0  0  0
   14.9853   -1.9609   20.0928 C   0  0  0  0  0  0  0  0  0  0  0  0
   14.6878   -0.7634   20.7529 C   0  0  0  0  0  0  0  0  0  0  0  0
   14.6444    0.4361   20.0479 C   0  0  0  0  0  0  0  0  0  0  0  0
   14.8803    0.4404   18.6775 C   0  0  0  0  0  0  0  0  0  0  0  0
   15.1807   -0.7553   18.0196 C   0  0  0  0  0  0  0  0  0  0  0  0
   16.0808   -4.6584   18.7754 S   0  0  0  0  0  0  0  0  0  0  0  0
   18.0173   -8.0016   18.2088 H   0  0  0  0  0  0  0  0  0  0  0  0
   16.7911   -4.5354   15.2706 H   0  0  0  0  0  0  0  0  0  0  0  0
   15.0074   -2.8704   20.6876 H   0  0  0  0  0  0  0  0  0  0  0  0
   14.4776   -0.7737   21.8207 H   0  0  0  0  0  0  0  0  0  0  0  0
   14.4134    1.3636   20.5661 H   0  0  0  0  0  0  0  0  0  0  0  0
   14.8428    1.3730   18.1204 H   0  0  0  0  0  0  0  0  0  0  0  0
   15.3861   -0.7268   16.9499 H   0  0  0  0  0  0  0  0  0  0  0  0
  1  2  2  0
  2  3  1  0
  2  4  1  0
  4  5  2  0
  5  6  1  0
  6  7  2  0
  7  8  1  0
  8  9  2  0
  9 10  1  0
 10 11  2  0
 11 12  1  0
 12 13  2  0
  7 14  1  0
 14  4  1  0
 13  8  1  0
  3 15  1  0
  5 16  1  0
  9 17  1  0
 10 18  1  0
 11 19  1  0
 12 20  1  0
 13 21  1  0
M  END
>  <Energy>  (922) 
9.7570576495631993

>  <compound_id>  (922) 
73

>  <target_id>  (922) 
1

>  <reference_id>  (922) 
80

>  <inspiration_ids>  (922) 
[86, 80]

>  <energy_score>  (922) 
-71.15025879107762

>  <distance_score>  (922) 
2.328938034965903

>  <path>  (922) 
/opt/xchem-fragalysis-2/maxwin/BulkDock/SCRATCH/505733/C73-P80/C73-P80.minimised.mol

>  <scratch_subdir>  (922) 
/opt/xchem-fragalysis-2/maxwin/BulkDock/SCRATCH/505733/C73-P80

>  <fragmenstein_runtime>  (922) 
8.670490264892578

>  <fragmenstein_outcome>  (922) 
too moved

>  <fragmenstein_mode>  (922) 
expansion

>  <fragmenstein_error>  (922) 


$$$$
C1215-P86
     RDKit          3D

 47 49  0  0  0  0  0  0  0  0999 V2000
   15.9268   -2.6842   15.9937 C   0  0  0  0  0  0  0  0  0  0  0  0
   14.8012   -1.9042   16.7040 C   0  0  0  0  0  0  0  0  0  0  0  0
   13.7954   -2.8960   17.2946 C   0  0  0  0  0  0  0  0  0  0  0  0
   12.9321   -3.5431   16.2397 C   0  0  0  0  0  0  0  0  0  0  0  0
   11.9441   -4.2382   16.8596 F   0  0  0  0  0  0  0  0  0  0  0  0
   12.2843   -2.5580   15.2791 C   0  0  0  0  0  0  0  0  0  0  0  0
   13.2549   -1.5135   14.6602 C   0  0  0  0  0  0  0  0  0  0  0  0
   12.3992   -0.7264   13.7617 N   0  0  0  0  0  0  0  0  0  0  0  0
   12.8703    0.3615   12.9658 C   0  0  0  0  0  0  0  0  0  0  0  0
   12.9390    1.5361   13.7192 O   0  0  0  0  0  0  0  0  0  0  0  0
   14.1307    0.0665   12.3333 N   0  0  0  0  0  0  0  0  0  0  0  0
   14.5313    1.2625   11.6032 O   0  0  0  0  0  0  0  0  0  0  0  0
   14.0834   -0.8245   15.8029 C   0  0  0  0  0  0  0  0  0  0  0  0
   13.1843    0.1203   16.6286 C   0  0  0  0  0  0  0  0  0  0  0  0
   14.0166    0.9228   17.5326 N   0  0  0  0  0  0  0  0  0  0  0  0
   15.2056    1.3759   16.7961 C   0  0  0  0  0  0  0  0  0  0  0  0
   15.2383    2.8655   16.5103 C   0  0  0  0  0  0  0  0  0  0  0  0
   14.1285    3.5680   16.0116 C   0  0  0  0  0  0  0  0  0  0  0  0
   14.2021    4.9389   15.7528 C   0  0  0  0  0  0  0  0  0  0  0  0
   15.3878    5.6307   15.9844 C   0  0  0  0  0  0  0  0  0  0  0  0
   16.5019    4.9524   16.4705 C   0  0  0  0  0  0  0  0  0  0  0  0
   16.4288    3.5816   16.7285 C   0  0  0  0  0  0  0  0  0  0  0  0
   15.3725    0.3789   15.2854 S   0  0  0  0  0  0  0  0  0  0  0  0
   15.5868   -3.1697   15.0764 H   0  0  0  0  0  0  0  0  0  0  0  0
   16.3245   -3.4656   16.6514 H   0  0  0  0  0  0  0  0  0  0  0  0
   16.7704   -2.0367   15.7377 H   0  0  0  0  0  0  0  0  0  0  0  0
   15.2772   -1.4128   17.5639 H   0  0  0  0  0  0  0  0  0  0  0  0
   13.1577   -2.4003   18.0221 H   0  0  0  0  0  0  0  0  0  0  0  0
   14.3103   -3.6756   17.8705 H   0  0  0  0  0  0  0  0  0  0  0  0
   13.5393   -4.2734   15.7150 H   0  0  0  0  0  0  0  0  0  0  0  0
   11.4675   -2.0503   15.8104 H   0  0  0  0  0  0  0  0  0  0  0  0
   11.7885   -3.1300   14.4831 H   0  0  0  0  0  0  0  0  0  0  0  0
   13.9541   -2.0674   14.0237 H   0  0  0  0  0  0  0  0  0  0  0  0
   11.5237   -0.4485   14.1938 H   0  0  0  0  0  0  0  0  0  0  0  0
   12.1273    0.5590   12.1883 H   0  0  0  0  0  0  0  0  0  0  0  0
   13.7419    1.9515   13.3533 H   0  0  0  0  0  0  0  0  0  0  0  0
   14.8314    0.0108   13.0786 H   0  0  0  0  0  0  0  0  0  0  0  0
   14.7798    0.8833   10.7359 H   0  0  0  0  0  0  0  0  0  0  0  0
   12.4656   -0.4495   17.2144 H   0  0  0  0  0  0  0  0  0  0  0  0
   12.5834    0.7886   16.0059 H   0  0  0  0  0  0  0  0  0  0  0  0
   13.5097    1.7313   17.8842 H   0  0  0  0  0  0  0  0  0  0  0  0
   16.0647    1.1293   17.4306 H   0  0  0  0  0  0  0  0  0  0  0  0
   13.1935    3.0525   15.8089 H   0  0  0  0  0  0  0  0  0  0  0  0
   13.3337    5.4650   15.3651 H   0  0  0  0  0  0  0  0  0  0  0  0
   15.4458    6.6968   15.7812 H   0  0  0  0  0  0  0  0  0  0  0  0
   17.4311    5.4887   16.6461 H   0  0  0  0  0  0  0  0  0  0  0  0
   17.3158    3.0719   17.1008 H   0  0  0  0  0  0  0  0  0  0  0  0
  1  2  1  0
  2  3  1  0
  3  4  1  0
  4  5  1  0
  4  6  1  0
  6  7  1  0
  7  8  1  0
  8  9  1  0
  9 10  1  0
  9 11  1  0
 11 12  1  0
  7 13  1  0
 13 14  1  0
 14 15  1  0
 15 16  1  0
 16 17  1  0
 17 18  2  0
 18 19  1  0
 19 20  2  0
 20 21  1  0
 21 22  2  0
 16 23  1  0
 13  2  1  0
 22 17  1  0
 23 13  1  0
  1 24  1  0
  1 25  1  0
  1 26  1  0
  2 27  1  0
  3 28  1  0
  3 29  1  0
  4 30  1  0
  6 31  1  0
  6 32  1  0
  7 33  1  0
  8 34  1  0
  9 35  1  0
 10 36  1  0
 11 37  1  0
 12 38  1  0
 14 39  1  0
 14 40  1  0
 15 41  1  0
 16 42  1  0
 18 43  1  0
 19 44  1  0
 20 45  1  0
 21 46  1  0
 22 47  1  0
M  END
>  <Energy>  (923) 
-31.630919671747371

>  <compound_id>  (923) 
1215

>  <target_id>  (923) 
1

>  <reference_id>  (923) 
86

>  <inspiration_ids>  (923) 
[86, 81]

>  <energy_score>  (923) 
-66.30520495689022

>  <distance_score>  (923) 
1.365209902605835

>  <path>  (923) 
/opt/xchem-fragalysis-2/maxwin/BulkDock/SCRATCH/505733/C1215-P86/C1215-P86.minimised.mol

>  <scratch_subdir>  (923) 
/opt/xchem-fragalysis-2/maxwin/BulkDock/SCRATCH/505733/C1215-P86

>  <fragmenstein_runtime>  (923) 
2.0885214805603027

>  <fragmenstein_outcome>  (923) 
too moved

>  <fragmenstein_mode>  (923) 
expansion

>  <fragmenstein_error>  (923) 


$$$$
C1215-P81
     RDKit          3D

 47 49  0  0  0  0  0  0  0  0999 V2000
   15.6342   -2.4810   17.1008 C   0  0  0  0  0  0  0  0  0  0  0  0
   14.3110   -1.6963   17.0559 C   0  0  0  0  0  0  0  0  0  0  0  0
   13.1431   -2.6756   17.2292 C   0  0  0  0  0  0  0  0  0  0  0  0
   12.7834   -3.4879   16.0070 C   0  0  0  0  0  0  0  0  0  0  0  0
   11.6191   -4.1349   16.2650 F   0  0  0  0  0  0  0  0  0  0  0  0
   12.5787   -2.6070   14.7788 C   0  0  0  0  0  0  0  0  0  0  0  0
   13.8366   -1.7582   14.5570 C   0  0  0  0  0  0  0  0  0  0  0  0
   13.7765   -1.0166   13.2870 N   0  0  0  0  0  0  0  0  0  0  0  0
   14.4069   -1.7267   12.2027 C   0  0  0  0  0  0  0  0  0  0  0  0
   14.4293   -0.8890   11.0865 O   0  0  0  0  0  0  0  0  0  0  0  0
   15.7823   -2.0181   12.5191 N   0  0  0  0  0  0  0  0  0  0  0  0
   16.2839   -2.8479   11.4325 O   0  0  0  0  0  0  0  0  0  0  0  0
   14.0846   -0.8245   15.7763 C   0  0  0  0  0  0  0  0  0  0  0  0
   12.9370    0.2103   15.9389 C   0  0  0  0  0  0  0  0  0  0  0  0
   13.3993    1.2729   16.8366 N   0  0  0  0  0  0  0  0  0  0  0  0
   14.7331    1.6969   16.3991 C   0  0  0  0  0  0  0  0  0  0  0  0
   14.6940    3.0002   15.6183 C   0  0  0  0  0  0  0  0  0  0  0  0
   14.2868    3.0782   14.2749 C   0  0  0  0  0  0  0  0  0  0  0  0
   14.2394    4.3054   13.6085 C   0  0  0  0  0  0  0  0  0  0  0  0
   14.5843    5.4774   14.2762 C   0  0  0  0  0  0  0  0  0  0  0  0
   14.9743    5.4247   15.6114 C   0  0  0  0  0  0  0  0  0  0  0  0
   15.0249    4.1981   16.2776 C   0  0  0  0  0  0  0  0  0  0  0  0
   15.5059    0.3182   15.5053 S   0  0  0  0  0  0  0  0  0  0  0  0
   15.7430   -3.1754   16.2634 H   0  0  0  0  0  0  0  0  0  0  0  0
   15.6899   -3.0735   18.0214 H   0  0  0  0  0  0  0  0  0  0  0  0
   16.5018   -1.8152   17.1065 H   0  0  0  0  0  0  0  0  0  0  0  0
   14.3165   -1.0434   17.9394 H   0  0  0  0  0  0  0  0  0  0  0  0
   12.2558   -2.0939   17.4416 H   0  0  0  0  0  0  0  0  0  0  0  0
   13.2945   -3.3341   18.0923 H   0  0  0  0  0  0  0  0  0  0  0  0
   13.5513   -4.2458   15.8421 H   0  0  0  0  0  0  0  0  0  0  0  0
   11.6851   -1.9844   14.9071 H   0  0  0  0  0  0  0  0  0  0  0  0
   12.3550   -3.2330   13.9088 H   0  0  0  0  0  0  0  0  0  0  0  0
   14.6825   -2.4515   14.5344 H   0  0  0  0  0  0  0  0  0  0  0  0
   14.3543   -0.1821   13.3820 H   0  0  0  0  0  0  0  0  0  0  0  0
   13.8546   -2.6401   11.9743 H   0  0  0  0  0  0  0  0  0  0  0  0
   14.9867   -1.3915   10.4673 H   0  0  0  0  0  0  0  0  0  0  0  0
   16.3186   -1.1550   12.4253 H   0  0  0  0  0  0  0  0  0  0  0  0
   16.3504   -3.7236   11.8783 H   0  0  0  0  0  0  0  0  0  0  0  0
   12.0333   -0.2381   16.3584 H   0  0  0  0  0  0  0  0  0  0  0  0
   12.6331    0.6475   14.9800 H   0  0  0  0  0  0  0  0  0  0  0  0
   12.7712    2.0743   16.8060 H   0  0  0  0  0  0  0  0  0  0  0  0
   15.3422    1.8479   17.2973 H   0  0  0  0  0  0  0  0  0  0  0  0
   14.0084    2.1829   13.7247 H   0  0  0  0  0  0  0  0  0  0  0  0
   13.9378    4.3430   12.5648 H   0  0  0  0  0  0  0  0  0  0  0  0
   14.5517    6.4309   13.7559 H   0  0  0  0  0  0  0  0  0  0  0  0
   15.2422    6.3383   16.1362 H   0  0  0  0  0  0  0  0  0  0  0  0
   15.3280    4.1831   17.3233 H   0  0  0  0  0  0  0  0  0  0  0  0
  1  2  1  0
  2  3  1  0
  3  4  1  0
  4  5  1  0
  4  6  1  0
  6  7  1  0
  7  8  1  0
  8  9  1  0
  9 10  1  0
  9 11  1  0
 11 12  1  0
  7 13  1  0
 13 14  1  0
 14 15  1  0
 15 16  1  0
 16 17  1  0
 17 18  2  0
 18 19  1  0
 19 20  2  0
 20 21  1  0
 21 22  2  0
 16 23  1  0
 13  2  1  0
 22 17  1  0
 23 13  1  0
  1 24  1  0
  1 25  1  0
  1 26  1  0
  2 27  1  0
  3 28  1  0
  3 29  1  0
  4 30  1  0
  6 31  1  0
  6 32  1  0
  7 33  1  0
  8 34  1  0
  9 35  1  0
 10 36  1  0
 11 37  1  0
 12 38  1  0
 14 39  1  0
 14 40  1  0
 15 41  1  0
 16 42  1  0
 18 43  1  0
 19 44  1  0
 20 45  1  0
 21 46  1  0
 22 47  1  0
M  END
>  <Energy>  (924) 
-36.389258918329389

>  <compound_id>  (924) 
1215

>  <target_id>  (924) 
1

>  <reference_id>  (924) 
81

>  <inspiration_ids>  (924) 
[86, 81]

>  <energy_score>  (924) 
-71.0635442034746

>  <distance_score>  (924) 
1.4733471743635522

>  <path>  (924) 
/opt/xchem-fragalysis-2/maxwin/BulkDock/SCRATCH/505733/C1215-P81/C1215-P81.minimised.mol

>  <scratch_subdir>  (924) 
/opt/xchem-fragalysis-2/maxwin/BulkDock/SCRATCH/505733/C1215-P81

>  <fragmenstein_runtime>  (924) 
1.553354024887085

>  <fragmenstein_outcome>  (924) 
too moved

>  <fragmenstein_mode>  (924) 
expansion

>  <fragmenstein_error>  (924) 


$$$$
C1216-P86
     RDKit          3D

 42 44  0  0  0  0  0  0  0  0999 V2000
   10.8332   -1.0087   14.8821 N   0  0  0  0  0  0  0  0  0  0  0  0
   11.9353   -1.5957   15.6420 C   0  0  0  0  0  0  0  0  0  0  0  0
   12.4952   -0.4735   16.5161 C   0  0  0  0  0  0  0  0  0  0  0  0
   13.8151   -0.7039   17.2571 C   0  0  0  0  0  0  0  0  0  0  0  0
   14.6312   -1.8468   16.6733 C   0  0  0  0  0  0  0  0  0  0  0  0
   14.0850   -3.3818   17.5873 S   0  0  0  0  0  0  0  0  0  0  0  0
   15.4660   -4.5001   17.3109 C   0  0  0  0  0  0  0  0  0  0  0  0
   16.6272   -3.9519   17.7342 F   0  0  0  0  0  0  0  0  0  0  0  0
   15.2713   -5.6157   18.0618 F   0  0  0  0  0  0  0  0  0  0  0  0
   14.4088   -1.8028   15.1317 C   0  0  0  0  0  0  0  0  0  0  0  0
   14.5956   -0.3625   14.5061 C   0  0  0  0  0  0  0  0  0  0  0  0
   15.3049   -0.4082   13.2281 N   0  0  0  0  0  0  0  0  0  0  0  0
   16.4501   -1.2343   13.5257 C   0  0  0  0  0  0  0  0  0  0  0  0
   17.2759   -1.5424   12.3225 C   0  0  0  0  0  0  0  0  0  0  0  0
   18.5271   -0.9247   12.2356 C   0  0  0  0  0  0  0  0  0  0  0  0
   19.4392   -1.3351   11.2792 C   0  0  0  0  0  0  0  0  0  0  0  0
   19.1047   -2.3532   10.3954 C   0  0  0  0  0  0  0  0  0  0  0  0
   17.8387   -2.9190   10.4256 C   0  0  0  0  0  0  0  0  0  0  0  0
   16.9038   -2.4851   11.3561 C   0  0  0  0  0  0  0  0  0  0  0  0
   15.8155   -2.6851   14.3793 S   0  0  0  0  0  0  0  0  0  0  0  0
   12.9906   -2.3306   14.7963 C   0  0  0  0  0  0  0  0  0  0  0  0
   12.6353   -2.2238   13.4196 O   0  0  0  0  0  0  0  0  0  0  0  0
   11.2118   -0.3973   14.1520 H   0  0  0  0  0  0  0  0  0  0  0  0
   10.4048   -1.7226   14.2664 H   0  0  0  0  0  0  0  0  0  0  0  0
   11.4901   -2.3413   16.3096 H   0  0  0  0  0  0  0  0  0  0  0  0
   11.7220   -0.2810   17.2283 H   0  0  0  0  0  0  0  0  0  0  0  0
   12.5606    0.4762   15.9700 H   0  0  0  0  0  0  0  0  0  0  0  0
   14.3946    0.2270   17.1841 H   0  0  0  0  0  0  0  0  0  0  0  0
   13.6897   -0.8054   18.3352 H   0  0  0  0  0  0  0  0  0  0  0  0
   15.6790   -1.6676   16.9455 H   0  0  0  0  0  0  0  0  0  0  0  0
   15.5589   -4.8130   16.2707 H   0  0  0  0  0  0  0  0  0  0  0  0
   13.6488    0.1401   14.2987 H   0  0  0  0  0  0  0  0  0  0  0  0
   15.1605    0.2969   15.1767 H   0  0  0  0  0  0  0  0  0  0  0  0
   14.7289   -0.8928   12.5419 H   0  0  0  0  0  0  0  0  0  0  0  0
   17.0855   -0.7164   14.2572 H   0  0  0  0  0  0  0  0  0  0  0  0
   18.8258   -0.1605   12.9500 H   0  0  0  0  0  0  0  0  0  0  0  0
   20.4263   -0.8820   11.2365 H   0  0  0  0  0  0  0  0  0  0  0  0
   19.8363   -2.7008    9.6698 H   0  0  0  0  0  0  0  0  0  0  0  0
   17.6101   -3.7286    9.7451 H   0  0  0  0  0  0  0  0  0  0  0  0
   15.9251   -2.9557   11.3851 H   0  0  0  0  0  0  0  0  0  0  0  0
   12.8928   -3.3886   15.0485 H   0  0  0  0  0  0  0  0  0  0  0  0
   13.2910   -2.7053   12.8888 H   0  0  0  0  0  0  0  0  0  0  0  0
  1  2  1  0
  2  3  1  0
  3  4  1  0
  4  5  1  0
  5  6  1  0
  6  7  1  0
  7  8  1  0
  7  9  1  0
  5 10  1  0
 10 11  1  0
 11 12  1  0
 12 13  1  0
 13 14  1  0
 14 15  2  0
 15 16  1  0
 16 17  2  0
 17 18  1  0
 18 19  2  0
 13 20  1  0
 10 21  1  0
 21 22  1  0
 21  2  1  0
 20 10  1  0
 19 14  1  0
  1 23  1  0
  1 24  1  0
  2 25  1  0
  3 26  1  0
  3 27  1  0
  4 28  1  0
  4 29  1  0
  5 30  1  0
  7 31  1  0
 11 32  1  0
 11 33  1  0
 12 34  1  0
 13 35  1  0
 15 36  1  0
 16 37  1  0
 17 38  1  0
 18 39  1  0
 19 40  1  0
 21 41  1  0
 22 42  1  0
M  END
>  <Energy>  (925) 
90.180073935062637

>  <compound_id>  (925) 
1216

>  <target_id>  (925) 
1

>  <reference_id>  (925) 
86

>  <inspiration_ids>  (925) 
[86, 83]

>  <energy_score>  (925) 
-46.21051809758555

>  <distance_score>  (925) 
2.4380621913780756

>  <path>  (925) 
/opt/xchem-fragalysis-2/maxwin/BulkDock/SCRATCH/505733/C1216-P86/C1216-P86.minimised.mol

>  <scratch_subdir>  (925) 
/opt/xchem-fragalysis-2/maxwin/BulkDock/SCRATCH/505733/C1216-P86

>  <fragmenstein_runtime>  (925) 
6.2061076164245605

>  <fragmenstein_outcome>  (925) 
too moved

>  <fragmenstein_mode>  (925) 
expansion

>  <fragmenstein_error>  (925) 


$$$$
C1216-P83
     RDKit          3D

 42 44  0  0  0  0  0  0  0  0999 V2000
   10.7599   -1.8190   14.9885 N   0  0  0  0  0  0  0  0  0  0  0  0
   12.0237   -2.0400   15.6980 C   0  0  0  0  0  0  0  0  0  0  0  0
   12.9827   -0.8645   15.4460 C   0  0  0  0  0  0  0  0  0  0  0  0
   14.3864   -1.0489   16.0453 C   0  0  0  0  0  0  0  0  0  0  0  0
   14.7896   -2.5064   16.2865 C   0  0  0  0  0  0  0  0  0  0  0  0
   14.3262   -2.9498   18.0528 S   0  0  0  0  0  0  0  0  0  0  0  0
   15.3634   -4.3833   18.4153 C   0  0  0  0  0  0  0  0  0  0  0  0
   16.5258   -4.3421   17.7219 F   0  0  0  0  0  0  0  0  0  0  0  0
   15.7103   -4.3527   19.7291 F   0  0  0  0  0  0  0  0  0  0  0  0
   14.1373   -3.3963   15.1921 C   0  0  0  0  0  0  0  0  0  0  0  0
   14.9652   -4.6680   15.0756 C   0  0  0  0  0  0  0  0  0  0  0  0
   16.2668   -4.2882   14.4623 N   0  0  0  0  0  0  0  0  0  0  0  0
   15.9526   -3.5734   13.2247 C   0  0  0  0  0  0  0  0  0  0  0  0
   16.9463   -2.5811   12.6944 C   0  0  0  0  0  0  0  0  0  0  0  0
   17.6035   -1.6719   13.5257 C   0  0  0  0  0  0  0  0  0  0  0  0
   18.4961   -0.7615   12.9805 C   0  0  0  0  0  0  0  0  0  0  0  0
   18.7280   -0.7526   11.6058 C   0  0  0  0  0  0  0  0  0  0  0  0
   18.0590   -1.6313   10.7606 C   0  0  0  0  0  0  0  0  0  0  0  0
   17.1599   -2.5340   11.3009 C   0  0  0  0  0  0  0  0  0  0  0  0
   14.3704   -2.7753   13.4428 S   0  0  0  0  0  0  0  0  0  0  0  0
   12.6147   -3.4684   15.4425 C   0  0  0  0  0  0  0  0  0  0  0  0
   11.8528   -4.1184   14.4180 O   0  0  0  0  0  0  0  0  0  0  0  0
   10.4785   -0.8384   15.0328 H   0  0  0  0  0  0  0  0  0  0  0  0
   10.8925   -1.9581   13.9750 H   0  0  0  0  0  0  0  0  0  0  0  0
   11.7694   -2.0278   16.7593 H   0  0  0  0  0  0  0  0  0  0  0  0
   12.5465    0.0716   15.8030 H   0  0  0  0  0  0  0  0  0  0  0  0
   13.0655   -0.6727   14.3694 H   0  0  0  0  0  0  0  0  0  0  0  0
   15.0990   -0.5911   15.3452 H   0  0  0  0  0  0  0  0  0  0  0  0
   14.5234   -0.4715   16.9575 H   0  0  0  0  0  0  0  0  0  0  0  0
   15.8835   -2.5348   16.2648 H   0  0  0  0  0  0  0  0  0  0  0  0
   14.8415   -5.3179   18.2227 H   0  0  0  0  0  0  0  0  0  0  0  0
   14.4423   -5.4362   14.5255 H   0  0  0  0  0  0  0  0  0  0  0  0
   15.1659   -5.1274   16.0370 H   0  0  0  0  0  0  0  0  0  0  0  0
   16.7836   -5.1292   14.2085 H   0  0  0  0  0  0  0  0  0  0  0  0
   15.8775   -4.3151   12.4436 H   0  0  0  0  0  0  0  0  0  0  0  0
   17.4376   -1.6868   14.5991 H   0  0  0  0  0  0  0  0  0  0  0  0
   19.0219   -0.0625   13.6251 H   0  0  0  0  0  0  0  0  0  0  0  0
   19.4369   -0.0412   11.1884 H   0  0  0  0  0  0  0  0  0  0  0  0
   18.2426   -1.6088    9.6909 H   0  0  0  0  0  0  0  0  0  0  0  0
   16.6357   -3.2192   10.6376 H   0  0  0  0  0  0  0  0  0  0  0  0
   12.4232   -4.0833   16.3303 H   0  0  0  0  0  0  0  0  0  0  0  0
   10.9275   -3.8730   14.6243 H   0  0  0  0  0  0  0  0  0  0  0  0
  1  2  1  0
  2  3  1  0
  3  4  1  0
  4  5  1  0
  5  6  1  0
  6  7  1  0
  7  8  1  0
  7  9  1  0
  5 10  1  0
 10 11  1  0
 11 12  1  0
 12 13  1  0
 13 14  1  0
 14 15  2  0
 15 16  1  0
 16 17  2  0
 17 18  1  0
 18 19  2  0
 13 20  1  0
 10 21  1  0
 21 22  1  0
 21  2  1  0
 20 10  1  0
 19 14  1  0
  1 23  1  0
  1 24  1  0
  2 25  1  0
  3 26  1  0
  3 27  1  0
  4 28  1  0
  4 29  1  0
  5 30  1  0
  7 31  1  0
 11 32  1  0
 11 33  1  0
 12 34  1  0
 13 35  1  0
 15 36  1  0
 16 37  1  0
 17 38  1  0
 18 39  1  0
 19 40  1  0
 21 41  1  0
 22 42  1  0
M  END
>  <Energy>  (926) 
86.950897453615156

>  <compound_id>  (926) 
1216

>  <target_id>  (926) 
1

>  <reference_id>  (926) 
83

>  <inspiration_ids>  (926) 
[86, 83]

>  <energy_score>  (926) 
-49.43969457903552

>  <distance_score>  (926) 
2.0664289007448384

>  <path>  (926) 
/opt/xchem-fragalysis-2/maxwin/BulkDock/SCRATCH/505733/C1216-P83/C1216-P83.minimised.mol

>  <scratch_subdir>  (926) 
/opt/xchem-fragalysis-2/maxwin/BulkDock/SCRATCH/505733/C1216-P83

>  <fragmenstein_runtime>  (926) 
6.320374250411987

>  <fragmenstein_outcome>  (926) 
too moved

>  <fragmenstein_mode>  (926) 
expansion

>  <fragmenstein_error>  (926) 


$$$$
C1217-P86
     RDKit          3D

 35 37  0  0  0  0  0  0  0  0999 V2000
   19.4812   -4.4016   18.0573 O   0  0  0  0  0  0  0  0  0  0  0  0
   18.3581   -4.7338   18.4054 C   0  0  0  0  0  0  0  0  0  0  0  0
   18.2038   -5.7276   19.3028 O   0  0  0  0  0  0  0  0  0  0  0  0
   17.0833   -4.1283   17.9054 C   0  0  0  0  0  0  0  0  0  0  0  0
   16.1770   -5.1414   17.1819 C   0  0  0  0  0  0  0  0  0  0  0  0
   14.8613   -5.2779   17.8891 N   0  0  0  0  0  0  0  0  0  0  0  0
   14.5007   -3.9355   18.3982 C   0  0  0  0  0  0  0  0  0  0  0  0
   13.9462   -3.0845   17.2640 C   0  0  0  0  0  0  0  0  0  0  0  0
   14.5731   -2.0000   16.6389 C   0  0  0  0  0  0  0  0  0  0  0  0
   13.9632   -1.3247   15.5692 C   0  0  0  0  0  0  0  0  0  0  0  0
   12.7223   -1.7313   15.0854 C   0  0  0  0  0  0  0  0  0  0  0  0
   12.0904   -2.8208   15.6652 C   0  0  0  0  0  0  0  0  0  0  0  0
   12.6968   -3.4825   16.7365 C   0  0  0  0  0  0  0  0  0  0  0  0
   16.0229   -3.4654   19.1289 S   0  0  0  0  0  0  0  0  0  0  0  0
   16.2699   -1.7733   19.5298 C   0  0  0  0  0  0  0  0  0  0  0  0
   16.3387   -1.7391   20.9967 N   0  0  0  0  0  0  0  0  0  0  0  0
   16.7940   -3.0244   21.5445 C   0  0  0  0  0  0  0  0  0  0  0  0
   16.2463   -4.0864   20.7019 N   0  0  0  0  0  0  0  0  0  0  0  0
   19.1205   -6.0329   19.4750 H   0  0  0  0  0  0  0  0  0  0  0  0
   17.3425   -3.3073   17.2286 H   0  0  0  0  0  0  0  0  0  0  0  0
   15.9891   -4.8035   16.1556 H   0  0  0  0  0  0  0  0  0  0  0  0
   16.6450   -6.1283   17.0972 H   0  0  0  0  0  0  0  0  0  0  0  0
   15.0555   -5.8218   18.7374 H   0  0  0  0  0  0  0  0  0  0  0  0
   13.7559   -4.0127   19.1977 H   0  0  0  0  0  0  0  0  0  0  0  0
   15.5575   -1.6627   16.9409 H   0  0  0  0  0  0  0  0  0  0  0  0
   14.4749   -0.4884   15.0988 H   0  0  0  0  0  0  0  0  0  0  0  0
   12.2610   -1.2216   14.2427 H   0  0  0  0  0  0  0  0  0  0  0  0
   11.1429   -3.1755   15.2669 H   0  0  0  0  0  0  0  0  0  0  0  0
   12.1967   -4.3543   17.1550 H   0  0  0  0  0  0  0  0  0  0  0  0
   17.2096   -1.4462   19.0783 H   0  0  0  0  0  0  0  0  0  0  0  0
   15.4361   -1.1644   19.1827 H   0  0  0  0  0  0  0  0  0  0  0  0
   16.9302   -0.9814   21.3211 H   0  0  0  0  0  0  0  0  0  0  0  0
   17.8890   -3.0604   21.5143 H   0  0  0  0  0  0  0  0  0  0  0  0
   16.4684   -3.1415   22.5815 H   0  0  0  0  0  0  0  0  0  0  0  0
   16.8670   -4.8970   20.7281 H   0  0  0  0  0  0  0  0  0  0  0  0
  1  2  2  0
  2  3  1  0
  2  4  1  0
  4  5  1  0
  5  6  1  0
  6  7  1  0
  7  8  1  0
  8  9  2  0
  9 10  1  0
 10 11  2  0
 11 12  1  0
 12 13  2  0
  7 14  1  0
 14 15  1  0
 15 16  1  0
 16 17  1  0
 17 18  1  0
 14  4  1  0
 13  8  1  0
 18 14  1  0
  3 19  1  0
  4 20  1  0
  5 21  1  0
  5 22  1  0
  6 23  1  0
  7 24  1  0
  9 25  1  0
 10 26  1  0
 11 27  1  0
 12 28  1  0
 13 29  1  0
 15 30  1  0
 15 31  1  0
 16 32  1  0
 17 33  1  0
 17 34  1  0
 18 35  1  0
M  END
>  <Energy>  (927) 
36.500367818255334

>  <compound_id>  (927) 
1217

>  <target_id>  (927) 
1

>  <reference_id>  (927) 
86

>  <inspiration_ids>  (927) 
[86, 93]

>  <energy_score>  (927) 
-36.385027981110596

>  <distance_score>  (927) 
1.3529306831582595

>  <path>  (927) 
/opt/xchem-fragalysis-2/maxwin/BulkDock/SCRATCH/505733/C1217-P86/C1217-P86.minimised.mol

>  <scratch_subdir>  (927) 
/opt/xchem-fragalysis-2/maxwin/BulkDock/SCRATCH/505733/C1217-P86

>  <fragmenstein_runtime>  (927) 
49.80343747138977

>  <fragmenstein_outcome>  (927) 
too moved

>  <fragmenstein_mode>  (927) 
expansion

>  <fragmenstein_error>  (927) 


$$$$
C1217-P93
     RDKit          3D

 35 37  0  0  0  0  0  0  0  0999 V2000
   17.7793   -7.1383   17.7599 O   0  0  0  0  0  0  0  0  0  0  0  0
   17.2109   -6.4137   18.5631 C   0  0  0  0  0  0  0  0  0  0  0  0
   16.6384   -6.9526   19.6587 O   0  0  0  0  0  0  0  0  0  0  0  0
   17.1221   -4.9241   18.4687 C   0  0  0  0  0  0  0  0  0  0  0  0
   17.0674   -4.4690   17.0105 C   0  0  0  0  0  0  0  0  0  0  0  0
   16.6788   -3.0468   17.0087 N   0  0  0  0  0  0  0  0  0  0  0  0
   15.5438   -2.8628   17.9309 C   0  0  0  0  0  0  0  0  0  0  0  0
   14.2531   -2.7034   17.1547 C   0  0  0  0  0  0  0  0  0  0  0  0
   14.0743   -1.4625   16.4951 C   0  0  0  0  0  0  0  0  0  0  0  0
   12.9985   -1.2230   15.6373 C   0  0  0  0  0  0  0  0  0  0  0  0
   12.0574   -2.2185   15.4252 C   0  0  0  0  0  0  0  0  0  0  0  0
   12.2016   -3.4398   16.0773 C   0  0  0  0  0  0  0  0  0  0  0  0
   13.2935   -3.6870   16.9216 C   0  0  0  0  0  0  0  0  0  0  0  0
   15.6910   -4.1472   19.1092 S   0  0  0  0  0  0  0  0  0  0  0  0
   16.0766   -3.4413   20.6916 C   0  0  0  0  0  0  0  0  0  0  0  0
   15.2244   -4.1870   21.6430 N   0  0  0  0  0  0  0  0  0  0  0  0
   13.9759   -4.5577   20.9483 C   0  0  0  0  0  0  0  0  0  0  0  0
   14.3912   -5.1058   19.6483 N   0  0  0  0  0  0  0  0  0  0  0  0
   16.7546   -7.9184   19.5093 H   0  0  0  0  0  0  0  0  0  0  0  0
   17.9937   -4.4957   18.9741 H   0  0  0  0  0  0  0  0  0  0  0  0
   18.0423   -4.5886   16.5260 H   0  0  0  0  0  0  0  0  0  0  0  0
   16.3423   -5.0436   16.4243 H   0  0  0  0  0  0  0  0  0  0  0  0
   16.4050   -2.7750   16.0637 H   0  0  0  0  0  0  0  0  0  0  0  0
   15.7125   -1.9310   18.4826 H   0  0  0  0  0  0  0  0  0  0  0  0
   14.8139   -0.6726   16.6260 H   0  0  0  0  0  0  0  0  0  0  0  0
   12.9069   -0.2688   15.1260 H   0  0  0  0  0  0  0  0  0  0  0  0
   11.2232   -2.0550   14.7459 H   0  0  0  0  0  0  0  0  0  0  0  0
   11.4708   -4.2265   15.9143 H   0  0  0  0  0  0  0  0  0  0  0  0
   13.3773   -4.6706   17.3670 H   0  0  0  0  0  0  0  0  0  0  0  0
   17.1356   -3.5641   20.9234 H   0  0  0  0  0  0  0  0  0  0  0  0
   15.8094   -2.3824   20.6917 H   0  0  0  0  0  0  0  0  0  0  0  0
   15.7042   -5.0591   21.8548 H   0  0  0  0  0  0  0  0  0  0  0  0
   13.4097   -5.2955   21.5247 H   0  0  0  0  0  0  0  0  0  0  0  0
   13.3437   -3.6768   20.8027 H   0  0  0  0  0  0  0  0  0  0  0  0
   14.7755   -6.0242   19.8890 H   0  0  0  0  0  0  0  0  0  0  0  0
  1  2  2  0
  2  3  1  0
  2  4  1  0
  4  5  1  0
  5  6  1  0
  6  7  1  0
  7  8  1  0
  8  9  2  0
  9 10  1  0
 10 11  2  0
 11 12  1  0
 12 13  2  0
  7 14  1  0
 14 15  1  0
 15 16  1  0
 16 17  1  0
 17 18  1  0
 14  4  1  0
 13  8  1  0
 18 14  1  0
  3 19  1  0
  4 20  1  0
  5 21  1  0
  5 22  1  0
  6 23  1  0
  7 24  1  0
  9 25  1  0
 10 26  1  0
 11 27  1  0
 12 28  1  0
 13 29  1  0
 15 30  1  0
 15 31  1  0
 16 32  1  0
 17 33  1  0
 17 34  1  0
 18 35  1  0
M  END
>  <Energy>  (928) 
25.07040449021742

>  <compound_id>  (928) 
1217

>  <target_id>  (928) 
1

>  <reference_id>  (928) 
93

>  <inspiration_ids>  (928) 
[86, 93]

>  <energy_score>  (928) 
-47.814991309149235

>  <distance_score>  (928) 
1.8737805615969383

>  <path>  (928) 
/opt/xchem-fragalysis-2/maxwin/BulkDock/SCRATCH/505733/C1217-P93/C1217-P93.minimised.mol

>  <scratch_subdir>  (928) 
/opt/xchem-fragalysis-2/maxwin/BulkDock/SCRATCH/505733/C1217-P93

>  <fragmenstein_runtime>  (928) 
49.93120288848877

>  <fragmenstein_outcome>  (928) 
too moved

>  <fragmenstein_mode>  (928) 
expansion

>  <fragmenstein_error>  (928) 


$$$$
C73-P86
     RDKit          2D

  0  0  0  0  0  0  0  0  0  0999 V2000
M  END
>  <compound_id>  (929) 
73

>  <target_id>  (929) 
1

>  <reference_id>  (929) 
86

>  <inspiration_ids>  (929) 
[86, 97]

>  <energy_score>  (929) 
nan

>  <distance_score>  (929) 
nan

>  <path>  (929) 
/opt/xchem-fragalysis-2/maxwin/BulkDock/SCRATCH/505733/C73-P86/C73-P86.minimised.mol

>  <scratch_subdir>  (929) 
/opt/xchem-fragalysis-2/maxwin/BulkDock/SCRATCH/505733/C73-P86

>  <fragmenstein_runtime>  (929) 
1.6663479804992676

>  <fragmenstein_outcome>  (929) 
too distant

>  <fragmenstein_mode>  (929) 
expansion

>  <fragmenstein_error>  (929) 
DistanceError: hit0

$$$$
C1219-P86
     RDKit          3D

 63 66  0  0  0  0  0  0  0  0999 V2000
   12.3852    2.4214   25.2901 C   0  0  0  0  0  0  0  0  0  0  0  0
   12.4287    3.8813   25.3760 N   0  0  0  0  0  0  0  0  0  0  0  0
   13.5663    4.2694   26.2062 C   0  0  0  0  0  0  0  0  0  0  0  0
   12.0680    4.7817   23.9626 S   0  0  0  0  0  0  0  0  0  0  0  0
   10.8260    4.1878   23.4956 O   0  0  0  0  0  0  0  0  0  0  0  0
   13.3647    4.7078   23.1397 N   0  0  0  0  0  0  0  0  0  0  0  0
   13.3921    3.7756   22.0061 C   0  0  0  0  0  0  0  0  0  0  0  0
   14.7296    3.8695   21.2868 C   0  0  0  0  0  0  0  0  0  0  0  0
   14.7639    2.8627   20.1451 C   0  0  0  0  0  0  0  0  0  0  0  0
   15.9768    3.0396   19.3917 O   0  0  0  0  0  0  0  0  0  0  0  0
   16.7764    1.9441   19.2106 C   0  0  0  0  0  0  0  0  0  0  0  0
   17.9523    1.9627   19.5550 O   0  0  0  0  0  0  0  0  0  0  0  0
   16.1425    0.8155   18.5628 C   0  0  0  0  0  0  0  0  0  0  0  0
   16.5452   -0.5019   18.6283 C   0  0  0  0  0  0  0  0  0  0  0  0
   15.7559   -1.4085   17.9504 N   0  0  0  0  0  0  0  0  0  0  0  0
   14.7951   -0.7793   17.3055 C   0  0  0  0  0  0  0  0  0  0  0  0
   13.7420   -1.4494   16.5313 C   0  0  0  0  0  0  0  0  0  0  0  0
   13.1086   -0.8380   15.4396 C   0  0  0  0  0  0  0  0  0  0  0  0
   12.0921   -1.4949   14.7477 C   0  0  0  0  0  0  0  0  0  0  0  0
   11.6976   -2.7710   15.1347 C   0  0  0  0  0  0  0  0  0  0  0  0
   12.3266   -3.4008   16.2038 C   0  0  0  0  0  0  0  0  0  0  0  0
   13.3469   -2.7470   16.8933 C   0  0  0  0  0  0  0  0  0  0  0  0
   14.8007    0.9323   17.5059 S   0  0  0  0  0  0  0  0  0  0  0  0
   11.7130    6.4633   24.3478 C   0  0  0  0  0  0  0  0  0  0  0  0
   10.7748    6.6663   25.5286 C   0  0  0  0  0  0  0  0  0  0  0  0
   11.1160    8.0754   25.9819 C   0  0  0  0  0  0  0  0  0  0  0  0
   12.5654    8.0809   25.8487 N   0  0  0  0  0  0  0  0  0  0  0  0
   13.2655    9.3326   26.1056 C   0  0  0  0  0  0  0  0  0  0  0  0
   12.8844   10.4439   25.1955 C   0  0  0  0  0  0  0  0  0  0  0  0
   13.4055   10.7329   23.9523 C   0  0  0  0  0  0  0  0  0  0  0  0
   12.8226   11.8445   23.4424 O   0  0  0  0  0  0  0  0  0  0  0  0
   11.9067   12.3378   24.3552 N   0  0  0  0  0  0  0  0  0  0  0  0
   11.9673   11.5027   25.3933 C   0  0  0  0  0  0  0  0  0  0  0  0
   10.9265   11.7580   26.9411 Br  0  0  0  0  0  0  0  0  0  0  0  0
   12.9258    7.3411   24.6357 C   0  0  0  0  0  0  0  0  0  0  0  0
   11.4677    2.0813   24.7988 H   0  0  0  0  0  0  0  0  0  0  0  0
   13.2383    2.0263   24.7283 H   0  0  0  0  0  0  0  0  0  0  0  0
   12.3830    1.9645   26.2862 H   0  0  0  0  0  0  0  0  0  0  0  0
   13.5907    3.6999   27.1426 H   0  0  0  0  0  0  0  0  0  0  0  0
   14.5187    4.1181   25.6877 H   0  0  0  0  0  0  0  0  0  0  0  0
   13.4945    5.3179   26.5033 H   0  0  0  0  0  0  0  0  0  0  0  0
   12.5861    4.0222   21.3045 H   0  0  0  0  0  0  0  0  0  0  0  0
   13.2317    2.7508   22.3600 H   0  0  0  0  0  0  0  0  0  0  0  0
   14.8928    4.8825   20.8975 H   0  0  0  0  0  0  0  0  0  0  0  0
   15.5627    3.6750   21.9742 H   0  0  0  0  0  0  0  0  0  0  0  0
   14.6826    1.8465   20.5495 H   0  0  0  0  0  0  0  0  0  0  0  0
   13.9225    3.0439   19.4678 H   0  0  0  0  0  0  0  0  0  0  0  0
   17.4009   -0.8622   19.1895 H   0  0  0  0  0  0  0  0  0  0  0  0
   13.4040    0.1508   15.0970 H   0  0  0  0  0  0  0  0  0  0  0  0
   11.6130   -1.0154   13.8971 H   0  0  0  0  0  0  0  0  0  0  0  0
   10.9120   -3.2823   14.5851 H   0  0  0  0  0  0  0  0  0  0  0  0
   12.0309   -4.4050   16.4967 H   0  0  0  0  0  0  0  0  0  0  0  0
   13.8325   -3.2522   17.7273 H   0  0  0  0  0  0  0  0  0  0  0  0
   11.2149    6.8596   23.4510 H   0  0  0  0  0  0  0  0  0  0  0  0
   10.9666    5.9519   26.3368 H   0  0  0  0  0  0  0  0  0  0  0  0
    9.7235    6.5680   25.2398 H   0  0  0  0  0  0  0  0  0  0  0  0
   10.7911    8.2522   27.0115 H   0  0  0  0  0  0  0  0  0  0  0  0
   10.6316    8.8023   25.3203 H   0  0  0  0  0  0  0  0  0  0  0  0
   13.0978    9.6240   27.1491 H   0  0  0  0  0  0  0  0  0  0  0  0
   14.3472    9.1591   26.0336 H   0  0  0  0  0  0  0  0  0  0  0  0
   14.1542   10.2731   23.3235 H   0  0  0  0  0  0  0  0  0  0  0  0
   13.8530    6.7874   24.8035 H   0  0  0  0  0  0  0  0  0  0  0  0
   13.0906    7.9976   23.7755 H   0  0  0  0  0  0  0  0  0  0  0  0
  1  2  1  0
  2  3  1  0
  2  4  1  0
  4  5  2  0
  4  6  2  0
  6  7  1  0
  7  8  1  0
  8  9  1  0
  9 10  1  0
 10 11  1  0
 11 12  2  0
 11 13  1  0
 13 14  2  0
 14 15  1  0
 15 16  2  0
 16 17  1  0
 17 18  2  0
 18 19  1  0
 19 20  2  0
 20 21  1  0
 21 22  2  0
 16 23  1  0
  4 24  1  0
 24 25  1  0
 25 26  1  0
 26 27  1  0
 27 28  1  0
 28 29  1  0
 29 30  2  0
 30 31  1  0
 31 32  1  0
 32 33  2  0
 33 34  1  0
 27 35  1  0
 23 13  1  0
 35 24  1  0
 22 17  1  0
 33 29  1  0
  1 36  1  0
  1 37  1  0
  1 38  1  0
  3 39  1  0
  3 40  1  0
  3 41  1  0
  7 42  1  0
  7 43  1  0
  8 44  1  0
  8 45  1  0
  9 46  1  0
  9 47  1  0
 14 48  1  0
 18 49  1  0
 19 50  1  0
 20 51  1  0
 21 52  1  0
 22 53  1  0
 24 54  1  0
 25 55  1  0
 25 56  1  0
 26 57  1  0
 26 58  1  0
 28 59  1  0
 28 60  1  0
 30 61  1  0
 35 62  1  0
 35 63  1  0
M  END
>  <Energy>  (930) 
-47.463861025247112

>  <compound_id>  (930) 
1219

>  <target_id>  (930) 
1

>  <reference_id>  (930) 
86

>  <inspiration_ids>  (930) 
[86, 103]

>  <energy_score>  (930) 
-152.61408806157806

>  <distance_score>  (930) 
2.456445688223069

>  <path>  (930) 
/opt/xchem-fragalysis-2/maxwin/BulkDock/SCRATCH/505733/C1219-P86/C1219-P86.minimised.mol

>  <scratch_subdir>  (930) 
/opt/xchem-fragalysis-2/maxwin/BulkDock/SCRATCH/505733/C1219-P86

>  <fragmenstein_runtime>  (930) 
9.900227308273315

>  <fragmenstein_outcome>  (930) 
too moved

>  <fragmenstein_mode>  (930) 
expansion

>  <fragmenstein_error>  (930) 


$$$$
C1219-P103
     RDKit          3D

 63 66  0  0  0  0  0  0  0  0999 V2000
    9.8475    4.2785   23.1413 C   0  0  0  0  0  0  0  0  0  0  0  0
   10.9326    4.8315   22.3416 N   0  0  0  0  0  0  0  0  0  0  0  0
   12.1863    4.6861   23.0738 C   0  0  0  0  0  0  0  0  0  0  0  0
   10.6458    6.1667   21.3062 S   0  0  0  0  0  0  0  0  0  0  0  0
    9.4606    5.7705   20.5625 O   0  0  0  0  0  0  0  0  0  0  0  0
   12.0165    6.4190   20.6476 N   0  0  0  0  0  0  0  0  0  0  0  0
   12.3405    5.6559   19.4258 C   0  0  0  0  0  0  0  0  0  0  0  0
   13.7074    6.0944   18.8967 C   0  0  0  0  0  0  0  0  0  0  0  0
   14.8348    5.2264   19.4536 C   0  0  0  0  0  0  0  0  0  0  0  0
   14.7888    3.9113   18.8636 O   0  0  0  0  0  0  0  0  0  0  0  0
   15.4668    3.7559   17.6871 C   0  0  0  0  0  0  0  0  0  0  0  0
   16.1534    4.6307   17.1719 O   0  0  0  0  0  0  0  0  0  0  0  0
   15.2322    2.4577   17.0978 C   0  0  0  0  0  0  0  0  0  0  0  0
   15.6863    2.0160   15.8705 C   0  0  0  0  0  0  0  0  0  0  0  0
   15.2542    0.7647   15.4765 N   0  0  0  0  0  0  0  0  0  0  0  0
   14.4949    0.2427   16.4163 C   0  0  0  0  0  0  0  0  0  0  0  0
   13.7506   -1.0099   16.2835 C   0  0  0  0  0  0  0  0  0  0  0  0
   12.8753   -1.1647   15.1992 C   0  0  0  0  0  0  0  0  0  0  0  0
   12.0948   -2.3122   15.0741 C   0  0  0  0  0  0  0  0  0  0  0  0
   12.1975   -3.3226   16.0247 C   0  0  0  0  0  0  0  0  0  0  0  0
   13.0964   -3.2032   17.0818 C   0  0  0  0  0  0  0  0  0  0  0  0
   13.8711   -2.0501   17.2130 C   0  0  0  0  0  0  0  0  0  0  0  0
   14.2999    1.2177   17.8216 S   0  0  0  0  0  0  0  0  0  0  0  0
   10.2280    7.6379   22.2045 C   0  0  0  0  0  0  0  0  0  0  0  0
    8.8727    7.5965   22.9097 C   0  0  0  0  0  0  0  0  0  0  0  0
    9.1355    8.2071   24.2782 C   0  0  0  0  0  0  0  0  0  0  0  0
   10.5169    7.8203   24.5257 N   0  0  0  0  0  0  0  0  0  0  0  0
   11.1417    8.3339   25.7414 C   0  0  0  0  0  0  0  0  0  0  0  0
   11.2216    9.8154   25.8228 C   0  0  0  0  0  0  0  0  0  0  0  0
   12.2032   10.6361   25.3091 C   0  0  0  0  0  0  0  0  0  0  0  0
   11.9433   11.9304   25.6132 O   0  0  0  0  0  0  0  0  0  0  0  0
   10.7825   11.9975   26.3638 N   0  0  0  0  0  0  0  0  0  0  0  0
   10.3770   10.7332   26.4896 C   0  0  0  0  0  0  0  0  0  0  0  0
    8.8383   10.2713   27.4710 Br  0  0  0  0  0  0  0  0  0  0  0  0
   11.2403    8.0301   23.2705 C   0  0  0  0  0  0  0  0  0  0  0  0
   10.0561    3.2399   23.4227 H   0  0  0  0  0  0  0  0  0  0  0  0
    8.9061    4.2584   22.5846 H   0  0  0  0  0  0  0  0  0  0  0  0
    9.6878    4.8562   24.0573 H   0  0  0  0  0  0  0  0  0  0  0  0
   12.2053    5.3102   23.9723 H   0  0  0  0  0  0  0  0  0  0  0  0
   12.3383    3.6452   23.3834 H   0  0  0  0  0  0  0  0  0  0  0  0
   13.0562    4.9412   22.4624 H   0  0  0  0  0  0  0  0  0  0  0  0
   11.5811    5.8607   18.6623 H   0  0  0  0  0  0  0  0  0  0  0  0
   12.3475    4.5862   19.6444 H   0  0  0  0  0  0  0  0  0  0  0  0
   13.6968    5.9993   17.8043 H   0  0  0  0  0  0  0  0  0  0  0  0
   13.9001    7.1475   19.1333 H   0  0  0  0  0  0  0  0  0  0  0  0
   15.8095    5.6956   19.2762 H   0  0  0  0  0  0  0  0  0  0  0  0
   14.7388    5.1032   20.5374 H   0  0  0  0  0  0  0  0  0  0  0  0
   16.3163    2.5911   15.2005 H   0  0  0  0  0  0  0  0  0  0  0  0
   12.7890   -0.3786   14.4506 H   0  0  0  0  0  0  0  0  0  0  0  0
   11.4110   -2.4163   14.2345 H   0  0  0  0  0  0  0  0  0  0  0  0
   11.5812   -4.2126   15.9391 H   0  0  0  0  0  0  0  0  0  0  0  0
   13.1799   -4.0002   17.8167 H   0  0  0  0  0  0  0  0  0  0  0  0
   14.5619   -1.9673   18.0492 H   0  0  0  0  0  0  0  0  0  0  0  0
   10.1918    8.4259   21.4396 H   0  0  0  0  0  0  0  0  0  0  0  0
    8.4816    6.5819   23.0150 H   0  0  0  0  0  0  0  0  0  0  0  0
    8.1204    8.1729   22.3599 H   0  0  0  0  0  0  0  0  0  0  0  0
    8.4481    7.8064   25.0295 H   0  0  0  0  0  0  0  0  0  0  0  0
    9.0089    9.2943   24.2221 H   0  0  0  0  0  0  0  0  0  0  0  0
   10.6026    7.9357   26.6091 H   0  0  0  0  0  0  0  0  0  0  0  0
   12.1525    7.9130   25.8237 H   0  0  0  0  0  0  0  0  0  0  0  0
   13.1016   10.4672   24.7331 H   0  0  0  0  0  0  0  0  0  0  0  0
   12.1769    7.4695   23.2400 H   0  0  0  0  0  0  0  0  0  0  0  0
   11.4888    9.0882   23.1296 H   0  0  0  0  0  0  0  0  0  0  0  0
  1  2  1  0
  2  3  1  0
  2  4  1  0
  4  5  2  0
  4  6  2  0
  6  7  1  0
  7  8  1  0
  8  9  1  0
  9 10  1  0
 10 11  1  0
 11 12  2  0
 11 13  1  0
 13 14  2  0
 14 15  1  0
 15 16  2  0
 16 17  1  0
 17 18  2  0
 18 19  1  0
 19 20  2  0
 20 21  1  0
 21 22  2  0
 16 23  1  0
  4 24  1  0
 24 25  1  0
 25 26  1  0
 26 27  1  0
 27 28  1  0
 28 29  1  0
 29 30  2  0
 30 31  1  0
 31 32  1  0
 32 33  2  0
 33 34  1  0
 27 35  1  0
 23 13  1  0
 35 24  1  0
 22 17  1  0
 33 29  1  0
  1 36  1  0
  1 37  1  0
  1 38  1  0
  3 39  1  0
  3 40  1  0
  3 41  1  0
  7 42  1  0
  7 43  1  0
  8 44  1  0
  8 45  1  0
  9 46  1  0
  9 47  1  0
 14 48  1  0
 18 49  1  0
 19 50  1  0
 20 51  1  0
 21 52  1  0
 22 53  1  0
 24 54  1  0
 25 55  1  0
 25 56  1  0
 26 57  1  0
 26 58  1  0
 28 59  1  0
 28 60  1  0
 30 61  1  0
 35 62  1  0
 35 63  1  0
M  END
>  <Energy>  (931) 
-57.209351908022569

>  <compound_id>  (931) 
1219

>  <target_id>  (931) 
1

>  <reference_id>  (931) 
103

>  <inspiration_ids>  (931) 
[86, 103]

>  <energy_score>  (931) 
-162.3595789443545

>  <distance_score>  (931) 
2.576233506208674

>  <path>  (931) 
/opt/xchem-fragalysis-2/maxwin/BulkDock/SCRATCH/505733/C1219-P103/C1219-P103.minimised.mol

>  <scratch_subdir>  (931) 
/opt/xchem-fragalysis-2/maxwin/BulkDock/SCRATCH/505733/C1219-P103

>  <fragmenstein_runtime>  (931) 
8.971468687057495

>  <fragmenstein_outcome>  (931) 
too moved

>  <fragmenstein_mode>  (931) 
expansion

>  <fragmenstein_error>  (931) 


$$$$
C1220-P86
     RDKit          3D

 64 69  0  0  0  0  0  0  0  0999 V2000
   16.7308   -2.6694   20.5491 O   0  0  0  0  0  0  0  0  0  0  0  0
   15.9368   -2.0969   21.2412 C   0  0  0  0  0  0  0  0  0  0  0  0
   15.5334   -2.7078   22.5827 C   0  0  0  0  0  0  0  0  0  0  0  0
   14.7318   -4.0123   22.5078 C   0  0  0  0  0  0  0  0  0  0  0  0
   14.1379   -4.3537   23.9415 C   0  0  0  0  0  0  0  0  0  0  0  0
   12.9587   -3.7879   24.4679 C   0  0  0  0  0  0  0  0  0  0  0  0
   12.8619   -4.3385   25.7181 C   0  0  0  0  0  0  0  0  0  0  0  0
   13.9124   -5.1694   25.9335 O   0  0  0  0  0  0  0  0  0  0  0  0
   14.7309   -5.1738   24.8144 N   0  0  0  0  0  0  0  0  0  0  0  0
   15.4203   -5.2360   21.8295 C   0  0  0  0  0  0  0  0  0  0  0  0
   14.1227   -5.6028   21.2138 N   0  0  0  0  0  0  0  0  0  0  0  0
   13.6761   -4.1967   21.3745 C   0  0  0  0  0  0  0  0  0  0  0  0
   15.2247   -0.8515   21.0329 N   0  0  0  0  0  0  0  0  0  0  0  0
   15.1799   -0.0114   19.9505 C   0  0  0  0  0  0  0  0  0  0  0  0
   15.6938   -0.3415   18.7543 C   0  0  0  0  0  0  0  0  0  0  0  0
   15.4108    0.3473   17.5826 N   0  0  0  0  0  0  0  0  0  0  0  0
   15.9729   -0.0162   16.2852 C   0  0  0  0  0  0  0  0  0  0  0  0
   16.3125   -1.4190   16.1215 N   0  0  0  0  0  0  0  0  0  0  0  0
   15.4152   -2.4377   16.4599 C   0  0  0  0  0  0  0  0  0  0  0  0
   15.9499   -3.4958   17.2252 C   0  0  0  0  0  0  0  0  0  0  0  0
   15.1351   -4.4347   17.8410 C   0  0  0  0  0  0  0  0  0  0  0  0
   13.7688   -4.3715   17.6518 C   0  0  0  0  0  0  0  0  0  0  0  0
   13.2289   -3.4339   16.7851 C   0  0  0  0  0  0  0  0  0  0  0  0
   14.0321   -2.4421   16.1871 C   0  0  0  0  0  0  0  0  0  0  0  0
   13.3839   -1.4712   15.3002 C   0  0  0  0  0  0  0  0  0  0  0  0
   13.8418   -1.0396   14.1413 N   0  0  0  0  0  0  0  0  0  0  0  0
   12.9074   -0.2177   13.5441 C   0  0  0  0  0  0  0  0  0  0  0  0
   11.7178   -0.0912   14.2248 C   0  0  0  0  0  0  0  0  0  0  0  0
   10.4816    0.4453   13.7511 C   0  0  0  0  0  0  0  0  0  0  0  0
   10.2977    1.1113   12.7377 O   0  0  0  0  0  0  0  0  0  0  0  0
    9.4354    0.0485   14.5224 O   0  0  0  0  0  0  0  0  0  0  0  0
   11.8691   -0.7992   15.7641 S   0  0  0  0  0  0  0  0  0  0  0  0
   14.5968    1.4757   17.5818 C   0  0  0  0  0  0  0  0  0  0  0  0
   14.2364    2.0653   16.5675 O   0  0  0  0  0  0  0  0  0  0  0  0
   14.1804    2.0021   18.9014 C   0  0  0  0  0  0  0  0  0  0  0  0
   13.5333    3.2456   18.9607 C   0  0  0  0  0  0  0  0  0  0  0  0
   13.2057    3.8031   20.1938 C   0  0  0  0  0  0  0  0  0  0  0  0
   13.5212    3.1198   21.3642 C   0  0  0  0  0  0  0  0  0  0  0  0
   14.1552    1.8735   21.3037 C   0  0  0  0  0  0  0  0  0  0  0  0
   14.4834    1.2864   20.0679 C   0  0  0  0  0  0  0  0  0  0  0  0
   16.4655   -2.8793   23.1383 H   0  0  0  0  0  0  0  0  0  0  0  0
   14.9802   -1.9727   23.1791 H   0  0  0  0  0  0  0  0  0  0  0  0
   12.2851   -3.0835   24.0035 H   0  0  0  0  0  0  0  0  0  0  0  0
   12.1612   -4.2509   26.5347 H   0  0  0  0  0  0  0  0  0  0  0  0
   15.8384   -6.0033   22.4891 H   0  0  0  0  0  0  0  0  0  0  0  0
   16.1882   -5.0049   21.0844 H   0  0  0  0  0  0  0  0  0  0  0  0
   13.5928   -6.2502   21.7991 H   0  0  0  0  0  0  0  0  0  0  0  0
   12.6227   -4.0988   21.6480 H   0  0  0  0  0  0  0  0  0  0  0  0
   13.8384   -3.5866   20.4806 H   0  0  0  0  0  0  0  0  0  0  0  0
   14.6954   -0.6303   21.8656 H   0  0  0  0  0  0  0  0  0  0  0  0
   16.2935   -1.2355   18.6482 H   0  0  0  0  0  0  0  0  0  0  0  0
   16.9005    0.5638   16.1915 H   0  0  0  0  0  0  0  0  0  0  0  0
   15.3481    0.3349   15.4627 H   0  0  0  0  0  0  0  0  0  0  0  0
   17.2656   -1.6126   16.4065 H   0  0  0  0  0  0  0  0  0  0  0  0
   17.0173   -3.5393   17.4335 H   0  0  0  0  0  0  0  0  0  0  0  0
   15.5684   -5.1806   18.5025 H   0  0  0  0  0  0  0  0  0  0  0  0
   13.1202   -5.0474   18.1909 H   0  0  0  0  0  0  0  0  0  0  0  0
   12.1592   -3.4840   16.5988 H   0  0  0  0  0  0  0  0  0  0  0  0
   13.1183    0.1909   12.5632 H   0  0  0  0  0  0  0  0  0  0  0  0
    8.7439   -0.1933   13.8624 H   0  0  0  0  0  0  0  0  0  0  0  0
   13.3091    3.7928   18.0470 H   0  0  0  0  0  0  0  0  0  0  0  0
   12.7195    4.7745   20.2407 H   0  0  0  0  0  0  0  0  0  0  0  0
   13.2825    3.5602   22.3299 H   0  0  0  0  0  0  0  0  0  0  0  0
   14.4060    1.3929   22.2448 H   0  0  0  0  0  0  0  0  0  0  0  0
  1  2  2  0
  2  3  1  0
  3  4  1  0
  4  5  1  0
  5  6  1  0
  6  7  2  0
  7  8  1  0
  8  9  1  0
  4 10  1  0
 10 11  1  0
 11 12  1  0
  2 13  1  0
 13 14  1  0
 14 15  2  0
 15 16  1  0
 16 17  1  0
 17 18  1  0
 18 19  1  0
 19 20  2  0
 20 21  1  0
 21 22  2  0
 22 23  1  0
 23 24  2  0
 24 25  1  0
 25 26  2  0
 26 27  1  0
 27 28  2  0
 28 29  1  0
 29 30  2  0
 29 31  1  0
 28 32  1  0
 16 33  1  0
 33 34  2  0
 33 35  1  0
 35 36  2  0
 36 37  1  0
 37 38  2  0
 38 39  1  0
 39 40  2  0
 12  4  1  0
 40 14  1  0
  9  5  2  0
 24 19  1  0
 32 25  1  0
 40 35  1  0
  3 41  1  0
  3 42  1  0
  6 43  1  0
  7 44  1  0
 10 45  1  0
 10 46  1  0
 11 47  1  0
 12 48  1  0
 12 49  1  0
 13 50  1  0
 15 51  1  0
 17 52  1  0
 17 53  1  0
 18 54  1  0
 20 55  1  0
 21 56  1  0
 22 57  1  0
 23 58  1  0
 27 59  1  0
 31 60  1  0
 36 61  1  0
 37 62  1  0
 38 63  1  0
 39 64  1  0
M  END
>  <Energy>  (932) 
58.532852622689177

>  <compound_id>  (932) 
1220

>  <target_id>  (932) 
1

>  <reference_id>  (932) 
86

>  <inspiration_ids>  (932) 
[86, 106]

>  <energy_score>  (932) 
-84.27087803377748

>  <distance_score>  (932) 
3.522462534050144

>  <path>  (932) 
/opt/xchem-fragalysis-2/maxwin/BulkDock/SCRATCH/505733/C1220-P86/C1220-P86.minimised.mol

>  <scratch_subdir>  (932) 
/opt/xchem-fragalysis-2/maxwin/BulkDock/SCRATCH/505733/C1220-P86

>  <fragmenstein_runtime>  (932) 
16.33859634399414

>  <fragmenstein_outcome>  (932) 
too moved

>  <fragmenstein_mode>  (932) 
expansion

>  <fragmenstein_error>  (932) 


$$$$
C1220-P106
     RDKit          3D

 64 69  0  0  0  0  0  0  0  0999 V2000
   16.3815   -5.0179   16.8561 O   0  0  0  0  0  0  0  0  0  0  0  0
   17.0993   -4.6991   15.9492 C   0  0  0  0  0  0  0  0  0  0  0  0
   17.7651   -5.7803   15.1085 C   0  0  0  0  0  0  0  0  0  0  0  0
   18.9261   -6.5267   15.7719 C   0  0  0  0  0  0  0  0  0  0  0  0
   19.6311   -7.4762   14.7040 C   0  0  0  0  0  0  0  0  0  0  0  0
   19.9769   -8.8313   14.8783 C   0  0  0  0  0  0  0  0  0  0  0  0
   20.5448   -9.1829   13.6818 C   0  0  0  0  0  0  0  0  0  0  0  0
   20.5402   -8.1175   12.8432 O   0  0  0  0  0  0  0  0  0  0  0  0
   19.9644   -7.0324   13.4839 N   0  0  0  0  0  0  0  0  0  0  0  0
   18.6477   -7.1839   17.1594 C   0  0  0  0  0  0  0  0  0  0  0  0
   19.9933   -6.7531   17.5952 N   0  0  0  0  0  0  0  0  0  0  0  0
   19.9753   -5.6897   16.5674 C   0  0  0  0  0  0  0  0  0  0  0  0
   17.5184   -3.3905   15.4894 N   0  0  0  0  0  0  0  0  0  0  0  0
   17.1496   -2.1339   15.8955 C   0  0  0  0  0  0  0  0  0  0  0  0
   16.2297   -1.9404   16.8542 C   0  0  0  0  0  0  0  0  0  0  0  0
   15.8248   -0.6911   17.2837 N   0  0  0  0  0  0  0  0  0  0  0  0
   14.7206   -0.5601   18.2106 C   0  0  0  0  0  0  0  0  0  0  0  0
   13.5268   -0.2036   17.4543 N   0  0  0  0  0  0  0  0  0  0  0  0
   12.9995   -1.1579   16.5598 C   0  0  0  0  0  0  0  0  0  0  0  0
   12.8816   -2.5081   16.9457 C   0  0  0  0  0  0  0  0  0  0  0  0
   12.2409   -3.4438   16.1444 C   0  0  0  0  0  0  0  0  0  0  0  0
   11.7326   -3.0529   14.9211 C   0  0  0  0  0  0  0  0  0  0  0  0
   11.8760   -1.7409   14.5013 C   0  0  0  0  0  0  0  0  0  0  0  0
   12.4368   -0.7601   15.3274 C   0  0  0  0  0  0  0  0  0  0  0  0
   12.4085    0.6470   14.8905 C   0  0  0  0  0  0  0  0  0  0  0  0
   13.3187    1.5592   15.1690 N   0  0  0  0  0  0  0  0  0  0  0  0
   12.9608    2.7791   14.6207 C   0  0  0  0  0  0  0  0  0  0  0  0
   11.7593    2.8040   13.9426 C   0  0  0  0  0  0  0  0  0  0  0  0
   11.0430    3.8370   13.2351 C   0  0  0  0  0  0  0  0  0  0  0  0
   10.0823    3.6511   12.4944 O   0  0  0  0  0  0  0  0  0  0  0  0
   11.5185    5.0849   13.4679 O   0  0  0  0  0  0  0  0  0  0  0  0
   11.0636    1.2407   13.9952 S   0  0  0  0  0  0  0  0  0  0  0  0
   16.3665    0.4824   16.7859 C   0  0  0  0  0  0  0  0  0  0  0  0
   16.0501    1.5985   17.1889 O   0  0  0  0  0  0  0  0  0  0  0  0
   17.3598    0.3412   15.6976 C   0  0  0  0  0  0  0  0  0  0  0  0
   17.8821    1.5066   15.1173 C   0  0  0  0  0  0  0  0  0  0  0  0
   18.8129    1.4144   14.0872 C   0  0  0  0  0  0  0  0  0  0  0  0
   19.2163    0.1621   13.6359 C   0  0  0  0  0  0  0  0  0  0  0  0
   18.6902   -1.0015   14.2113 C   0  0  0  0  0  0  0  0  0  0  0  0
   17.7492   -0.9362   15.2549 C   0  0  0  0  0  0  0  0  0  0  0  0
   16.9819   -6.4992   14.8412 H   0  0  0  0  0  0  0  0  0  0  0  0
   18.0888   -5.3457   14.1558 H   0  0  0  0  0  0  0  0  0  0  0  0
   19.8496   -9.4648   15.7430 H   0  0  0  0  0  0  0  0  0  0  0  0
   20.9784  -10.0893   13.2862 H   0  0  0  0  0  0  0  0  0  0  0  0
   18.4829   -8.2648   17.1802 H   0  0  0  0  0  0  0  0  0  0  0  0
   17.8496   -6.7311   17.7564 H   0  0  0  0  0  0  0  0  0  0  0  0
   20.0443   -6.4212   18.5585 H   0  0  0  0  0  0  0  0  0  0  0  0
   20.9395   -5.5193   16.0780 H   0  0  0  0  0  0  0  0  0  0  0  0
   19.6208   -4.7280   16.9552 H   0  0  0  0  0  0  0  0  0  0  0  0
   18.1939   -3.5025   14.7471 H   0  0  0  0  0  0  0  0  0  0  0  0
   15.7384   -2.7774   17.3392 H   0  0  0  0  0  0  0  0  0  0  0  0
   14.5996   -1.4617   18.8206 H   0  0  0  0  0  0  0  0  0  0  0  0
   14.9355    0.2527   18.9147 H   0  0  0  0  0  0  0  0  0  0  0  0
   13.7289    0.6724   16.9542 H   0  0  0  0  0  0  0  0  0  0  0  0
   13.2403   -2.8534   17.9116 H   0  0  0  0  0  0  0  0  0  0  0  0
   12.1355   -4.4698   16.4859 H   0  0  0  0  0  0  0  0  0  0  0  0
   11.2226   -3.7574   14.2754 H   0  0  0  0  0  0  0  0  0  0  0  0
   11.5180   -1.4862   13.5116 H   0  0  0  0  0  0  0  0  0  0  0  0
   13.6454    3.6079   14.7549 H   0  0  0  0  0  0  0  0  0  0  0  0
   12.2141    5.1555   14.1463 H   0  0  0  0  0  0  0  0  0  0  0  0
   17.5644    2.4857   15.4694 H   0  0  0  0  0  0  0  0  0  0  0  0
   19.2206    2.3165   13.6380 H   0  0  0  0  0  0  0  0  0  0  0  0
   19.9420    0.0865   12.8287 H   0  0  0  0  0  0  0  0  0  0  0  0
   19.0385   -1.9472   13.8096 H   0  0  0  0  0  0  0  0  0  0  0  0
  1  2  2  0
  2  3  1  0
  3  4  1  0
  4  5  1  0
  5  6  1  0
  6  7  2  0
  7  8  1  0
  8  9  1  0
  4 10  1  0
 10 11  1  0
 11 12  1  0
  2 13  1  0
 13 14  1  0
 14 15  2  0
 15 16  1  0
 16 17  1  0
 17 18  1  0
 18 19  1  0
 19 20  2  0
 20 21  1  0
 21 22  2  0
 22 23  1  0
 23 24  2  0
 24 25  1  0
 25 26  2  0
 26 27  1  0
 27 28  2  0
 28 29  1  0
 29 30  2  0
 29 31  1  0
 28 32  1  0
 16 33  1  0
 33 34  2  0
 33 35  1  0
 35 36  2  0
 36 37  1  0
 37 38  2  0
 38 39  1  0
 39 40  2  0
 12  4  1  0
 40 14  1  0
  9  5  2  0
 24 19  1  0
 32 25  1  0
 40 35  1  0
  3 41  1  0
  3 42  1  0
  6 43  1  0
  7 44  1  0
 10 45  1  0
 10 46  1  0
 11 47  1  0
 12 48  1  0
 12 49  1  0
 13 50  1  0
 15 51  1  0
 17 52  1  0
 17 53  1  0
 18 54  1  0
 20 55  1  0
 21 56  1  0
 22 57  1  0
 23 58  1  0
 27 59  1  0
 31 60  1  0
 36 61  1  0
 37 62  1  0
 38 63  1  0
 39 64  1  0
M  END
>  <Energy>  (933) 
44.574900088204565

>  <compound_id>  (933) 
1220

>  <target_id>  (933) 
1

>  <reference_id>  (933) 
106

>  <inspiration_ids>  (933) 
[86, 106]

>  <energy_score>  (933) 
-98.22883056826387

>  <distance_score>  (933) 
2.8925536667360037

>  <path>  (933) 
/opt/xchem-fragalysis-2/maxwin/BulkDock/SCRATCH/505733/C1220-P106/C1220-P106.minimised.mol

>  <scratch_subdir>  (933) 
/opt/xchem-fragalysis-2/maxwin/BulkDock/SCRATCH/505733/C1220-P106

>  <fragmenstein_runtime>  (933) 
22.169477701187134

>  <fragmenstein_outcome>  (933) 
too moved

>  <fragmenstein_mode>  (933) 
expansion

>  <fragmenstein_error>  (933) 


$$$$
C1221-P86
     RDKit          3D

 51 53  0  0  0  0  0  0  0  0999 V2000
   11.9073    2.4781   11.4450 O   0  0  0  0  0  0  0  0  0  0  0  0
   11.7027    1.6624   12.3322 C   0  0  0  0  0  0  0  0  0  0  0  0
   10.4385    1.3592   12.6928 O   0  0  0  0  0  0  0  0  0  0  0  0
   12.6866    1.0054   13.1453 C   0  0  0  0  0  0  0  0  0  0  0  0
   14.0273    1.3114   13.2302 C   0  0  0  0  0  0  0  0  0  0  0  0
   14.7229    0.6592   14.2270 N   0  0  0  0  0  0  0  0  0  0  0  0
   13.9149   -0.1549   14.8817 C   0  0  0  0  0  0  0  0  0  0  0  0
   14.1534   -0.5826   16.2612 C   0  0  0  0  0  0  0  0  0  0  0  0
   14.5283    0.4752   17.1126 C   0  0  0  0  0  0  0  0  0  0  0  0
   14.7553    0.2867   18.4655 C   0  0  0  0  0  0  0  0  0  0  0  0
   14.5783   -0.9605   19.0097 C   0  0  0  0  0  0  0  0  0  0  0  0
   14.2093   -2.0106   18.1890 C   0  0  0  0  0  0  0  0  0  0  0  0
   14.0463   -1.8776   16.7998 C   0  0  0  0  0  0  0  0  0  0  0  0
   13.9433   -3.0304   16.0227 N   0  0  0  0  0  0  0  0  0  0  0  0
   14.1932   -4.3288   16.6622 C   0  0  0  0  0  0  0  0  0  0  0  0
   15.6747   -4.7368   16.6234 C   0  0  0  0  0  0  0  0  0  0  0  0
   16.7253   -3.9130   17.3516 C   0  0  0  0  0  0  0  0  0  0  0  0
   16.7171   -3.9210   18.8209 N   0  0  0  0  0  0  0  0  0  0  0  0
   16.4430   -5.2666   19.7406 S   0  0  0  0  0  0  0  0  0  0  0  0
   15.1124   -5.7335   19.4412 O   0  0  0  0  0  0  0  0  0  0  0  0
   16.8483   -4.9387   21.0837 O   0  0  0  0  0  0  0  0  0  0  0  0
   17.5661   -6.3167   19.0620 N   0  0  0  0  0  0  0  0  0  0  0  0
   17.2140   -7.7678   19.1209 C   0  0  0  0  0  0  0  0  0  0  0  0
   17.6138   -8.3883   20.4696 C   0  0  0  0  0  0  0  0  0  0  0  0
   19.0514   -8.2277   20.7618 N   0  0  0  0  0  0  0  0  0  0  0  0
   19.3946   -6.7932   20.7297 C   0  0  0  0  0  0  0  0  0  0  0  0
   18.9984   -6.0895   19.4146 C   0  0  0  0  0  0  0  0  0  0  0  0
   12.3461   -0.2941   14.2105 S   0  0  0  0  0  0  0  0  0  0  0  0
    9.8520    1.9307   12.1485 H   0  0  0  0  0  0  0  0  0  0  0  0
   14.5370    2.0554   12.6284 H   0  0  0  0  0  0  0  0  0  0  0  0
   14.6531    1.4800   16.7076 H   0  0  0  0  0  0  0  0  0  0  0  0
   15.0520    1.1231   19.0928 H   0  0  0  0  0  0  0  0  0  0  0  0
   14.7241   -1.1270   20.0750 H   0  0  0  0  0  0  0  0  0  0  0  0
   14.0934   -2.9520   18.7151 H   0  0  0  0  0  0  0  0  0  0  0  0
   13.1601   -3.0033   15.3738 H   0  0  0  0  0  0  0  0  0  0  0  0
   13.6471   -5.0555   16.0619 H   0  0  0  0  0  0  0  0  0  0  0  0
   13.7300   -4.4599   17.6417 H   0  0  0  0  0  0  0  0  0  0  0  0
   15.9718   -4.7404   15.5656 H   0  0  0  0  0  0  0  0  0  0  0  0
   15.7888   -5.7700   16.9462 H   0  0  0  0  0  0  0  0  0  0  0  0
   16.6838   -2.8710   17.0189 H   0  0  0  0  0  0  0  0  0  0  0  0
   17.7174   -4.2648   17.0396 H   0  0  0  0  0  0  0  0  0  0  0  0
   17.3870   -3.2911   19.2567 H   0  0  0  0  0  0  0  0  0  0  0  0
   16.1484   -7.9249   18.9295 H   0  0  0  0  0  0  0  0  0  0  0  0
   17.7426   -8.2740   18.3031 H   0  0  0  0  0  0  0  0  0  0  0  0
   17.3807   -9.4586   20.4566 H   0  0  0  0  0  0  0  0  0  0  0  0
   17.0260   -7.9472   21.2833 H   0  0  0  0  0  0  0  0  0  0  0  0
   19.5831   -8.7054   20.0337 H   0  0  0  0  0  0  0  0  0  0  0  0
   18.9285   -6.2997   21.5889 H   0  0  0  0  0  0  0  0  0  0  0  0
   20.4766   -6.6940   20.8723 H   0  0  0  0  0  0  0  0  0  0  0  0
   19.6084   -6.4779   18.5892 H   0  0  0  0  0  0  0  0  0  0  0  0
   19.2165   -5.0181   19.4777 H   0  0  0  0  0  0  0  0  0  0  0  0
  1  2  2  0
  2  3  1  0
  2  4  1  0
  4  5  2  0
  5  6  1  0
  6  7  2  0
  7  8  1  0
  8  9  2  0
  9 10  1  0
 10 11  2  0
 11 12  1  0
 12 13  2  0
 13 14  1  0
 14 15  1  0
 15 16  1  0
 16 17  1  0
 17 18  1  0
 18 19  1  0
 19 20  2  0
 19 21  2  0
 19 22  1  0
 22 23  1  0
 23 24  1  0
 24 25  1  0
 25 26  1  0
 26 27  1  0
  7 28  1  0
 28  4  1  0
 13  8  1  0
 27 22  1  0
  3 29  1  0
  5 30  1  0
  9 31  1  0
 10 32  1  0
 11 33  1  0
 12 34  1  0
 14 35  1  0
 15 36  1  0
 15 37  1  0
 16 38  1  0
 16 39  1  0
 17 40  1  0
 17 41  1  0
 18 42  1  0
 23 43  1  0
 23 44  1  0
 24 45  1  0
 24 46  1  0
 25 47  1  0
 26 48  1  0
 26 49  1  0
 27 50  1  0
 27 51  1  0
M  END
>  <Energy>  (934) 
-84.141205193493306

>  <compound_id>  (934) 
1221

>  <target_id>  (934) 
1

>  <reference_id>  (934) 
86

>  <inspiration_ids>  (934) 
[86, 111]

>  <energy_score>  (934) 
-93.06567898511152

>  <distance_score>  (934) 
2.459206117546933

>  <path>  (934) 
/opt/xchem-fragalysis-2/maxwin/BulkDock/SCRATCH/505733/C1221-P86/C1221-P86.minimised.mol

>  <scratch_subdir>  (934) 
/opt/xchem-fragalysis-2/maxwin/BulkDock/SCRATCH/505733/C1221-P86

>  <fragmenstein_runtime>  (934) 
12.912109851837158

>  <fragmenstein_outcome>  (934) 
too moved

>  <fragmenstein_mode>  (934) 
expansion

>  <fragmenstein_error>  (934) 


$$$$
C1221-P111
     RDKit          3D

 51 53  0  0  0  0  0  0  0  0999 V2000
   11.0770    2.8415   12.4434 O   0  0  0  0  0  0  0  0  0  0  0  0
   11.2033    2.8647   13.6594 C   0  0  0  0  0  0  0  0  0  0  0  0
   10.5423    3.7850   14.4120 O   0  0  0  0  0  0  0  0  0  0  0  0
   12.0227    1.9793   14.4522 C   0  0  0  0  0  0  0  0  0  0  0  0
   12.6065    2.1441   15.6918 C   0  0  0  0  0  0  0  0  0  0  0  0
   13.3414    1.0763   16.1716 N   0  0  0  0  0  0  0  0  0  0  0  0
   13.3785    0.1245   15.2631 C   0  0  0  0  0  0  0  0  0  0  0  0
   14.2839   -1.0193   15.2392 C   0  0  0  0  0  0  0  0  0  0  0  0
   15.4148   -0.8641   14.4165 C   0  0  0  0  0  0  0  0  0  0  0  0
   16.3245   -1.8920   14.2263 C   0  0  0  0  0  0  0  0  0  0  0  0
   16.1012   -3.1107   14.8199 C   0  0  0  0  0  0  0  0  0  0  0  0
   15.0012   -3.2681   15.6421 C   0  0  0  0  0  0  0  0  0  0  0  0
   14.1322   -2.2148   15.9577 C   0  0  0  0  0  0  0  0  0  0  0  0
   13.1630   -2.4148   16.9627 N   0  0  0  0  0  0  0  0  0  0  0  0
   13.5154   -3.4487   17.9696 C   0  0  0  0  0  0  0  0  0  0  0  0
   14.8334   -3.1659   18.7025 C   0  0  0  0  0  0  0  0  0  0  0  0
   15.8120   -4.3344   18.7267 C   0  0  0  0  0  0  0  0  0  0  0  0
   16.8521   -4.0330   19.7194 N   0  0  0  0  0  0  0  0  0  0  0  0
   17.2924   -5.2700   20.7448 S   0  0  0  0  0  0  0  0  0  0  0  0
   18.1999   -4.7283   21.7247 O   0  0  0  0  0  0  0  0  0  0  0  0
   17.6546   -6.3927   19.9148 O   0  0  0  0  0  0  0  0  0  0  0  0
   15.8183   -5.6010   21.4874 N   0  0  0  0  0  0  0  0  0  0  0  0
   15.7867   -6.9094   22.2054 C   0  0  0  0  0  0  0  0  0  0  0  0
   14.3465   -7.2231   22.6578 C   0  0  0  0  0  0  0  0  0  0  0  0
   13.7217   -6.1674   23.4770 N   0  0  0  0  0  0  0  0  0  0  0  0
   13.8337   -4.8671   22.7772 C   0  0  0  0  0  0  0  0  0  0  0  0
   15.2795   -4.5173   22.3664 C   0  0  0  0  0  0  0  0  0  0  0  0
   12.4715    0.4463   13.8324 S   0  0  0  0  0  0  0  0  0  0  0  0
   10.6077    3.6565   15.3738 H   0  0  0  0  0  0  0  0  0  0  0  0
   12.5448    3.0322   16.3095 H   0  0  0  0  0  0  0  0  0  0  0  0
   15.5909    0.0789   13.8997 H   0  0  0  0  0  0  0  0  0  0  0  0
   17.1837   -1.7485   13.5763 H   0  0  0  0  0  0  0  0  0  0  0  0
   16.7704   -3.9452   14.6266 H   0  0  0  0  0  0  0  0  0  0  0  0
   14.8556   -4.2659   16.0364 H   0  0  0  0  0  0  0  0  0  0  0  0
   12.2755   -2.6360   16.5114 H   0  0  0  0  0  0  0  0  0  0  0  0
   13.4593   -4.4465   17.5295 H   0  0  0  0  0  0  0  0  0  0  0  0
   12.7374   -3.4442   18.7277 H   0  0  0  0  0  0  0  0  0  0  0  0
   14.5727   -2.9043   19.7370 H   0  0  0  0  0  0  0  0  0  0  0  0
   15.3438   -2.2725   18.3220 H   0  0  0  0  0  0  0  0  0  0  0  0
   16.2864   -4.5092   17.7595 H   0  0  0  0  0  0  0  0  0  0  0  0
   15.2687   -5.2326   19.0178 H   0  0  0  0  0  0  0  0  0  0  0  0
   17.6820   -3.5891   19.3259 H   0  0  0  0  0  0  0  0  0  0  0  0
   16.4562   -6.8752   23.0731 H   0  0  0  0  0  0  0  0  0  0  0  0
   16.1175   -7.7130   21.5391 H   0  0  0  0  0  0  0  0  0  0  0  0
   14.3440   -8.1567   23.2311 H   0  0  0  0  0  0  0  0  0  0  0  0
   13.7151   -7.3957   21.7792 H   0  0  0  0  0  0  0  0  0  0  0  0
   14.2400   -6.0913   24.3539 H   0  0  0  0  0  0  0  0  0  0  0  0
   13.1913   -4.8868   21.8879 H   0  0  0  0  0  0  0  0  0  0  0  0
   13.4419   -4.0833   23.4345 H   0  0  0  0  0  0  0  0  0  0  0  0
   15.9070   -4.4124   23.2596 H   0  0  0  0  0  0  0  0  0  0  0  0
   15.2713   -3.5602   21.8385 H   0  0  0  0  0  0  0  0  0  0  0  0
  1  2  2  0
  2  3  1  0
  2  4  1  0
  4  5  2  0
  5  6  1  0
  6  7  2  0
  7  8  1  0
  8  9  2  0
  9 10  1  0
 10 11  2  0
 11 12  1  0
 12 13  2  0
 13 14  1  0
 14 15  1  0
 15 16  1  0
 16 17  1  0
 17 18  1  0
 18 19  1  0
 19 20  2  0
 19 21  2  0
 19 22  1  0
 22 23  1  0
 23 24  1  0
 24 25  1  0
 25 26  1  0
 26 27  1  0
  7 28  1  0
 28  4  1  0
 13  8  1  0
 27 22  1  0
  3 29  1  0
  5 30  1  0
  9 31  1  0
 10 32  1  0
 11 33  1  0
 12 34  1  0
 14 35  1  0
 15 36  1  0
 15 37  1  0
 16 38  1  0
 16 39  1  0
 17 40  1  0
 17 41  1  0
 18 42  1  0
 23 43  1  0
 23 44  1  0
 24 45  1  0
 24 46  1  0
 25 47  1  0
 26 48  1  0
 26 49  1  0
 27 50  1  0
 27 51  1  0
M  END
>  <Energy>  (935) 
-76.785864636596926

>  <compound_id>  (935) 
1221

>  <target_id>  (935) 
1

>  <reference_id>  (935) 
111

>  <inspiration_ids>  (935) 
[86, 111]

>  <energy_score>  (935) 
-85.71033842821515

>  <distance_score>  (935) 
2.5410386670018474

>  <path>  (935) 
/opt/xchem-fragalysis-2/maxwin/BulkDock/SCRATCH/505733/C1221-P111/C1221-P111.minimised.mol

>  <scratch_subdir>  (935) 
/opt/xchem-fragalysis-2/maxwin/BulkDock/SCRATCH/505733/C1221-P111

>  <fragmenstein_runtime>  (935) 
12.331380367279053

>  <fragmenstein_outcome>  (935) 
too moved

>  <fragmenstein_mode>  (935) 
expansion

>  <fragmenstein_error>  (935) 


$$$$
C1223-P86
     RDKit          3D

 40 43  0  0  0  0  0  0  0  0999 V2000
   17.2715   -5.3077   18.4730 N   0  0  0  0  0  0  0  0  0  0  0  0
   16.4701   -4.1484   18.0644 C   0  0  0  0  0  0  0  0  0  0  0  0
   14.9845   -4.4946   17.8022 C   0  0  0  0  0  0  0  0  0  0  0  0
   14.1824   -3.3409   18.0757 O   0  0  0  0  0  0  0  0  0  0  0  0
   13.3854   -2.9167   17.0503 C   0  0  0  0  0  0  0  0  0  0  0  0
   12.5151   -3.7626   16.3749 C   0  0  0  0  0  0  0  0  0  0  0  0
   11.6732   -3.2347   15.3988 C   0  0  0  0  0  0  0  0  0  0  0  0
   10.8114   -4.0153   14.7539 F   0  0  0  0  0  0  0  0  0  0  0  0
   11.6486   -1.8964   15.0966 C   0  0  0  0  0  0  0  0  0  0  0  0
   12.4743   -1.0439   15.7929 C   0  0  0  0  0  0  0  0  0  0  0  0
   13.3606   -1.5496   16.7572 C   0  0  0  0  0  0  0  0  0  0  0  0
   14.1600   -0.7125   17.4865 O   0  0  0  0  0  0  0  0  0  0  0  0
   14.4637    0.5147   16.8231 C   0  0  0  0  0  0  0  0  0  0  0  0
   13.3353    1.1252   16.0469 C   0  0  0  0  0  0  0  0  0  0  0  0
   12.3581    0.3771   15.5443 C   0  0  0  0  0  0  0  0  0  0  0  0
   17.0860   -3.4446   16.8653 C   0  0  0  0  0  0  0  0  0  0  0  0
   17.3897   -4.2108   15.6499 C   0  0  0  0  0  0  0  0  0  0  0  0
   17.8878   -3.5770   14.5748 C   0  0  0  0  0  0  0  0  0  0  0  0
   18.1050   -2.2064   14.6337 N   0  0  0  0  0  0  0  0  0  0  0  0
   18.5870   -1.3532   13.6743 C   0  0  0  0  0  0  0  0  0  0  0  0
   18.5858   -0.1076   14.2580 C   0  0  0  0  0  0  0  0  0  0  0  0
   18.1156   -0.1642   15.5456 N   0  0  0  0  0  0  0  0  0  0  0  0
   17.8417   -1.4359   15.7579 C   0  0  0  0  0  0  0  0  0  0  0  0
   17.3221   -2.1106   16.8973 C   0  0  0  0  0  0  0  0  0  0  0  0
   17.0008   -5.5847   19.4161 H   0  0  0  0  0  0  0  0  0  0  0  0
   17.0688   -6.1078   17.8774 H   0  0  0  0  0  0  0  0  0  0  0  0
   16.5003   -3.4539   18.9154 H   0  0  0  0  0  0  0  0  0  0  0  0
   14.6551   -5.2620   18.5106 H   0  0  0  0  0  0  0  0  0  0  0  0
   14.8513   -4.8820   16.7860 H   0  0  0  0  0  0  0  0  0  0  0  0
   12.4509   -4.8173   16.6072 H   0  0  0  0  0  0  0  0  0  0  0  0
   10.9573   -1.5335   14.3477 H   0  0  0  0  0  0  0  0  0  0  0  0
   15.3317    0.3704   16.1707 H   0  0  0  0  0  0  0  0  0  0  0  0
   14.7649    1.2195   17.6060 H   0  0  0  0  0  0  0  0  0  0  0  0
   13.3649    2.1946   15.8678 H   0  0  0  0  0  0  0  0  0  0  0  0
   11.5510    0.7829   14.9476 H   0  0  0  0  0  0  0  0  0  0  0  0
   17.2105   -5.2797   15.6283 H   0  0  0  0  0  0  0  0  0  0  0  0
   18.1279   -4.0818   13.6490 H   0  0  0  0  0  0  0  0  0  0  0  0
   18.8780   -1.6962   12.6928 H   0  0  0  0  0  0  0  0  0  0  0  0
   18.8987    0.8300   13.8172 H   0  0  0  0  0  0  0  0  0  0  0  0
   17.0968   -1.5127   17.7740 H   0  0  0  0  0  0  0  0  0  0  0  0
  1  2  1  0
  2  3  1  0
  3  4  1  0
  4  5  1  0
  5  6  2  0
  6  7  1  0
  7  8  1  0
  7  9  2  0
  9 10  1  0
 10 11  2  0
 11 12  1  0
 12 13  1  0
 13 14  1  0
 14 15  2  0
  2 16  1  0
 16 17  1  0
 17 18  2  0
 18 19  1  0
 19 20  1  0
 20 21  2  0
 21 22  1  0
 22 23  2  0
 23 24  1  0
 11  5  1  0
 24 16  2  0
 15 10  1  0
 23 19  1  0
  1 25  1  0
  1 26  1  0
  2 27  1  0
  3 28  1  0
  3 29  1  0
  6 30  1  0
  9 31  1  0
 13 32  1  0
 13 33  1  0
 14 34  1  0
 15 35  1  0
 17 36  1  0
 18 37  1  0
 20 38  1  0
 21 39  1  0
 24 40  1  0
M  END
>  <Energy>  (936) 
82.026629257956557

>  <compound_id>  (936) 
1223

>  <target_id>  (936) 
1

>  <reference_id>  (936) 
86

>  <inspiration_ids>  (936) 
[86, 114]

>  <energy_score>  (936) 
-60.64236776381509

>  <distance_score>  (936) 
1.727041984615809

>  <path>  (936) 
/opt/xchem-fragalysis-2/maxwin/BulkDock/SCRATCH/505733/C1223-P86/C1223-P86.minimised.mol

>  <scratch_subdir>  (936) 
/opt/xchem-fragalysis-2/maxwin/BulkDock/SCRATCH/505733/C1223-P86

>  <fragmenstein_runtime>  (936) 
1.5887665748596191

>  <fragmenstein_outcome>  (936) 
too moved

>  <fragmenstein_mode>  (936) 
expansion

>  <fragmenstein_error>  (936) 


$$$$
C1223-P114
     RDKit          3D

 40 43  0  0  0  0  0  0  0  0999 V2000
   17.2894   -5.2092   18.5090 N   0  0  0  0  0  0  0  0  0  0  0  0
   16.4826   -4.0598   18.0810 C   0  0  0  0  0  0  0  0  0  0  0  0
   14.9927   -4.4123   17.8597 C   0  0  0  0  0  0  0  0  0  0  0  0
   14.1908   -3.2506   18.0864 O   0  0  0  0  0  0  0  0  0  0  0  0
   13.3985   -2.8631   17.0422 C   0  0  0  0  0  0  0  0  0  0  0  0
   12.5580   -3.7374   16.3639 C   0  0  0  0  0  0  0  0  0  0  0  0
   11.7206   -3.2404   15.3686 C   0  0  0  0  0  0  0  0  0  0  0  0
   10.8793   -4.0449   14.7268 F   0  0  0  0  0  0  0  0  0  0  0  0
   11.6792   -1.9081   15.0437 C   0  0  0  0  0  0  0  0  0  0  0  0
   12.4721   -1.0278   15.7438 C   0  0  0  0  0  0  0  0  0  0  0  0
   13.3472   -1.4996   16.7336 C   0  0  0  0  0  0  0  0  0  0  0  0
   14.1043   -0.6390   17.4795 O   0  0  0  0  0  0  0  0  0  0  0  0
   14.3605    0.6159   16.8497 C   0  0  0  0  0  0  0  0  0  0  0  0
   13.2452    1.1728   16.0180 C   0  0  0  0  0  0  0  0  0  0  0  0
   12.3213    0.3858   15.4764 C   0  0  0  0  0  0  0  0  0  0  0  0
   17.0706   -3.3932   16.8470 C   0  0  0  0  0  0  0  0  0  0  0  0
   17.3755   -4.2002   15.6589 C   0  0  0  0  0  0  0  0  0  0  0  0
   17.8401   -3.5984   14.5510 C   0  0  0  0  0  0  0  0  0  0  0  0
   18.0245   -2.2217   14.5514 N   0  0  0  0  0  0  0  0  0  0  0  0
   18.4700   -1.3967   13.5506 C   0  0  0  0  0  0  0  0  0  0  0  0
   18.4516   -0.1295   14.0856 C   0  0  0  0  0  0  0  0  0  0  0  0
   18.0071   -0.1458   15.3833 N   0  0  0  0  0  0  0  0  0  0  0  0
   17.7623   -1.4134   15.6490 C   0  0  0  0  0  0  0  0  0  0  0  0
   17.2757   -2.0537   16.8222 C   0  0  0  0  0  0  0  0  0  0  0  0
   17.0577   -5.4370   19.4754 H   0  0  0  0  0  0  0  0  0  0  0  0
   17.0533   -6.0347   17.9630 H   0  0  0  0  0  0  0  0  0  0  0  0
   16.5307   -3.3386   18.9086 H   0  0  0  0  0  0  0  0  0  0  0  0
   14.6735   -5.1412   18.6124 H   0  0  0  0  0  0  0  0  0  0  0  0
   14.8482   -4.8460   16.8648 H   0  0  0  0  0  0  0  0  0  0  0  0
   12.5100   -4.7900   16.6096 H   0  0  0  0  0  0  0  0  0  0  0  0
   10.9954   -1.5694   14.2772 H   0  0  0  0  0  0  0  0  0  0  0  0
   15.2717    0.5355   16.2468 H   0  0  0  0  0  0  0  0  0  0  0  0
   14.5737    1.3249   17.6575 H   0  0  0  0  0  0  0  0  0  0  0  0
   13.2371    2.2425   15.8373 H   0  0  0  0  0  0  0  0  0  0  0  0
   11.5254    0.7596   14.8441 H   0  0  0  0  0  0  0  0  0  0  0  0
   17.2246   -5.2731   15.6831 H   0  0  0  0  0  0  0  0  0  0  0  0
   18.0785   -4.1341   13.6423 H   0  0  0  0  0  0  0  0  0  0  0  0
   18.7500   -1.7717   12.5777 H   0  0  0  0  0  0  0  0  0  0  0  0
   18.7350    0.7968   13.6029 H   0  0  0  0  0  0  0  0  0  0  0  0
   17.0462   -1.4257   17.6764 H   0  0  0  0  0  0  0  0  0  0  0  0
  1  2  1  0
  2  3  1  0
  3  4  1  0
  4  5  1  0
  5  6  2  0
  6  7  1  0
  7  8  1  0
  7  9  2  0
  9 10  1  0
 10 11  2  0
 11 12  1  0
 12 13  1  0
 13 14  1  0
 14 15  2  0
  2 16  1  0
 16 17  1  0
 17 18  2  0
 18 19  1  0
 19 20  1  0
 20 21  2  0
 21 22  1  0
 22 23  2  0
 23 24  1  0
 11  5  1  0
 24 16  2  0
 15 10  1  0
 23 19  1  0
  1 25  1  0
  1 26  1  0
  2 27  1  0
  3 28  1  0
  3 29  1  0
  6 30  1  0
  9 31  1  0
 13 32  1  0
 13 33  1  0
 14 34  1  0
 15 35  1  0
 17 36  1  0
 18 37  1  0
 20 38  1  0
 21 39  1  0
 24 40  1  0
M  END
>  <Energy>  (937) 
82.065281172241797

>  <compound_id>  (937) 
1223

>  <target_id>  (937) 
1

>  <reference_id>  (937) 
114

>  <inspiration_ids>  (937) 
[86, 114]

>  <energy_score>  (937) 
-60.60371584952989

>  <distance_score>  (937) 
1.724366660839751

>  <path>  (937) 
/opt/xchem-fragalysis-2/maxwin/BulkDock/SCRATCH/505733/C1223-P114/C1223-P114.minimised.mol

>  <scratch_subdir>  (937) 
/opt/xchem-fragalysis-2/maxwin/BulkDock/SCRATCH/505733/C1223-P114

>  <fragmenstein_runtime>  (937) 
1.3081402778625488

>  <fragmenstein_outcome>  (937) 
too moved

>  <fragmenstein_mode>  (937) 
expansion

>  <fragmenstein_error>  (937) 


$$$$
C1225-P86
     RDKit          3D

 45 47  0  0  0  0  0  0  0  0999 V2000
   14.2986    0.6714   18.1633 C   0  0  0  0  0  0  0  0  0  0  0  0
   13.7385   -0.6048   17.6048 C   0  0  0  0  0  0  0  0  0  0  0  0
   14.2104   -1.8443   18.0762 C   0  0  0  0  0  0  0  0  0  0  0  0
   13.7687   -3.0422   17.5145 C   0  0  0  0  0  0  0  0  0  0  0  0
   14.3155   -4.2576   17.8033 O   0  0  0  0  0  0  0  0  0  0  0  0
   15.7497   -4.2861   17.8111 C   0  0  0  0  0  0  0  0  0  0  0  0
   16.3915   -4.0802   16.4171 C   0  0  0  0  0  0  0  0  0  0  0  0
   17.2288   -2.8758   16.2135 N   0  0  0  0  0  0  0  0  0  0  0  0
   16.4783   -1.6534   15.8710 C   0  0  0  0  0  0  0  0  0  0  0  0
   17.3115   -0.4084   15.6837 C   0  0  0  0  0  0  0  0  0  0  0  0
   16.7768    0.7036   15.1383 C   0  0  0  0  0  0  0  0  0  0  0  0
   15.4460    0.6375   14.5599 C   0  0  0  0  0  0  0  0  0  0  0  0
   14.7941    1.7995   14.1152 C   0  0  0  0  0  0  0  0  0  0  0  0
   13.6807    1.6820   13.3130 C   0  0  0  0  0  0  0  0  0  0  0  0
   13.0776    2.7768   12.8336 F   0  0  0  0  0  0  0  0  0  0  0  0
   13.1932    0.4331   12.9945 C   0  0  0  0  0  0  0  0  0  0  0  0
   13.7757   -0.7081   13.5531 C   0  0  0  0  0  0  0  0  0  0  0  0
   13.1627   -1.8849   13.3952 F   0  0  0  0  0  0  0  0  0  0  0  0
   14.9210   -0.6324   14.3270 C   0  0  0  0  0  0  0  0  0  0  0  0
   15.5227   -1.7962   14.7855 O   0  0  0  0  0  0  0  0  0  0  0  0
   12.7011   -3.0284   16.6322 C   0  0  0  0  0  0  0  0  0  0  0  0
   12.1506   -1.7991   16.2585 C   0  0  0  0  0  0  0  0  0  0  0  0
   10.6614   -1.7711   15.3473 S   0  0  0  0  0  0  0  0  0  0  0  0
   10.8326   -0.5482   14.2316 N   0  0  0  0  0  0  0  0  0  0  0  0
   10.5575   -3.0334   14.6710 O   0  0  0  0  0  0  0  0  0  0  0  0
    9.6166   -1.2320   16.1964 O   0  0  0  0  0  0  0  0  0  0  0  0
   12.6952   -0.5902   16.6841 C   0  0  0  0  0  0  0  0  0  0  0  0
   13.9444    0.8239   19.1867 H   0  0  0  0  0  0  0  0  0  0  0  0
   13.9990    1.5347   17.5603 H   0  0  0  0  0  0  0  0  0  0  0  0
   15.3926    0.6389   18.1708 H   0  0  0  0  0  0  0  0  0  0  0  0
   14.9666   -1.8528   18.8577 H   0  0  0  0  0  0  0  0  0  0  0  0
   16.0137   -5.2947   18.1528 H   0  0  0  0  0  0  0  0  0  0  0  0
   16.1682   -3.6146   18.5691 H   0  0  0  0  0  0  0  0  0  0  0  0
   15.6490   -4.1791   15.6192 H   0  0  0  0  0  0  0  0  0  0  0  0
   17.0840   -4.9189   16.2706 H   0  0  0  0  0  0  0  0  0  0  0  0
   17.7792   -2.6991   17.0488 H   0  0  0  0  0  0  0  0  0  0  0  0
   15.9430   -1.4183   16.7698 H   0  0  0  0  0  0  0  0  0  0  0  0
   18.3150   -0.3873   16.0929 H   0  0  0  0  0  0  0  0  0  0  0  0
   17.3492    1.6217   15.0618 H   0  0  0  0  0  0  0  0  0  0  0  0
   15.2051    2.7848   14.3130 H   0  0  0  0  0  0  0  0  0  0  0  0
   12.3181    0.3592   12.3674 H   0  0  0  0  0  0  0  0  0  0  0  0
   12.2923   -3.9654   16.2612 H   0  0  0  0  0  0  0  0  0  0  0  0
   10.0917    0.1271   14.4074 H   0  0  0  0  0  0  0  0  0  0  0  0
   10.6545   -1.0376   13.3389 H   0  0  0  0  0  0  0  0  0  0  0  0
   12.2672    0.3529   16.3538 H   0  0  0  0  0  0  0  0  0  0  0  0
  1  2  1  0
  2  3  2  0
  3  4  1  0
  4  5  1  0
  5  6  1  0
  6  7  1  0
  7  8  1  0
  8  9  1  0
  9 10  1  0
 10 11  2  0
 11 12  1  0
 12 13  2  0
 13 14  1  0
 14 15  1  0
 14 16  2  0
 16 17  1  0
 17 18  1  0
 17 19  2  0
 19 20  1  0
  4 21  2  0
 21 22  1  0
 22 23  1  0
 23 24  1  0
 23 25  2  0
 23 26  2  0
 22 27  2  0
 27  2  1  0
 20  9  1  0
 19 12  1  0
  1 28  1  0
  1 29  1  0
  1 30  1  0
  3 31  1  0
  6 32  1  0
  6 33  1  0
  7 34  1  0
  7 35  1  0
  8 36  1  0
  9 37  1  0
 10 38  1  0
 11 39  1  0
 13 40  1  0
 16 41  1  0
 21 42  1  0
 24 43  1  0
 24 44  1  0
 27 45  1  0
M  END
>  <Energy>  (938) 
-21.387425552526111

>  <compound_id>  (938) 
1225

>  <target_id>  (938) 
1

>  <reference_id>  (938) 
86

>  <inspiration_ids>  (938) 
[86, 118]

>  <energy_score>  (938) 
-39.567983295527085

>  <distance_score>  (938) 
2.90466558048192

>  <path>  (938) 
/opt/xchem-fragalysis-2/maxwin/BulkDock/SCRATCH/505733/C1225-P86/C1225-P86.minimised.mol

>  <scratch_subdir>  (938) 
/opt/xchem-fragalysis-2/maxwin/BulkDock/SCRATCH/505733/C1225-P86

>  <fragmenstein_runtime>  (938) 
3.7789556980133057

>  <fragmenstein_outcome>  (938) 
too moved

>  <fragmenstein_mode>  (938) 
expansion

>  <fragmenstein_error>  (938) 


$$$$
C1225-P118
     RDKit          3D

 45 47  0  0  0  0  0  0  0  0999 V2000
   14.5179    0.1934   18.3478 C   0  0  0  0  0  0  0  0  0  0  0  0
   13.8709   -0.9797   17.6687 C   0  0  0  0  0  0  0  0  0  0  0  0
   14.3240   -2.2410   18.0345 C   0  0  0  0  0  0  0  0  0  0  0  0
   13.8400   -3.3638   17.3900 C   0  0  0  0  0  0  0  0  0  0  0  0
   14.5221   -4.5371   17.3902 O   0  0  0  0  0  0  0  0  0  0  0  0
   15.9563   -4.4359   17.3267 C   0  0  0  0  0  0  0  0  0  0  0  0
   16.6952   -3.2274   16.6438 C   0  0  0  0  0  0  0  0  0  0  0  0
   16.6002   -2.9922   15.1987 N   0  0  0  0  0  0  0  0  0  0  0  0
   15.5376   -2.0860   14.6846 C   0  0  0  0  0  0  0  0  0  0  0  0
   15.3715   -2.1824   13.1739 C   0  0  0  0  0  0  0  0  0  0  0  0
   14.6953   -1.2757   12.4450 C   0  0  0  0  0  0  0  0  0  0  0  0
   14.2423   -0.0731   13.1086 C   0  0  0  0  0  0  0  0  0  0  0  0
   13.3917    0.8506   12.4708 C   0  0  0  0  0  0  0  0  0  0  0  0
   13.0322    2.0263   13.1077 C   0  0  0  0  0  0  0  0  0  0  0  0
   12.2083    2.8902   12.4997 F   0  0  0  0  0  0  0  0  0  0  0  0
   13.5125    2.3014   14.3693 C   0  0  0  0  0  0  0  0  0  0  0  0
   14.3548    1.3733   14.9795 C   0  0  0  0  0  0  0  0  0  0  0  0
   14.7307    1.6259   16.2252 F   0  0  0  0  0  0  0  0  0  0  0  0
   14.7424    0.1776   14.3832 C   0  0  0  0  0  0  0  0  0  0  0  0
   15.6220   -0.6791   15.0576 O   0  0  0  0  0  0  0  0  0  0  0  0
   12.7194   -3.2867   16.5707 C   0  0  0  0  0  0  0  0  0  0  0  0
   12.2675   -2.0330   16.1721 C   0  0  0  0  0  0  0  0  0  0  0  0
   11.2551   -1.8991   14.7350 S   0  0  0  0  0  0  0  0  0  0  0  0
    9.6828   -1.7370   15.3087 N   0  0  0  0  0  0  0  0  0  0  0  0
   11.3372   -3.1413   14.0105 O   0  0  0  0  0  0  0  0  0  0  0  0
   11.5036   -0.6134   14.1285 O   0  0  0  0  0  0  0  0  0  0  0  0
   12.8504   -0.8801   16.7086 C   0  0  0  0  0  0  0  0  0  0  0  0
   15.5360    0.3350   17.9722 H   0  0  0  0  0  0  0  0  0  0  0  0
   14.5768    0.0217   19.4288 H   0  0  0  0  0  0  0  0  0  0  0  0
   13.9439    1.1122   18.2044 H   0  0  0  0  0  0  0  0  0  0  0  0
   15.1073   -2.3324   18.7837 H   0  0  0  0  0  0  0  0  0  0  0  0
   16.3000   -5.3466   16.8231 H   0  0  0  0  0  0  0  0  0  0  0  0
   16.3227   -4.5149   18.3585 H   0  0  0  0  0  0  0  0  0  0  0  0
   17.7591   -3.4547   16.8019 H   0  0  0  0  0  0  0  0  0  0  0  0
   16.5732   -2.2820   17.1739 H   0  0  0  0  0  0  0  0  0  0  0  0
   16.4592   -3.8918   14.7311 H   0  0  0  0  0  0  0  0  0  0  0  0
   14.6055   -2.4663   15.0751 H   0  0  0  0  0  0  0  0  0  0  0  0
   15.7382   -3.0581   12.6606 H   0  0  0  0  0  0  0  0  0  0  0  0
   14.5391   -1.4113   11.3831 H   0  0  0  0  0  0  0  0  0  0  0  0
   13.0162    0.6654   11.4725 H   0  0  0  0  0  0  0  0  0  0  0  0
   13.2304    3.2101   14.8862 H   0  0  0  0  0  0  0  0  0  0  0  0
   12.3101   -4.1872   16.1324 H   0  0  0  0  0  0  0  0  0  0  0  0
    9.3630   -0.8423   14.9250 H   0  0  0  0  0  0  0  0  0  0  0  0
    9.1671   -2.4840   14.8244 H   0  0  0  0  0  0  0  0  0  0  0  0
   12.5031    0.0980   16.3887 H   0  0  0  0  0  0  0  0  0  0  0  0
  1  2  1  0
  2  3  2  0
  3  4  1  0
  4  5  1  0
  5  6  1  0
  6  7  1  0
  7  8  1  0
  8  9  1  0
  9 10  1  0
 10 11  2  0
 11 12  1  0
 12 13  2  0
 13 14  1  0
 14 15  1  0
 14 16  2  0
 16 17  1  0
 17 18  1  0
 17 19  2  0
 19 20  1  0
  4 21  2  0
 21 22  1  0
 22 23  1  0
 23 24  1  0
 23 25  2  0
 23 26  2  0
 22 27  2  0
 27  2  1  0
 20  9  1  0
 19 12  1  0
  1 28  1  0
  1 29  1  0
  1 30  1  0
  3 31  1  0
  6 32  1  0
  6 33  1  0
  7 34  1  0
  7 35  1  0
  8 36  1  0
  9 37  1  0
 10 38  1  0
 11 39  1  0
 13 40  1  0
 16 41  1  0
 21 42  1  0
 24 43  1  0
 24 44  1  0
 27 45  1  0
M  END
>  <Energy>  (939) 
-13.036224455416587

>  <compound_id>  (939) 
1225

>  <target_id>  (939) 
1

>  <reference_id>  (939) 
118

>  <inspiration_ids>  (939) 
[86, 118]

>  <energy_score>  (939) 
-31.216782198414066

>  <distance_score>  (939) 
2.9628135005718357

>  <path>  (939) 
/opt/xchem-fragalysis-2/maxwin/BulkDock/SCRATCH/505733/C1225-P118/C1225-P118.minimised.mol

>  <scratch_subdir>  (939) 
/opt/xchem-fragalysis-2/maxwin/BulkDock/SCRATCH/505733/C1225-P118

>  <fragmenstein_runtime>  (939) 
3.7357258796691895

>  <fragmenstein_outcome>  (939) 
too moved

>  <fragmenstein_mode>  (939) 
expansion

>  <fragmenstein_error>  (939) 


$$$$
C1230-P86
     RDKit          3D

 41 43  0  0  0  0  0  0  0  0999 V2000
   16.6899   -4.6834   17.1025 C   0  0  0  0  0  0  0  0  0  0  0  0
   15.4276   -3.9871   17.2163 N   0  0  0  0  0  0  0  0  0  0  0  0
   15.2109   -2.7975   16.4930 C   0  0  0  0  0  0  0  0  0  0  0  0
   16.2236   -1.8863   16.2290 C   0  0  0  0  0  0  0  0  0  0  0  0
   15.9158   -0.5297   16.0756 C   0  0  0  0  0  0  0  0  0  0  0  0
   14.5887   -0.0904   16.1677 C   0  0  0  0  0  0  0  0  0  0  0  0
   14.3086    1.1384   16.8664 N   0  0  0  0  0  0  0  0  0  0  0  0
   14.6692    1.1624   18.2701 C   0  0  0  0  0  0  0  0  0  0  0  0
   15.3669    2.1314   18.9078 C   0  0  0  0  0  0  0  0  0  0  0  0
   15.9637    1.8175   20.2301 C   0  0  0  0  0  0  0  0  0  0  0  0
   16.6446    2.7653   20.9920 C   0  0  0  0  0  0  0  0  0  0  0  0
   17.3853    2.3502   22.1025 C   0  0  0  0  0  0  0  0  0  0  0  0
   18.0536    3.2673   22.8150 F   0  0  0  0  0  0  0  0  0  0  0  0
   17.4691    1.0110   22.4745 C   0  0  0  0  0  0  0  0  0  0  0  0
   16.7791    0.0710   21.7321 C   0  0  0  0  0  0  0  0  0  0  0  0
   16.8596   -1.2333   22.0419 F   0  0  0  0  0  0  0  0  0  0  0  0
   16.0263    0.4720   20.6362 C   0  0  0  0  0  0  0  0  0  0  0  0
   15.4292   -0.5216   19.9159 O   0  0  0  0  0  0  0  0  0  0  0  0
   14.3206   -0.0176   19.1796 C   0  0  0  0  0  0  0  0  0  0  0  0
   13.5674   -1.0058   16.0564 C   0  0  0  0  0  0  0  0  0  0  0  0
   13.8992   -2.3323   16.3177 C   0  0  0  0  0  0  0  0  0  0  0  0
   12.6026   -3.2517   16.9973 S   0  0  0  0  0  0  0  0  0  0  0  0
   12.8631   -4.9063   16.6237 C   0  0  0  0  0  0  0  0  0  0  0  0
   12.8381   -3.1250   18.4205 O   0  0  0  0  0  0  0  0  0  0  0  0
   11.3901   -2.8216   16.3283 O   0  0  0  0  0  0  0  0  0  0  0  0
   16.6122   -5.6519   17.6064 H   0  0  0  0  0  0  0  0  0  0  0  0
   16.9446   -4.8736   16.0546 H   0  0  0  0  0  0  0  0  0  0  0  0
   17.5019   -4.1261   17.5803 H   0  0  0  0  0  0  0  0  0  0  0  0
   15.2477   -3.7696   18.2087 H   0  0  0  0  0  0  0  0  0  0  0  0
   17.2696   -2.1595   16.3332 H   0  0  0  0  0  0  0  0  0  0  0  0
   16.7323    0.1883   16.1195 H   0  0  0  0  0  0  0  0  0  0  0  0
   14.8492    1.8788   16.4143 H   0  0  0  0  0  0  0  0  0  0  0  0
   15.6699    3.0472   18.4146 H   0  0  0  0  0  0  0  0  0  0  0  0
   16.6506    3.8151   20.7164 H   0  0  0  0  0  0  0  0  0  0  0  0
   18.0627    0.7111   23.3295 H   0  0  0  0  0  0  0  0  0  0  0  0
   13.5560    0.2786   19.8961 H   0  0  0  0  0  0  0  0  0  0  0  0
   13.9436   -0.8563   18.6140 H   0  0  0  0  0  0  0  0  0  0  0  0
   12.5373   -0.6620   16.1260 H   0  0  0  0  0  0  0  0  0  0  0  0
   13.6146   -5.0019   15.8568 H   0  0  0  0  0  0  0  0  0  0  0  0
   11.9198   -5.3445   16.3239 H   0  0  0  0  0  0  0  0  0  0  0  0
   13.2312   -5.3442   17.5476 H   0  0  0  0  0  0  0  0  0  0  0  0
  1  2  1  0
  2  3  1  0
  3  4  2  0
  4  5  1  0
  5  6  2  0
  6  7  1  0
  7  8  1  0
  8  9  2  0
  9 10  1  0
 10 11  2  0
 11 12  1  0
 12 13  1  0
 12 14  2  0
 14 15  1  0
 15 16  1  0
 15 17  2  0
 17 18  1  0
 18 19  1  0
  6 20  1  0
 20 21  2  0
 21 22  1  0
 22 23  1  0
 22 24  2  0
 22 25  2  0
 21  3  1  0
 19  8  1  0
 17 10  1  0
  1 26  1  0
  1 27  1  0
  1 28  1  0
  2 29  1  0
  4 30  1  0
  5 31  1  0
  7 32  1  0
  9 33  1  0
 11 34  1  0
 14 35  1  0
 19 36  1  0
 19 37  1  0
 20 38  1  0
 23 39  1  0
 23 40  1  0
 23 41  1  0
M  END
>  <Energy>  (940) 
128.02237143358596

>  <compound_id>  (940) 
1230

>  <target_id>  (940) 
1

>  <reference_id>  (940) 
86

>  <inspiration_ids>  (940) 
[86, 184]

>  <energy_score>  (940) 
-1.4450359996037605

>  <distance_score>  (940) 
2.323909804412061

>  <path>  (940) 
/opt/xchem-fragalysis-2/maxwin/BulkDock/SCRATCH/505733/C1230-P86/C1230-P86.minimised.mol

>  <scratch_subdir>  (940) 
/opt/xchem-fragalysis-2/maxwin/BulkDock/SCRATCH/505733/C1230-P86

>  <fragmenstein_runtime>  (940) 
5.226666450500488

>  <fragmenstein_outcome>  (940) 
too moved

>  <fragmenstein_mode>  (940) 
expansion

>  <fragmenstein_error>  (940) 


$$$$
C1230-P184
     RDKit          3D

 41 43  0  0  0  0  0  0  0  0999 V2000
   16.7948   -5.1784   17.1491 C   0  0  0  0  0  0  0  0  0  0  0  0
   16.1808   -4.1056   17.9158 N   0  0  0  0  0  0  0  0  0  0  0  0
   15.5681   -3.1026   17.1557 C   0  0  0  0  0  0  0  0  0  0  0  0
   16.3198   -2.0577   16.6311 C   0  0  0  0  0  0  0  0  0  0  0  0
   15.6951   -0.8592   16.3005 C   0  0  0  0  0  0  0  0  0  0  0  0
   14.3192   -0.7164   16.5067 C   0  0  0  0  0  0  0  0  0  0  0  0
   13.9023    0.5155   17.1417 N   0  0  0  0  0  0  0  0  0  0  0  0
   14.3864    0.6996   18.4950 C   0  0  0  0  0  0  0  0  0  0  0  0
   15.0327    1.7922   18.9642 C   0  0  0  0  0  0  0  0  0  0  0  0
   15.8102    1.6605   20.2236 C   0  0  0  0  0  0  0  0  0  0  0  0
   16.4171    2.7361   20.8672 C   0  0  0  0  0  0  0  0  0  0  0  0
   17.2930    2.4954   21.9325 C   0  0  0  0  0  0  0  0  0  0  0  0
   17.8816    3.5382   22.5336 F   0  0  0  0  0  0  0  0  0  0  0  0
   17.5823    1.2071   22.3774 C   0  0  0  0  0  0  0  0  0  0  0  0
   16.9733    0.1394   21.7488 C   0  0  0  0  0  0  0  0  0  0  0  0
   17.2211   -1.1231   22.1322 F   0  0  0  0  0  0  0  0  0  0  0  0
   16.1017    0.3666   20.6950 C   0  0  0  0  0  0  0  0  0  0  0  0
   15.6010   -0.7482   20.0854 O   0  0  0  0  0  0  0  0  0  0  0  0
   14.3391   -0.4483   19.5149 C   0  0  0  0  0  0  0  0  0  0  0  0
   13.5326   -1.8556   16.6441 C   0  0  0  0  0  0  0  0  0  0  0  0
   14.1837   -3.0327   17.0385 C   0  0  0  0  0  0  0  0  0  0  0  0
   13.2188   -4.3638   17.6319 S   0  0  0  0  0  0  0  0  0  0  0  0
   13.3386   -4.2923   19.4078 C   0  0  0  0  0  0  0  0  0  0  0  0
   11.8878   -4.0646   17.1460 O   0  0  0  0  0  0  0  0  0  0  0  0
   13.8373   -5.6091   17.2295 O   0  0  0  0  0  0  0  0  0  0  0  0
   17.0993   -5.9758   17.8341 H   0  0  0  0  0  0  0  0  0  0  0  0
   16.1298   -5.6160   16.4063 H   0  0  0  0  0  0  0  0  0  0  0  0
   17.6936   -4.8201   16.6352 H   0  0  0  0  0  0  0  0  0  0  0  0
   16.8868   -3.6880   18.5277 H   0  0  0  0  0  0  0  0  0  0  0  0
   17.4066   -2.0905   16.6545 H   0  0  0  0  0  0  0  0  0  0  0  0
   16.3115    0.0235   16.1367 H   0  0  0  0  0  0  0  0  0  0  0  0
   12.8864    0.5614   17.1148 H   0  0  0  0  0  0  0  0  0  0  0  0
   15.1675    2.6812   18.3591 H   0  0  0  0  0  0  0  0  0  0  0  0
   16.2563    3.7574   20.5362 H   0  0  0  0  0  0  0  0  0  0  0  0
   18.2691    1.0482   23.1999 H   0  0  0  0  0  0  0  0  0  0  0  0
   13.6655   -0.2313   20.3436 H   0  0  0  0  0  0  0  0  0  0  0  0
   13.9982   -1.3718   19.0727 H   0  0  0  0  0  0  0  0  0  0  0  0
   12.4538   -1.7710   16.7290 H   0  0  0  0  0  0  0  0  0  0  0  0
   14.3532   -4.5530   19.7120 H   0  0  0  0  0  0  0  0  0  0  0  0
   12.6595   -5.0295   19.8364 H   0  0  0  0  0  0  0  0  0  0  0  0
   13.0949   -3.3052   19.7758 H   0  0  0  0  0  0  0  0  0  0  0  0
  1  2  1  0
  2  3  1  0
  3  4  2  0
  4  5  1  0
  5  6  2  0
  6  7  1  0
  7  8  1  0
  8  9  2  0
  9 10  1  0
 10 11  2  0
 11 12  1  0
 12 13  1  0
 12 14  2  0
 14 15  1  0
 15 16  1  0
 15 17  2  0
 17 18  1  0
 18 19  1  0
  6 20  1  0
 20 21  2  0
 21 22  1  0
 22 23  1  0
 22 24  2  0
 22 25  2  0
 21  3  1  0
 19  8  1  0
 17 10  1  0
  1 26  1  0
  1 27  1  0
  1 28  1  0
  2 29  1  0
  4 30  1  0
  5 31  1  0
  7 32  1  0
  9 33  1  0
 11 34  1  0
 14 35  1  0
 19 36  1  0
 19 37  1  0
 20 38  1  0
 23 39  1  0
 23 40  1  0
 23 41  1  0
M  END
>  <Energy>  (941) 
132.24921080158342

>  <compound_id>  (941) 
1230

>  <target_id>  (941) 
1

>  <reference_id>  (941) 
184

>  <inspiration_ids>  (941) 
[86, 184]

>  <energy_score>  (941) 
2.7818033683921044

>  <distance_score>  (941) 
2.2949524419419762

>  <path>  (941) 
/opt/xchem-fragalysis-2/maxwin/BulkDock/SCRATCH/505733/C1230-P184/C1230-P184.minimised.mol

>  <scratch_subdir>  (941) 
/opt/xchem-fragalysis-2/maxwin/BulkDock/SCRATCH/505733/C1230-P184

>  <fragmenstein_runtime>  (941) 
5.672781944274902

>  <fragmenstein_outcome>  (941) 
too moved

>  <fragmenstein_mode>  (941) 
expansion

>  <fragmenstein_error>  (941) 


$$$$
C1231-P87
     RDKit          3D

 32 32  0  0  0  0  0  0  0  0999 V2000
  -10.8436  -25.2271   10.3705 N   0  0  0  0  0  0  0  0  0  0  0  0
   -9.9537  -25.4828   11.5680 C   0  0  0  0  0  0  0  0  0  0  0  0
   -9.2076  -24.7548   12.1019 O   0  0  0  0  0  0  0  0  0  0  0  0
  -10.2891  -26.9074   11.8706 N   0  0  0  0  0  0  0  0  0  0  0  0
   -9.8729  -27.7586   12.9474 C   0  0  0  0  0  0  0  0  0  0  0  0
  -10.3033  -29.0497   12.5333 O   0  0  0  0  0  0  0  0  0  0  0  0
  -10.6702  -27.4492   14.2327 C   0  0  0  0  0  0  0  0  0  0  0  0
  -10.3532  -26.1443   14.9561 C   0  0  0  0  0  0  0  0  0  0  0  0
  -10.9788  -25.0299   14.3452 O   0  0  0  0  0  0  0  0  0  0  0  0
   -8.3422  -27.7402   13.1571 C   0  0  0  0  0  0  0  0  0  0  0  0
   -7.8246  -28.6728   14.2558 C   0  0  0  0  0  0  0  0  0  0  0  0
   -6.3161  -28.7384   14.0279 C   0  0  0  0  0  0  0  0  0  0  0  0
   -6.0922  -28.3788   12.5601 C   0  0  0  0  0  0  0  0  0  0  0  0
   -7.4815  -28.1705   11.9628 C   0  0  0  0  0  0  0  0  0  0  0  0
  -11.4580  -26.0358   10.2284 H   0  0  0  0  0  0  0  0  0  0  0  0
  -11.2855  -26.1079   10.0846 H   0  0  0  0  0  0  0  0  0  0  0  0
  -11.0233  -27.2064   11.2753 H   0  0  0  0  0  0  0  0  0  0  0  0
   -9.8270  -29.2520   11.7129 H   0  0  0  0  0  0  0  0  0  0  0  0
  -10.5131  -28.2756   14.9384 H   0  0  0  0  0  0  0  0  0  0  0  0
  -11.7434  -27.4722   13.9959 H   0  0  0  0  0  0  0  0  0  0  0  0
   -9.2842  -25.9599   15.0735 H   0  0  0  0  0  0  0  0  0  0  0  0
  -10.7764  -26.2171   15.9632 H   0  0  0  0  0  0  0  0  0  0  0  0
  -10.2920  -24.5496   13.8355 H   0  0  0  0  0  0  0  0  0  0  0  0
   -8.0508  -26.7189   13.4104 H   0  0  0  0  0  0  0  0  0  0  0  0
   -8.0555  -28.3026   15.2587 H   0  0  0  0  0  0  0  0  0  0  0  0
   -8.2573  -29.6753   14.1569 H   0  0  0  0  0  0  0  0  0  0  0  0
   -5.7978  -28.0199   14.6731 H   0  0  0  0  0  0  0  0  0  0  0  0
   -5.9246  -29.7325   14.2669 H   0  0  0  0  0  0  0  0  0  0  0  0
   -5.5426  -29.1620   12.0282 H   0  0  0  0  0  0  0  0  0  0  0  0
   -5.5014  -27.4590   12.4853 H   0  0  0  0  0  0  0  0  0  0  0  0
   -7.4689  -27.4221   11.1646 H   0  0  0  0  0  0  0  0  0  0  0  0
   -7.8237  -29.1172   11.5320 H   0  0  0  0  0  0  0  0  0  0  0  0
  1  2  1  0
  2  3  2  0
  2  4  1  0
  4  5  1  0
  5  6  1  0
  5  7  1  0
  7  8  1  0
  8  9  1  0
  5 10  1  0
 10 11  1  0
 11 12  1  0
 12 13  1  0
 13 14  1  0
 14 10  1  0
  1 15  1  0
  1 16  1  0
  4 17  1  0
  6 18  1  0
  7 19  1  0
  7 20  1  0
  8 21  1  0
  8 22  1  0
  9 23  1  0
 10 24  1  0
 11 25  1  0
 11 26  1  0
 12 27  1  0
 12 28  1  0
 13 29  1  0
 13 30  1  0
 14 31  1  0
 14 32  1  0
M  END
>  <Energy>  (942) 
80.942616889263903

>  <compound_id>  (942) 
1231

>  <target_id>  (942) 
1

>  <reference_id>  (942) 
87

>  <inspiration_ids>  (942) 
[87, 1]

>  <energy_score>  (942) 
130.71942708614972

>  <distance_score>  (942) 
2.2309867536612646

>  <path>  (942) 
/opt/xchem-fragalysis-2/maxwin/BulkDock/SCRATCH/505733/C1231-P87/C1231-P87.minimised.mol

>  <scratch_subdir>  (942) 
/opt/xchem-fragalysis-2/maxwin/BulkDock/SCRATCH/505733/C1231-P87

>  <fragmenstein_runtime>  (942) 
2.9149091243743896

>  <fragmenstein_outcome>  (942) 
too moved

>  <fragmenstein_mode>  (942) 
expansion

>  <fragmenstein_error>  (942) 


$$$$
C1231-P1
     RDKit          3D

 32 32  0  0  0  0  0  0  0  0999 V2000
  -11.7363  -26.6642   10.2791 N   0  0  0  0  0  0  0  0  0  0  0  0
  -10.4757  -26.3925   11.0733 C   0  0  0  0  0  0  0  0  0  0  0  0
   -9.6010  -25.6466   10.8435 O   0  0  0  0  0  0  0  0  0  0  0  0
  -10.6367  -27.3757   12.1975 N   0  0  0  0  0  0  0  0  0  0  0  0
   -9.8228  -27.6159   13.3539 C   0  0  0  0  0  0  0  0  0  0  0  0
  -10.2618  -28.8925   13.8197 O   0  0  0  0  0  0  0  0  0  0  0  0
  -10.1470  -26.5986   14.4782 C   0  0  0  0  0  0  0  0  0  0  0  0
  -10.0789  -25.1235   14.0762 C   0  0  0  0  0  0  0  0  0  0  0  0
  -11.3497  -24.7019   13.5913 O   0  0  0  0  0  0  0  0  0  0  0  0
   -8.3092  -27.6913   13.0338 C   0  0  0  0  0  0  0  0  0  0  0  0
   -7.4502  -28.2900   14.1612 C   0  0  0  0  0  0  0  0  0  0  0  0
   -6.0980  -28.5644   13.5096 C   0  0  0  0  0  0  0  0  0  0  0  0
   -6.3838  -28.7232   12.0178 C   0  0  0  0  0  0  0  0  0  0  0  0
   -7.8991  -28.5994   11.8664 C   0  0  0  0  0  0  0  0  0  0  0  0
  -12.2332  -27.4568   10.6962 H   0  0  0  0  0  0  0  0  0  0  0  0
  -12.3453  -27.2882   10.8164 H   0  0  0  0  0  0  0  0  0  0  0  0
  -11.5335  -27.7944   12.1431 H   0  0  0  0  0  0  0  0  0  0  0  0
  -10.1193  -29.4993   13.0738 H   0  0  0  0  0  0  0  0  0  0  0  0
   -9.4634  -26.7705   15.3178 H   0  0  0  0  0  0  0  0  0  0  0  0
  -11.1502  -26.8140   14.8719 H   0  0  0  0  0  0  0  0  0  0  0  0
   -9.3190  -24.9283   13.3179 H   0  0  0  0  0  0  0  0  0  0  0  0
   -9.8544  -24.5058   14.9482 H   0  0  0  0  0  0  0  0  0  0  0  0
  -11.2142  -23.8189   13.1959 H   0  0  0  0  0  0  0  0  0  0  0  0
   -7.9514  -26.6856   12.7872 H   0  0  0  0  0  0  0  0  0  0  0  0
   -7.3543  -27.6367   15.0319 H   0  0  0  0  0  0  0  0  0  0  0  0
   -7.8694  -29.2402   14.5120 H   0  0  0  0  0  0  0  0  0  0  0  0
   -5.4101  -27.7272   13.6722 H   0  0  0  0  0  0  0  0  0  0  0  0
   -5.6305  -29.4597   13.9319 H   0  0  0  0  0  0  0  0  0  0  0  0
   -6.0189  -29.6793   11.6296 H   0  0  0  0  0  0  0  0  0  0  0  0
   -5.8809  -27.9262   11.4576 H   0  0  0  0  0  0  0  0  0  0  0  0
   -8.1670  -28.1843   10.8907 H   0  0  0  0  0  0  0  0  0  0  0  0
   -8.3550  -29.5925   11.9465 H   0  0  0  0  0  0  0  0  0  0  0  0
  1  2  1  0
  2  3  2  0
  2  4  1  0
  4  5  1  0
  5  6  1  0
  5  7  1  0
  7  8  1  0
  8  9  1  0
  5 10  1  0
 10 11  1  0
 11 12  1  0
 12 13  1  0
 13 14  1  0
 14 10  1  0
  1 15  1  0
  1 16  1  0
  4 17  1  0
  6 18  1  0
  7 19  1  0
  7 20  1  0
  8 21  1  0
  8 22  1  0
  9 23  1  0
 10 24  1  0
 11 25  1  0
 11 26  1  0
 12 27  1  0
 12 28  1  0
 13 29  1  0
 13 30  1  0
 14 31  1  0
 14 32  1  0
M  END
>  <Energy>  (943) 
83.530280865136447

>  <compound_id>  (943) 
1231

>  <target_id>  (943) 
1

>  <reference_id>  (943) 
1

>  <inspiration_ids>  (943) 
[87, 1]

>  <energy_score>  (943) 
133.30709106201607

>  <distance_score>  (943) 
2.119027195392198

>  <path>  (943) 
/opt/xchem-fragalysis-2/maxwin/BulkDock/SCRATCH/505733/C1231-P1/C1231-P1.minimised.mol

>  <scratch_subdir>  (943) 
/opt/xchem-fragalysis-2/maxwin/BulkDock/SCRATCH/505733/C1231-P1

>  <fragmenstein_runtime>  (943) 
3.080806016921997

>  <fragmenstein_outcome>  (943) 
too moved

>  <fragmenstein_mode>  (943) 
expansion

>  <fragmenstein_error>  (943) 


$$$$
C1240-P88
     RDKit          3D

 50 53  0  0  0  0  0  0  0  0999 V2000
  -12.5298  -20.3545   33.5572 C   0  0  0  0  0  0  0  0  0  0  0  0
  -11.0122  -20.4089   32.6584 S   0  0  0  0  0  0  0  0  0  0  0  0
  -10.7133  -19.0547   32.2362 O   0  0  0  0  0  0  0  0  0  0  0  0
  -10.0434  -21.1900   33.4026 O   0  0  0  0  0  0  0  0  0  0  0  0
  -11.3441  -21.3210   31.1921 C   0  0  0  0  0  0  0  0  0  0  0  0
  -11.2346  -20.7423   29.9334 C   0  0  0  0  0  0  0  0  0  0  0  0
  -11.3873  -21.5410   28.7970 C   0  0  0  0  0  0  0  0  0  0  0  0
  -11.7548  -22.8867   28.8906 C   0  0  0  0  0  0  0  0  0  0  0  0
  -11.9988  -23.6127   27.7201 N   0  0  0  0  0  0  0  0  0  0  0  0
  -10.7562  -24.1475   27.1462 C   0  0  0  0  0  0  0  0  0  0  0  0
  -10.4224  -25.5228   27.7699 C   0  0  0  0  0  0  0  0  0  0  0  0
  -11.4743  -26.5292   27.5450 N   0  0  0  0  0  0  0  0  0  0  0  0
  -12.6937  -26.0203   28.1369 C   0  0  0  0  0  0  0  0  0  0  0  0
  -13.6567  -27.0842   27.9081 N   0  0  0  0  0  0  0  0  0  0  0  0
  -14.7165  -27.0335   28.9183 C   0  0  0  0  0  0  0  0  0  0  0  0
  -15.4808  -28.3310   29.0199 C   0  0  0  0  0  0  0  0  0  0  0  0
  -15.3509  -29.1674   30.0648 C   0  0  0  0  0  0  0  0  0  0  0  0
  -14.3225  -28.8507   31.0537 C   0  0  0  0  0  0  0  0  0  0  0  0
  -13.9410  -29.7107   32.0812 C   0  0  0  0  0  0  0  0  0  0  0  0
  -12.8797  -29.3443   32.9148 C   0  0  0  0  0  0  0  0  0  0  0  0
  -12.5143  -30.1326   33.9278 F   0  0  0  0  0  0  0  0  0  0  0  0
  -12.1282  -28.2095   32.6919 C   0  0  0  0  0  0  0  0  0  0  0  0
  -12.5299  -27.3569   31.6957 C   0  0  0  0  0  0  0  0  0  0  0  0
  -11.8305  -26.2346   31.4986 F   0  0  0  0  0  0  0  0  0  0  0  0
  -13.6672  -27.6289   30.9439 C   0  0  0  0  0  0  0  0  0  0  0  0
  -14.2040  -26.6227   30.1904 O   0  0  0  0  0  0  0  0  0  0  0  0
  -13.1148  -24.5906   27.6786 C   0  0  0  0  0  0  0  0  0  0  0  0
  -11.8183  -23.4285   30.1685 C   0  0  0  0  0  0  0  0  0  0  0  0
  -11.5804  -22.6739   31.3124 C   0  0  0  0  0  0  0  0  0  0  0  0
  -12.7138  -21.3289   34.0033 H   0  0  0  0  0  0  0  0  0  0  0  0
  -13.3355  -20.0547   32.8852 H   0  0  0  0  0  0  0  0  0  0  0  0
  -12.4213  -19.6091   34.3468 H   0  0  0  0  0  0  0  0  0  0  0  0
  -10.9751  -19.6956   29.8146 H   0  0  0  0  0  0  0  0  0  0  0  0
  -11.2475  -21.0938   27.8157 H   0  0  0  0  0  0  0  0  0  0  0  0
   -9.9256  -23.4482   27.2839 H   0  0  0  0  0  0  0  0  0  0  0  0
  -10.8949  -24.2586   26.0642 H   0  0  0  0  0  0  0  0  0  0  0  0
   -9.5145  -25.9510   27.3580 H   0  0  0  0  0  0  0  0  0  0  0  0
  -10.2339  -25.4107   28.8435 H   0  0  0  0  0  0  0  0  0  0  0  0
  -11.6273  -26.6163   26.5364 H   0  0  0  0  0  0  0  0  0  0  0  0
  -12.4331  -25.9744   29.1854 H   0  0  0  0  0  0  0  0  0  0  0  0
  -13.1282  -27.9376   28.0818 H   0  0  0  0  0  0  0  0  0  0  0  0
  -15.4355  -26.2597   28.6237 H   0  0  0  0  0  0  0  0  0  0  0  0
  -16.1811  -28.5594   28.2224 H   0  0  0  0  0  0  0  0  0  0  0  0
  -15.9160  -30.0890   30.1459 H   0  0  0  0  0  0  0  0  0  0  0  0
  -14.4450  -30.6582   32.2477 H   0  0  0  0  0  0  0  0  0  0  0  0
  -11.2663  -27.9913   33.3062 H   0  0  0  0  0  0  0  0  0  0  0  0
  -13.9632  -24.2369   28.2756 H   0  0  0  0  0  0  0  0  0  0  0  0
  -13.4644  -24.6396   26.6390 H   0  0  0  0  0  0  0  0  0  0  0  0
  -12.0258  -24.4699   30.3181 H   0  0  0  0  0  0  0  0  0  0  0  0
  -11.5850  -23.1534   32.2870 H   0  0  0  0  0  0  0  0  0  0  0  0
  1  2  1  0
  2  3  2  0
  2  4  2  0
  2  5  1  0
  5  6  2  0
  6  7  1  0
  7  8  2  0
  8  9  1  0
  9 10  1  0
 10 11  1  0
 11 12  1  0
 12 13  1  0
 13 14  1  0
 14 15  1  0
 15 16  1  0
 16 17  2  0
 17 18  1  0
 18 19  2  0
 19 20  1  0
 20 21  1  0
 20 22  2  0
 22 23  1  0
 23 24  1  0
 23 25  2  0
 25 26  1  0
 13 27  1  0
  8 28  1  0
 28 29  2  0
 29  5  1  0
 27  9  1  0
 26 15  1  0
 25 18  1  0
  1 30  1  0
  1 31  1  0
  1 32  1  0
  6 33  1  0
  7 34  1  0
 10 35  1  0
 10 36  1  0
 11 37  1  0
 11 38  1  0
 12 39  1  0
 13 40  1  0
 14 41  1  0
 15 42  1  0
 16 43  1  0
 17 44  1  0
 19 45  1  0
 22 46  1  0
 27 47  1  0
 27 48  1  0
 28 49  1  0
 29 50  1  0
M  END
>  <Energy>  (944) 
89.243404540472071

>  <compound_id>  (944) 
1240

>  <target_id>  (944) 
1

>  <reference_id>  (944) 
88

>  <inspiration_ids>  (944) 
[88, 32]

>  <energy_score>  (944) 
-45.44418003411158

>  <distance_score>  (944) 
3.962427807856152

>  <path>  (944) 
/opt/xchem-fragalysis-2/maxwin/BulkDock/SCRATCH/505733/C1240-P88/C1240-P88.minimised.mol

>  <scratch_subdir>  (944) 
/opt/xchem-fragalysis-2/maxwin/BulkDock/SCRATCH/505733/C1240-P88

>  <fragmenstein_runtime>  (944) 
38.727030754089355

>  <fragmenstein_outcome>  (944) 
too moved

>  <fragmenstein_mode>  (944) 
expansion

>  <fragmenstein_error>  (944) 


$$$$
C1240-P32
     RDKit          3D

 50 53  0  0  0  0  0  0  0  0999 V2000
  -13.3176  -19.8129   33.3329 C   0  0  0  0  0  0  0  0  0  0  0  0
  -11.6076  -20.1309   33.0810 S   0  0  0  0  0  0  0  0  0  0  0  0
  -11.0327  -18.8890   32.6012 O   0  0  0  0  0  0  0  0  0  0  0  0
  -11.1221  -20.7815   34.2720 O   0  0  0  0  0  0  0  0  0  0  0  0
  -11.3401  -21.2587   31.7602 C   0  0  0  0  0  0  0  0  0  0  0  0
  -11.6087  -20.8741   30.4540 C   0  0  0  0  0  0  0  0  0  0  0  0
  -11.4434  -21.7783   29.4121 C   0  0  0  0  0  0  0  0  0  0  0  0
  -10.9526  -23.0601   29.6541 C   0  0  0  0  0  0  0  0  0  0  0  0
  -10.9788  -24.0634   28.6909 N   0  0  0  0  0  0  0  0  0  0  0  0
   -9.6605  -24.5577   28.2971 C   0  0  0  0  0  0  0  0  0  0  0  0
   -9.8201  -25.7939   27.3977 C   0  0  0  0  0  0  0  0  0  0  0  0
  -10.6938  -25.6036   26.2087 N   0  0  0  0  0  0  0  0  0  0  0  0
  -12.0316  -25.2447   26.7088 C   0  0  0  0  0  0  0  0  0  0  0  0
  -12.5522  -26.4830   27.2310 N   0  0  0  0  0  0  0  0  0  0  0  0
  -13.7109  -26.3985   28.0796 C   0  0  0  0  0  0  0  0  0  0  0  0
  -14.5679  -27.6332   27.9433 C   0  0  0  0  0  0  0  0  0  0  0  0
  -14.5746  -28.6126   28.8569 C   0  0  0  0  0  0  0  0  0  0  0  0
  -13.6452  -28.4774   29.9708 C   0  0  0  0  0  0  0  0  0  0  0  0
  -13.4063  -29.5275   30.8613 C   0  0  0  0  0  0  0  0  0  0  0  0
  -12.4919  -29.3490   31.8982 C   0  0  0  0  0  0  0  0  0  0  0  0
  -12.2647  -30.3340   32.7696 F   0  0  0  0  0  0  0  0  0  0  0  0
  -11.7926  -28.1731   32.0510 C   0  0  0  0  0  0  0  0  0  0  0  0
  -12.0346  -27.1450   31.1653 C   0  0  0  0  0  0  0  0  0  0  0  0
  -11.3602  -26.0081   31.3394 F   0  0  0  0  0  0  0  0  0  0  0  0
  -12.9794  -27.2635   30.1525 C   0  0  0  0  0  0  0  0  0  0  0  0
  -13.2948  -26.1473   29.4244 O   0  0  0  0  0  0  0  0  0  0  0  0
  -11.9627  -23.9586   27.6020 C   0  0  0  0  0  0  0  0  0  0  0  0
  -10.4814  -23.3429   30.9437 C   0  0  0  0  0  0  0  0  0  0  0  0
  -10.7011  -22.4664   32.0039 C   0  0  0  0  0  0  0  0  0  0  0  0
  -13.8456  -19.7901   32.3805 H   0  0  0  0  0  0  0  0  0  0  0  0
  -13.7321  -20.5398   34.0299 H   0  0  0  0  0  0  0  0  0  0  0  0
  -13.4034  -18.8291   33.8033 H   0  0  0  0  0  0  0  0  0  0  0  0
  -11.9228  -19.8715   30.2233 H   0  0  0  0  0  0  0  0  0  0  0  0
  -11.6875  -21.4562   28.4052 H   0  0  0  0  0  0  0  0  0  0  0  0
   -9.1363  -23.7600   27.7634 H   0  0  0  0  0  0  0  0  0  0  0  0
   -9.0494  -24.8402   29.1617 H   0  0  0  0  0  0  0  0  0  0  0  0
   -8.8412  -26.1258   27.0528 H   0  0  0  0  0  0  0  0  0  0  0  0
  -10.2318  -26.6052   28.0032 H   0  0  0  0  0  0  0  0  0  0  0  0
  -10.3306  -24.7802   25.7256 H   0  0  0  0  0  0  0  0  0  0  0  0
  -12.6690  -24.9818   25.8598 H   0  0  0  0  0  0  0  0  0  0  0  0
  -12.6113  -27.1978   26.5126 H   0  0  0  0  0  0  0  0  0  0  0  0
  -14.3547  -25.5603   27.7854 H   0  0  0  0  0  0  0  0  0  0  0  0
  -15.2030  -27.7077   27.0668 H   0  0  0  0  0  0  0  0  0  0  0  0
  -15.1900  -29.4987   28.7592 H   0  0  0  0  0  0  0  0  0  0  0  0
  -13.9179  -30.4801   30.7645 H   0  0  0  0  0  0  0  0  0  0  0  0
  -11.0504  -28.0734   32.8333 H   0  0  0  0  0  0  0  0  0  0  0  0
  -11.7010  -23.1181   26.9449 H   0  0  0  0  0  0  0  0  0  0  0  0
  -12.9537  -23.7611   28.0189 H   0  0  0  0  0  0  0  0  0  0  0  0
  -10.0138  -24.2981   31.1663 H   0  0  0  0  0  0  0  0  0  0  0  0
  -10.3956  -22.7573   33.0069 H   0  0  0  0  0  0  0  0  0  0  0  0
  1  2  1  0
  2  3  2  0
  2  4  2  0
  2  5  1  0
  5  6  2  0
  6  7  1  0
  7  8  2  0
  8  9  1  0
  9 10  1  0
 10 11  1  0
 11 12  1  0
 12 13  1  0
 13 14  1  0
 14 15  1  0
 15 16  1  0
 16 17  2  0
 17 18  1  0
 18 19  2  0
 19 20  1  0
 20 21  1  0
 20 22  2  0
 22 23  1  0
 23 24  1  0
 23 25  2  0
 25 26  1  0
 13 27  1  0
  8 28  1  0
 28 29  2  0
 29  5  1  0
 27  9  1  0
 26 15  1  0
 25 18  1  0
  1 30  1  0
  1 31  1  0
  1 32  1  0
  6 33  1  0
  7 34  1  0
 10 35  1  0
 10 36  1  0
 11 37  1  0
 11 38  1  0
 12 39  1  0
 13 40  1  0
 14 41  1  0
 15 42  1  0
 16 43  1  0
 17 44  1  0
 19 45  1  0
 22 46  1  0
 27 47  1  0
 27 48  1  0
 28 49  1  0
 29 50  1  0
M  END
>  <Energy>  (945) 
95.140719830071134

>  <compound_id>  (945) 
1240

>  <target_id>  (945) 
1

>  <reference_id>  (945) 
32

>  <inspiration_ids>  (945) 
[88, 32]

>  <energy_score>  (945) 
-39.54686474451364

>  <distance_score>  (945) 
3.624180163863286

>  <path>  (945) 
/opt/xchem-fragalysis-2/maxwin/BulkDock/SCRATCH/505733/C1240-P32/C1240-P32.minimised.mol

>  <scratch_subdir>  (945) 
/opt/xchem-fragalysis-2/maxwin/BulkDock/SCRATCH/505733/C1240-P32

>  <fragmenstein_runtime>  (945) 
37.29274344444275

>  <fragmenstein_outcome>  (945) 
too moved

>  <fragmenstein_mode>  (945) 
expansion

>  <fragmenstein_error>  (945) 


$$$$
C1242-P88
     RDKit          3D

 45 49  0  0  0  0  0  0  0  0999 V2000
  -12.1377  -27.6498   31.8507 O   0  0  0  0  0  0  0  0  0  0  0  0
  -13.4212  -27.6764   31.2747 N   0  0  0  0  0  0  0  0  0  0  0  0
  -13.5449  -27.2728   29.9201 C   0  0  0  0  0  0  0  0  0  0  0  0
  -14.3870  -26.2190   29.5323 C   0  0  0  0  0  0  0  0  0  0  0  0
  -15.3053  -25.7754   30.3934 F   0  0  0  0  0  0  0  0  0  0  0  0
  -14.1393  -25.4138   28.4214 C   0  0  0  0  0  0  0  0  0  0  0  0
  -12.8997  -25.5636   27.8263 C   0  0  0  0  0  0  0  0  0  0  0  0
  -12.1940  -26.7693   28.0672 C   0  0  0  0  0  0  0  0  0  0  0  0
  -12.6036  -27.6953   29.0113 C   0  0  0  0  0  0  0  0  0  0  0  0
  -11.8012  -28.7305   29.3224 F   0  0  0  0  0  0  0  0  0  0  0  0
  -10.8558  -26.9111   27.8480 O   0  0  0  0  0  0  0  0  0  0  0  0
  -10.2135  -25.6678   27.7665 C   0  0  0  0  0  0  0  0  0  0  0  0
  -10.8450  -24.4870   28.5313 C   0  0  0  0  0  0  0  0  0  0  0  0
  -12.0775  -24.2817   27.5850 C   0  0  0  0  0  0  0  0  0  0  0  0
  -11.4327  -24.6308   29.9859 C   0  0  0  0  0  0  0  0  0  0  0  0
  -10.6814  -23.9996   31.0603 N   0  0  0  0  0  0  0  0  0  0  0  0
  -11.0101  -22.8378   31.7370 C   0  0  0  0  0  0  0  0  0  0  0  0
  -10.8060  -22.7815   33.0694 C   0  0  0  0  0  0  0  0  0  0  0  0
  -11.0321  -21.5626   33.8051 C   0  0  0  0  0  0  0  0  0  0  0  0
  -11.2658  -20.4091   33.1648 C   0  0  0  0  0  0  0  0  0  0  0  0
  -11.2977  -20.4093   31.7574 C   0  0  0  0  0  0  0  0  0  0  0  0
  -11.2432  -19.4352   30.8881 N   0  0  0  0  0  0  0  0  0  0  0  0
  -11.3828  -19.9664   29.6454 N   0  0  0  0  0  0  0  0  0  0  0  0
  -11.4302  -21.2680   29.7809 C   0  0  0  0  0  0  0  0  0  0  0  0
  -11.2860  -21.6239   31.0892 N   0  0  0  0  0  0  0  0  0  0  0  0
   -9.2864  -24.2945   30.9627 C   0  0  0  0  0  0  0  0  0  0  0  0
   -8.8289  -23.8121   29.6080 C   0  0  0  0  0  0  0  0  0  0  0  0
   -9.8351  -23.4798   28.5932 O   0  0  0  0  0  0  0  0  0  0  0  0
  -11.7438  -28.4878   31.5314 H   0  0  0  0  0  0  0  0  0  0  0  0
  -14.1697  -27.3316   31.8808 H   0  0  0  0  0  0  0  0  0  0  0  0
  -14.7362  -24.5168   28.2838 H   0  0  0  0  0  0  0  0  0  0  0  0
   -9.1667  -25.8010   27.9962 H   0  0  0  0  0  0  0  0  0  0  0  0
  -10.2106  -25.4387   26.6977 H   0  0  0  0  0  0  0  0  0  0  0  0
  -11.8165  -24.1690   26.5265 H   0  0  0  0  0  0  0  0  0  0  0  0
  -12.6413  -23.3868   27.8493 H   0  0  0  0  0  0  0  0  0  0  0  0
  -12.4359  -24.2068   30.0358 H   0  0  0  0  0  0  0  0  0  0  0  0
  -11.4794  -25.6777   30.2705 H   0  0  0  0  0  0  0  0  0  0  0  0
  -10.4716  -23.6478   33.6260 H   0  0  0  0  0  0  0  0  0  0  0  0
  -11.0304  -21.6101   34.8898 H   0  0  0  0  0  0  0  0  0  0  0  0
  -11.4428  -19.4854   33.7027 H   0  0  0  0  0  0  0  0  0  0  0  0
  -11.5253  -21.9512   28.9648 H   0  0  0  0  0  0  0  0  0  0  0  0
   -8.6772  -23.8481   31.7587 H   0  0  0  0  0  0  0  0  0  0  0  0
   -9.1547  -25.3642   31.0683 H   0  0  0  0  0  0  0  0  0  0  0  0
   -8.2460  -22.9142   29.7433 H   0  0  0  0  0  0  0  0  0  0  0  0
   -8.1612  -24.5924   29.2513 H   0  0  0  0  0  0  0  0  0  0  0  0
  1  2  1  0
  2  3  1  0
  3  4  2  0
  4  5  1  0
  4  6  1  0
  6  7  2  0
  7  8  1  0
  8  9  2  0
  9 10  1  0
  8 11  1  0
 11 12  1  0
 12 13  1  0
 13 14  1  0
 13 15  1  0
 15 16  1  0
 16 17  1  0
 17 18  2  0
 18 19  1  0
 19 20  2  0
 20 21  1  0
 21 22  2  0
 22 23  1  0
 23 24  2  0
 24 25  1  0
 16 26  1  0
 26 27  1  0
 27 28  1  0
  9  3  1  0
 28 13  1  0
 14  7  1  0
 25 17  1  0
 25 21  1  0
  1 29  1  0
  2 30  1  0
  6 31  1  0
 12 32  1  0
 12 33  1  0
 14 34  1  0
 14 35  1  0
 15 36  1  0
 15 37  1  0
 18 38  1  0
 19 39  1  0
 20 40  1  0
 24 41  1  0
 26 42  1  0
 26 43  1  0
 27 44  1  0
 27 45  1  0
M  END
>  <Energy>  (946) 
305.18041872389722

>  <compound_id>  (946) 
1242

>  <target_id>  (946) 
1

>  <reference_id>  (946) 
88

>  <inspiration_ids>  (946) 
[88, 38]

>  <energy_score>  (946) 
24.441298363314388

>  <distance_score>  (946) 
2.376896578592135

>  <path>  (946) 
/opt/xchem-fragalysis-2/maxwin/BulkDock/SCRATCH/505733/C1242-P88/C1242-P88.minimised.mol

>  <scratch_subdir>  (946) 
/opt/xchem-fragalysis-2/maxwin/BulkDock/SCRATCH/505733/C1242-P88

>  <fragmenstein_runtime>  (946) 
7.662932634353638

>  <fragmenstein_outcome>  (946) 
too moved

>  <fragmenstein_mode>  (946) 
expansion

>  <fragmenstein_error>  (946) 


$$$$
C1242-P38
     RDKit          3D

 45 49  0  0  0  0  0  0  0  0999 V2000
  -10.5279  -26.7714   32.0735 O   0  0  0  0  0  0  0  0  0  0  0  0
   -9.9290  -26.9380   30.8512 N   0  0  0  0  0  0  0  0  0  0  0  0
  -10.7353  -26.9941   29.7238 C   0  0  0  0  0  0  0  0  0  0  0  0
  -12.0534  -27.4264   29.7563 C   0  0  0  0  0  0  0  0  0  0  0  0
  -12.5307  -27.8333   30.9269 F   0  0  0  0  0  0  0  0  0  0  0  0
  -12.9304  -27.3430   28.6621 C   0  0  0  0  0  0  0  0  0  0  0  0
  -12.4665  -26.7463   27.5221 C   0  0  0  0  0  0  0  0  0  0  0  0
  -11.0930  -26.6896   27.3806 C   0  0  0  0  0  0  0  0  0  0  0  0
  -10.2456  -26.7113   28.4796 C   0  0  0  0  0  0  0  0  0  0  0  0
   -9.0034  -26.2438   28.3337 F   0  0  0  0  0  0  0  0  0  0  0  0
  -10.6948  -26.0489   26.2598 O   0  0  0  0  0  0  0  0  0  0  0  0
  -10.8298  -24.6946   26.6640 C   0  0  0  0  0  0  0  0  0  0  0  0
  -12.2034  -24.3673   27.3360 C   0  0  0  0  0  0  0  0  0  0  0  0
  -13.1615  -25.5337   26.8738 C   0  0  0  0  0  0  0  0  0  0  0  0
  -12.4571  -24.2129   28.8602 C   0  0  0  0  0  0  0  0  0  0  0  0
  -11.7356  -23.1648   29.5742 N   0  0  0  0  0  0  0  0  0  0  0  0
  -11.8481  -23.2038   30.9465 C   0  0  0  0  0  0  0  0  0  0  0  0
  -10.9331  -23.8783   31.6486 C   0  0  0  0  0  0  0  0  0  0  0  0
  -11.1072  -24.0148   33.0502 C   0  0  0  0  0  0  0  0  0  0  0  0
  -12.0146  -23.2810   33.7070 C   0  0  0  0  0  0  0  0  0  0  0  0
  -12.9410  -22.4965   33.0214 C   0  0  0  0  0  0  0  0  0  0  0  0
  -13.9240  -21.7082   33.3970 N   0  0  0  0  0  0  0  0  0  0  0  0
  -14.7110  -21.5084   32.2949 N   0  0  0  0  0  0  0  0  0  0  0  0
  -14.1560  -22.1878   31.3174 C   0  0  0  0  0  0  0  0  0  0  0  0
  -12.9143  -22.6244   31.6555 N   0  0  0  0  0  0  0  0  0  0  0  0
  -11.5606  -21.8953   28.9011 C   0  0  0  0  0  0  0  0  0  0  0  0
  -11.4128  -22.1734   27.4330 C   0  0  0  0  0  0  0  0  0  0  0  0
  -12.4191  -23.0610   26.8816 O   0  0  0  0  0  0  0  0  0  0  0  0
  -10.0802  -27.4579   32.6130 H   0  0  0  0  0  0  0  0  0  0  0  0
   -9.0830  -26.3854   30.7478 H   0  0  0  0  0  0  0  0  0  0  0  0
  -13.9727  -27.5977   28.7469 H   0  0  0  0  0  0  0  0  0  0  0  0
   -9.9738  -24.4219   27.2924 H   0  0  0  0  0  0  0  0  0  0  0  0
  -10.7350  -24.1330   25.7264 H   0  0  0  0  0  0  0  0  0  0  0  0
  -13.1989  -25.6221   25.7820 H   0  0  0  0  0  0  0  0  0  0  0  0
  -14.1887  -25.4222   27.2328 H   0  0  0  0  0  0  0  0  0  0  0  0
  -12.2906  -25.1051   29.4276 H   0  0  0  0  0  0  0  0  0  0  0  0
  -13.5253  -24.0125   29.0036 H   0  0  0  0  0  0  0  0  0  0  0  0
  -10.1033  -24.3869   31.1848 H   0  0  0  0  0  0  0  0  0  0  0  0
  -10.4807  -24.7478   33.5442 H   0  0  0  0  0  0  0  0  0  0  0  0
  -12.1170  -23.3468   34.7670 H   0  0  0  0  0  0  0  0  0  0  0  0
  -14.5896  -22.4144   30.3772 H   0  0  0  0  0  0  0  0  0  0  0  0
  -12.3395  -21.1828   29.1355 H   0  0  0  0  0  0  0  0  0  0  0  0
  -10.6580  -21.4077   29.2684 H   0  0  0  0  0  0  0  0  0  0  0  0
  -10.4361  -22.6107   27.3623 H   0  0  0  0  0  0  0  0  0  0  0  0
  -11.3609  -21.2920   26.8226 H   0  0  0  0  0  0  0  0  0  0  0  0
  1  2  1  0
  2  3  1  0
  3  4  2  0
  4  5  1  0
  4  6  1  0
  6  7  2  0
  7  8  1  0
  8  9  2  0
  9 10  1  0
  8 11  1  0
 11 12  1  0
 12 13  1  0
 13 14  1  0
 13 15  1  0
 15 16  1  0
 16 17  1  0
 17 18  2  0
 18 19  1  0
 19 20  2  0
 20 21  1  0
 21 22  2  0
 22 23  1  0
 23 24  2  0
 24 25  1  0
 16 26  1  0
 26 27  1  0
 27 28  1  0
  9  3  1  0
 28 13  1  0
 14  7  1  0
 25 17  1  0
 25 21  1  0
  1 29  1  0
  2 30  1  0
  6 31  1  0
 12 32  1  0
 12 33  1  0
 14 34  1  0
 14 35  1  0
 15 36  1  0
 15 37  1  0
 18 38  1  0
 19 39  1  0
 20 40  1  0
 24 41  1  0
 26 42  1  0
 26 43  1  0
 27 44  1  0
 27 45  1  0
M  END
>  <Energy>  (947) 
319.40576849507403

>  <compound_id>  (947) 
1242

>  <target_id>  (947) 
1

>  <reference_id>  (947) 
38

>  <inspiration_ids>  (947) 
[88, 38]

>  <energy_score>  (947) 
38.66664813449205

>  <distance_score>  (947) 
2.197796113488111

>  <path>  (947) 
/opt/xchem-fragalysis-2/maxwin/BulkDock/SCRATCH/505733/C1242-P38/C1242-P38.minimised.mol

>  <scratch_subdir>  (947) 
/opt/xchem-fragalysis-2/maxwin/BulkDock/SCRATCH/505733/C1242-P38

>  <fragmenstein_runtime>  (947) 
8.381450176239014

>  <fragmenstein_outcome>  (947) 
too moved

>  <fragmenstein_mode>  (947) 
expansion

>  <fragmenstein_error>  (947) 


$$$$
C1245-P88
     RDKit          3D

 31 34  0  0  0  0  0  0  0  0999 V2000
   -9.5361  -22.0685   34.0362 F   0  0  0  0  0  0  0  0  0  0  0  0
  -10.0481  -22.6143   32.9303 C   0  0  0  0  0  0  0  0  0  0  0  0
  -11.2650  -22.1789   32.4387 C   0  0  0  0  0  0  0  0  0  0  0  0
  -11.7771  -22.7924   31.2984 C   0  0  0  0  0  0  0  0  0  0  0  0
  -12.8504  -22.2806   30.6937 F   0  0  0  0  0  0  0  0  0  0  0  0
  -11.1607  -23.8699   30.6969 C   0  0  0  0  0  0  0  0  0  0  0  0
   -9.8419  -24.0888   31.0493 C   0  0  0  0  0  0  0  0  0  0  0  0
   -9.2915  -23.5275   32.2101 C   0  0  0  0  0  0  0  0  0  0  0  0
   -9.0479  -24.5008   29.9165 C   0  0  0  0  0  0  0  0  0  0  0  0
   -9.6783  -25.0618   28.8813 C   0  0  0  0  0  0  0  0  0  0  0  0
  -11.0817  -25.4921   28.8617 C   0  0  0  0  0  0  0  0  0  0  0  0
  -11.3585  -27.2436   29.3184 S   0  0  0  0  0  0  0  0  0  0  0  0
  -10.4536  -28.5892   28.5089 C   0  0  0  0  0  0  0  0  0  0  0  0
  -11.1879  -29.7254   28.4743 C   0  0  0  0  0  0  0  0  0  0  0  0
  -10.7254  -30.9344   27.8307 C   0  0  0  0  0  0  0  0  0  0  0  0
   -9.5547  -30.9906   27.1921 C   0  0  0  0  0  0  0  0  0  0  0  0
   -8.7810  -29.8253   27.0817 C   0  0  0  0  0  0  0  0  0  0  0  0
   -7.9384  -29.5074   26.1286 N   0  0  0  0  0  0  0  0  0  0  0  0
   -7.5443  -28.2390   26.3464 N   0  0  0  0  0  0  0  0  0  0  0  0
   -8.3396  -27.7398   27.2355 C   0  0  0  0  0  0  0  0  0  0  0  0
   -9.1707  -28.6862   27.7878 N   0  0  0  0  0  0  0  0  0  0  0  0
  -11.8237  -24.5435   29.6871 O   0  0  0  0  0  0  0  0  0  0  0  0
  -11.8185  -21.3851   32.9275 H   0  0  0  0  0  0  0  0  0  0  0  0
   -8.2605  -23.7053   32.5003 H   0  0  0  0  0  0  0  0  0  0  0  0
   -8.0449  -24.1298   29.8218 H   0  0  0  0  0  0  0  0  0  0  0  0
   -9.1905  -25.1182   27.9419 H   0  0  0  0  0  0  0  0  0  0  0  0
  -11.4806  -25.3636   27.8498 H   0  0  0  0  0  0  0  0  0  0  0  0
  -12.1718  -29.7938   28.9354 H   0  0  0  0  0  0  0  0  0  0  0  0
  -11.3586  -31.8156   27.8929 H   0  0  0  0  0  0  0  0  0  0  0  0
   -9.2179  -31.8912   26.6886 H   0  0  0  0  0  0  0  0  0  0  0  0
   -8.3844  -26.7036   27.4364 H   0  0  0  0  0  0  0  0  0  0  0  0
  1  2  1  0
  2  3  2  0
  3  4  1  0
  4  5  1  0
  4  6  2  0
  6  7  1  0
  7  8  2  0
  7  9  1  0
  9 10  2  0
 10 11  1  0
 11 12  1  0
 12 13  1  0
 13 14  2  0
 14 15  1  0
 15 16  2  0
 16 17  1  0
 17 18  2  0
 18 19  1  0
 19 20  2  0
 20 21  1  0
 11 22  1  0
  8  2  1  0
 21 13  1  0
 22  6  1  0
 21 17  1  0
  3 23  1  0
  8 24  1  0
  9 25  1  0
 10 26  1  0
 11 27  1  0
 14 28  1  0
 15 29  1  0
 16 30  1  0
 20 31  1  0
M  END
>  <Energy>  (948) 
111.6715985449941

>  <compound_id>  (948) 
1245

>  <target_id>  (948) 
1

>  <reference_id>  (948) 
88

>  <inspiration_ids>  (948) 
[88, 45]

>  <energy_score>  (948) 
38.558632739783434

>  <distance_score>  (948) 
3.6236146697169533

>  <path>  (948) 
/opt/xchem-fragalysis-2/maxwin/BulkDock/SCRATCH/505733/C1245-P88/C1245-P88.minimised.mol

>  <scratch_subdir>  (948) 
/opt/xchem-fragalysis-2/maxwin/BulkDock/SCRATCH/505733/C1245-P88

>  <fragmenstein_runtime>  (948) 
4.3679914474487305

>  <fragmenstein_outcome>  (948) 
too moved

>  <fragmenstein_mode>  (948) 
expansion

>  <fragmenstein_error>  (948) 


$$$$
C1245-P45
     RDKit          3D

 31 34  0  0  0  0  0  0  0  0999 V2000
  -12.3900  -21.6909   34.4091 F   0  0  0  0  0  0  0  0  0  0  0  0
  -11.8191  -22.3671   33.4071 C   0  0  0  0  0  0  0  0  0  0  0  0
  -11.9075  -21.8627   32.1313 C   0  0  0  0  0  0  0  0  0  0  0  0
  -11.4612  -22.6103   31.0617 C   0  0  0  0  0  0  0  0  0  0  0  0
  -11.6463  -22.1775   29.8115 F   0  0  0  0  0  0  0  0  0  0  0  0
  -10.7803  -23.7954   31.2812 C   0  0  0  0  0  0  0  0  0  0  0  0
  -10.5287  -24.2173   32.5871 C   0  0  0  0  0  0  0  0  0  0  0  0
  -11.1849  -23.5747   33.6298 C   0  0  0  0  0  0  0  0  0  0  0  0
   -9.7446  -25.4058   32.7977 C   0  0  0  0  0  0  0  0  0  0  0  0
   -9.2620  -26.0091   31.7095 C   0  0  0  0  0  0  0  0  0  0  0  0
   -9.4750  -25.5528   30.2944 C   0  0  0  0  0  0  0  0  0  0  0  0
   -9.9624  -27.0166   29.3227 S   0  0  0  0  0  0  0  0  0  0  0  0
   -8.7267  -27.2813   27.9177 C   0  0  0  0  0  0  0  0  0  0  0  0
   -9.4873  -27.7477   26.8914 C   0  0  0  0  0  0  0  0  0  0  0  0
  -10.3494  -26.6743   26.3241 C   0  0  0  0  0  0  0  0  0  0  0  0
   -9.9536  -25.3756   26.3839 C   0  0  0  0  0  0  0  0  0  0  0  0
   -8.6496  -25.0881   26.8904 C   0  0  0  0  0  0  0  0  0  0  0  0
   -7.8110  -24.0780   26.8438 N   0  0  0  0  0  0  0  0  0  0  0  0
   -6.5498  -24.5752   27.0670 N   0  0  0  0  0  0  0  0  0  0  0  0
   -6.6901  -25.8639   27.2829 C   0  0  0  0  0  0  0  0  0  0  0  0
   -8.0146  -26.1262   27.5323 N   0  0  0  0  0  0  0  0  0  0  0  0
  -10.4838  -24.5448   30.1669 O   0  0  0  0  0  0  0  0  0  0  0  0
  -12.4168  -20.9410   31.9954 H   0  0  0  0  0  0  0  0  0  0  0  0
  -11.2932  -24.0390   34.6032 H   0  0  0  0  0  0  0  0  0  0  0  0
   -9.5807  -25.7871   33.7970 H   0  0  0  0  0  0  0  0  0  0  0  0
   -8.6838  -26.9092   31.8621 H   0  0  0  0  0  0  0  0  0  0  0  0
   -8.5517  -25.1316   29.8986 H   0  0  0  0  0  0  0  0  0  0  0  0
   -9.0270  -28.3341   26.0928 H   0  0  0  0  0  0  0  0  0  0  0  0
  -11.3037  -26.9696   25.8987 H   0  0  0  0  0  0  0  0  0  0  0  0
  -10.5644  -24.5705   25.9928 H   0  0  0  0  0  0  0  0  0  0  0  0
   -5.9012  -26.6018   27.3250 H   0  0  0  0  0  0  0  0  0  0  0  0
  1  2  1  0
  2  3  2  0
  3  4  1  0
  4  5  1  0
  4  6  2  0
  6  7  1  0
  7  8  2  0
  7  9  1  0
  9 10  2  0
 10 11  1  0
 11 12  1  0
 12 13  1  0
 13 14  2  0
 14 15  1  0
 15 16  2  0
 16 17  1  0
 17 18  2  0
 18 19  1  0
 19 20  2  0
 20 21  1  0
 11 22  1  0
  8  2  1  0
 21 13  1  0
 22  6  1  0
 21 17  1  0
  3 23  1  0
  8 24  1  0
  9 25  1  0
 10 26  1  0
 11 27  1  0
 14 28  1  0
 15 29  1  0
 16 30  1  0
 20 31  1  0
M  END
>  <Energy>  (949) 
144.72464005511517

>  <compound_id>  (949) 
1245

>  <target_id>  (949) 
1

>  <reference_id>  (949) 
45

>  <inspiration_ids>  (949) 
[88, 45]

>  <energy_score>  (949) 
71.61167424990623

>  <distance_score>  (949) 
2.1979575450875766

>  <path>  (949) 
/opt/xchem-fragalysis-2/maxwin/BulkDock/SCRATCH/505733/C1245-P45/C1245-P45.minimised.mol

>  <scratch_subdir>  (949) 
/opt/xchem-fragalysis-2/maxwin/BulkDock/SCRATCH/505733/C1245-P45

>  <fragmenstein_runtime>  (949) 
2.4870376586914062

>  <fragmenstein_outcome>  (949) 
too moved

>  <fragmenstein_mode>  (949) 
expansion

>  <fragmenstein_error>  (949) 


$$$$
C1246-P88
     RDKit          3D

 49 54  0  0  0  0  0  0  0  0999 V2000
  -12.2196  -23.3503   27.5127 F   0  0  0  0  0  0  0  0  0  0  0  0
  -12.6681  -24.3953   28.2208 C   0  0  0  0  0  0  0  0  0  0  0  0
  -11.7574  -25.1245   28.9620 C   0  0  0  0  0  0  0  0  0  0  0  0
  -12.2183  -26.1773   29.7570 C   0  0  0  0  0  0  0  0  0  0  0  0
  -11.3004  -26.8882   30.4629 O   0  0  0  0  0  0  0  0  0  0  0  0
  -11.6097  -27.1384   31.8474 C   0  0  0  0  0  0  0  0  0  0  0  0
  -10.5950  -26.6487   32.7833 O   0  0  0  0  0  0  0  0  0  0  0  0
  -10.1013  -25.3697   32.6139 C   0  0  0  0  0  0  0  0  0  0  0  0
   -8.9514  -24.9982   33.3060 C   0  0  0  0  0  0  0  0  0  0  0  0
   -8.5839  -23.6496   33.3969 C   0  0  0  0  0  0  0  0  0  0  0  0
   -9.4493  -22.6995   32.8518 C   0  0  0  0  0  0  0  0  0  0  0  0
   -9.4881  -21.3505   32.9586 N   0  0  0  0  0  0  0  0  0  0  0  0
  -10.5702  -20.9955   32.3167 C   0  0  0  0  0  0  0  0  0  0  0  0
  -11.0975  -19.4307   32.0092 S   0  0  0  0  0  0  0  0  0  0  0  0
  -12.3528  -19.2183   33.2241 C   0  0  0  0  0  0  0  0  0  0  0  0
  -13.4827  -19.9431   33.1316 C   0  0  0  0  0  0  0  0  0  0  0  0
  -14.6704  -19.5960   33.8940 C   0  0  0  0  0  0  0  0  0  0  0  0
  -14.7333  -18.4667   34.6114 C   0  0  0  0  0  0  0  0  0  0  0  0
  -13.5905  -17.6351   34.6739 C   0  0  0  0  0  0  0  0  0  0  0  0
  -13.4061  -16.4595   35.2320 N   0  0  0  0  0  0  0  0  0  0  0  0
  -12.1251  -16.0675   34.9546 N   0  0  0  0  0  0  0  0  0  0  0  0
  -11.5779  -16.9987   34.2070 C   0  0  0  0  0  0  0  0  0  0  0  0
  -12.4215  -18.0623   34.0391 N   0  0  0  0  0  0  0  0  0  0  0  0
  -11.1847  -22.0144   31.6974 N   0  0  0  0  0  0  0  0  0  0  0  0
  -10.5171  -23.1175   32.0967 C   0  0  0  0  0  0  0  0  0  0  0  0
  -10.8310  -24.4229   31.9187 C   0  0  0  0  0  0  0  0  0  0  0  0
  -13.5634  -26.4980   29.8203 C   0  0  0  0  0  0  0  0  0  0  0  0
  -14.4707  -25.7526   29.0919 C   0  0  0  0  0  0  0  0  0  0  0  0
  -14.0189  -24.7496   28.2286 C   0  0  0  0  0  0  0  0  0  0  0  0
  -14.8784  -24.0983   27.3858 O   0  0  0  0  0  0  0  0  0  0  0  0
  -16.1525  -24.7316   27.1653 C   0  0  0  0  0  0  0  0  0  0  0  0
  -16.6947  -25.4912   28.3482 C   0  0  0  0  0  0  0  0  0  0  0  0
  -15.8882  -25.9972   29.2794 C   0  0  0  0  0  0  0  0  0  0  0  0
  -10.7016  -24.8726   28.9239 H   0  0  0  0  0  0  0  0  0  0  0  0
  -11.6312  -28.2284   31.9727 H   0  0  0  0  0  0  0  0  0  0  0  0
  -12.5979  -26.8119   32.1636 H   0  0  0  0  0  0  0  0  0  0  0  0
   -8.3455  -25.7461   33.8038 H   0  0  0  0  0  0  0  0  0  0  0  0
   -7.7028  -23.3341   33.9435 H   0  0  0  0  0  0  0  0  0  0  0  0
  -13.5808  -20.7315   32.4028 H   0  0  0  0  0  0  0  0  0  0  0  0
  -15.5255  -20.2637   33.8460 H   0  0  0  0  0  0  0  0  0  0  0  0
  -15.6204  -18.1885   35.1684 H   0  0  0  0  0  0  0  0  0  0  0  0
  -10.6259  -16.9295   33.7100 H   0  0  0  0  0  0  0  0  0  0  0  0
  -12.0300  -21.9693   31.1486 H   0  0  0  0  0  0  0  0  0  0  0  0
  -11.7600  -24.6282   31.4377 H   0  0  0  0  0  0  0  0  0  0  0  0
  -13.9106  -27.3401   30.4135 H   0  0  0  0  0  0  0  0  0  0  0  0
  -16.8558  -23.9373   26.8942 H   0  0  0  0  0  0  0  0  0  0  0  0
  -16.0674  -25.3970   26.2983 H   0  0  0  0  0  0  0  0  0  0  0  0
  -17.7649  -25.6686   28.3838 H   0  0  0  0  0  0  0  0  0  0  0  0
  -16.2563  -26.5882   30.1098 H   0  0  0  0  0  0  0  0  0  0  0  0
  1  2  1  0
  2  3  2  0
  3  4  1  0
  4  5  1  0
  5  6  1  0
  6  7  1  0
  7  8  1  0
  8  9  2  0
  9 10  1  0
 10 11  2  0
 11 12  1  0
 12 13  2  0
 13 14  1  0
 14 15  1  0
 15 16  2  0
 16 17  1  0
 17 18  2  0
 18 19  1  0
 19 20  2  0
 20 21  1  0
 21 22  2  0
 22 23  1  0
 13 24  1  0
 24 25  1  0
 25 26  2  0
  4 27  2  0
 27 28  1  0
 28 29  2  0
 29 30  1  0
 30 31  1  0
 31 32  1  0
 32 33  2  0
 29  2  1  0
 26  8  1  0
 33 28  1  0
 25 11  1  0
 23 15  1  0
 23 19  1  0
  3 34  1  0
  6 35  1  0
  6 36  1  0
  9 37  1  0
 10 38  1  0
 16 39  1  0
 17 40  1  0
 18 41  1  0
 22 42  1  0
 24 43  1  0
 26 44  1  0
 27 45  1  0
 31 46  1  0
 31 47  1  0
 32 48  1  0
 33 49  1  0
M  END
>  <Energy>  (950) 
99.576366171049528

>  <compound_id>  (950) 
1246

>  <target_id>  (950) 
1

>  <reference_id>  (950) 
88

>  <inspiration_ids>  (950) 
[88, 46]

>  <energy_score>  (950) 
-0.9335560532925342

>  <distance_score>  (950) 
3.1322747335917662

>  <path>  (950) 
/opt/xchem-fragalysis-2/maxwin/BulkDock/SCRATCH/505733/C1246-P88/C1246-P88.minimised.mol

>  <scratch_subdir>  (950) 
/opt/xchem-fragalysis-2/maxwin/BulkDock/SCRATCH/505733/C1246-P88

>  <fragmenstein_runtime>  (950) 
11.576098203659058

>  <fragmenstein_outcome>  (950) 
too moved

>  <fragmenstein_mode>  (950) 
expansion

>  <fragmenstein_error>  (950) 


$$$$
C1246-P46
     RDKit          3D

 49 54  0  0  0  0  0  0  0  0999 V2000
  -15.9743  -19.4304   32.9104 F   0  0  0  0  0  0  0  0  0  0  0  0
  -16.1117  -20.7110   32.5564 C   0  0  0  0  0  0  0  0  0  0  0  0
  -15.5057  -21.1117   31.3675 C   0  0  0  0  0  0  0  0  0  0  0  0
  -15.4612  -22.4160   30.9632 C   0  0  0  0  0  0  0  0  0  0  0  0
  -14.4410  -22.8041   29.8491 O   0  0  0  0  0  0  0  0  0  0  0  0
  -13.8942  -24.1049   28.8166 C   0  0  0  0  0  0  0  0  0  0  0  0
  -12.5095  -24.6555   28.7728 O   0  0  0  0  0  0  0  0  0  0  0  0
  -11.6983  -24.8373   29.8440 C   0  0  0  0  0  0  0  0  0  0  0  0
  -10.4804  -25.4653   29.8370 C   0  0  0  0  0  0  0  0  0  0  0  0
   -9.6097  -25.2497   30.9421 C   0  0  0  0  0  0  0  0  0  0  0  0
  -10.0246  -24.5135   32.0702 C   0  0  0  0  0  0  0  0  0  0  0  0
   -9.4194  -23.4345   32.6516 N   0  0  0  0  0  0  0  0  0  0  0  0
  -10.4271  -22.5670   32.6714 C   0  0  0  0  0  0  0  0  0  0  0  0
  -10.6244  -20.9699   31.9969 S   0  0  0  0  0  0  0  0  0  0  0  0
  -10.6901  -21.0963   30.2391 C   0  0  0  0  0  0  0  0  0  0  0  0
  -11.8324  -21.5839   29.7906 C   0  0  0  0  0  0  0  0  0  0  0  0
  -11.9203  -21.9241   28.4429 C   0  0  0  0  0  0  0  0  0  0  0  0
  -10.9818  -21.6758   27.5523 C   0  0  0  0  0  0  0  0  0  0  0  0
   -9.7117  -20.7756   27.8568 C   0  0  0  0  0  0  0  0  0  0  0  0
   -9.3516  -18.9950   27.9183 N   0  0  0  0  0  0  0  0  0  0  0  0
   -8.4078  -18.2740   28.2595 N   0  0  0  0  0  0  0  0  0  0  0  0
   -8.3205  -19.4527   28.5482 C   0  0  0  0  0  0  0  0  0  0  0  0
   -9.8492  -20.5273   29.1418 N   0  0  0  0  0  0  0  0  0  0  0  0
  -11.5061  -23.2745   33.1367 N   0  0  0  0  0  0  0  0  0  0  0  0
  -11.3671  -24.2903   32.2105 C   0  0  0  0  0  0  0  0  0  0  0  0
  -12.0069  -24.2413   31.0151 C   0  0  0  0  0  0  0  0  0  0  0  0
  -16.3697  -23.2605   31.7126 C   0  0  0  0  0  0  0  0  0  0  0  0
  -16.9962  -22.8761   32.9032 C   0  0  0  0  0  0  0  0  0  0  0  0
  -16.8249  -21.5853   33.3558 C   0  0  0  0  0  0  0  0  0  0  0  0
  -17.3658  -21.1045   34.5106 O   0  0  0  0  0  0  0  0  0  0  0  0
  -17.9825  -22.0459   35.4003 C   0  0  0  0  0  0  0  0  0  0  0  0
  -18.2235  -23.4260   34.8625 C   0  0  0  0  0  0  0  0  0  0  0  0
  -17.7701  -23.8321   33.6745 C   0  0  0  0  0  0  0  0  0  0  0  0
  -15.1827  -20.3425   30.7243 H   0  0  0  0  0  0  0  0  0  0  0  0
  -14.0096  -23.7382   27.8093 H   0  0  0  0  0  0  0  0  0  0  0  0
  -14.5812  -24.9186   28.9939 H   0  0  0  0  0  0  0  0  0  0  0  0
  -10.1027  -25.9391   28.9376 H   0  0  0  0  0  0  0  0  0  0  0  0
   -8.5566  -25.2782   30.7778 H   0  0  0  0  0  0  0  0  0  0  0  0
  -12.6637  -21.7026   30.4521 H   0  0  0  0  0  0  0  0  0  0  0  0
  -12.8024  -22.3419   28.0392 H   0  0  0  0  0  0  0  0  0  0  0  0
  -11.3539  -21.8741   26.5618 H   0  0  0  0  0  0  0  0  0  0  0  0
   -7.5889  -20.1607   27.9381 H   0  0  0  0  0  0  0  0  0  0  0  0
  -12.3968  -22.8415   33.3184 H   0  0  0  0  0  0  0  0  0  0  0  0
  -12.6474  -23.4020   30.9965 H   0  0  0  0  0  0  0  0  0  0  0  0
  -16.5187  -24.3058   31.4269 H   0  0  0  0  0  0  0  0  0  0  0  0
  -17.3579  -22.1113   36.2977 H   0  0  0  0  0  0  0  0  0  0  0  0
  -18.9422  -21.6128   35.7025 H   0  0  0  0  0  0  0  0  0  0  0  0
  -18.7873  -24.1098   35.4899 H   0  0  0  0  0  0  0  0  0  0  0  0
  -17.9383  -24.8360   33.3027 H   0  0  0  0  0  0  0  0  0  0  0  0
  1  2  1  0
  2  3  2  0
  3  4  1  0
  4  5  1  0
  5  6  1  0
  6  7  1  0
  7  8  1  0
  8  9  2  0
  9 10  1  0
 10 11  2  0
 11 12  1  0
 12 13  2  0
 13 14  1  0
 14 15  1  0
 15 16  2  0
 16 17  1  0
 17 18  2  0
 18 19  1  0
 19 20  2  0
 20 21  1  0
 21 22  2  0
 22 23  1  0
 13 24  1  0
 24 25  1  0
 25 26  2  0
  4 27  2  0
 27 28  1  0
 28 29  2  0
 29 30  1  0
 30 31  1  0
 31 32  1  0
 32 33  2  0
 29  2  1  0
 26  8  1  0
 33 28  1  0
 25 11  1  0
 23 15  1  0
 23 19  1  0
  3 34  1  0
  6 35  1  0
  6 36  1  0
  9 37  1  0
 10 38  1  0
 16 39  1  0
 17 40  1  0
 18 41  1  0
 22 42  1  0
 24 43  1  0
 26 44  1  0
 27 45  1  0
 31 46  1  0
 31 47  1  0
 32 48  1  0
 33 49  1  0
M  END
>  <Energy>  (951) 
749.60029811667664

>  <compound_id>  (951) 
1246

>  <target_id>  (951) 
1

>  <reference_id>  (951) 
46

>  <inspiration_ids>  (951) 
[88, 46]

>  <energy_score>  (951) 
643.8502183648629

>  <distance_score>  (951) 
4.222596380264829

>  <path>  (951) 
/opt/xchem-fragalysis-2/maxwin/BulkDock/SCRATCH/505733/C1246-P46/C1246-P46.minimised.mol

>  <scratch_subdir>  (951) 
/opt/xchem-fragalysis-2/maxwin/BulkDock/SCRATCH/505733/C1246-P46

>  <fragmenstein_runtime>  (951) 
16.115763187408447

>  <fragmenstein_outcome>  (951) 
too moved

>  <fragmenstein_mode>  (951) 
expansion

>  <fragmenstein_error>  (951) 


$$$$
C1248-P88
     RDKit          3D

 53 54  0  0  0  0  0  0  0  0999 V2000
  -15.3923  -27.5703   26.3939 C   0  0  0  0  0  0  0  0  0  0  0  0
  -14.9262  -26.3005   25.7022 C   0  0  0  0  0  0  0  0  0  0  0  0
  -13.7531  -25.6769   26.4616 C   0  0  0  0  0  0  0  0  0  0  0  0
  -12.6330  -25.8985   25.9738 N   0  0  0  0  0  0  0  0  0  0  0  0
  -11.5047  -25.1966   26.7178 C   0  0  0  0  0  0  0  0  0  0  0  0
  -11.4886  -25.1421   28.2813 N   0  0  0  0  0  0  0  0  0  0  0  0
  -11.6726  -23.7991   29.8739 C   0  0  0  0  0  0  0  0  0  0  0  0
  -12.5628  -22.1253   30.2644 S   0  0  0  0  0  0  0  0  0  0  0  0
  -12.0414  -21.0646   29.4276 O   0  0  0  0  0  0  0  0  0  0  0  0
  -13.9140  -22.5918   30.2074 O   0  0  0  0  0  0  0  0  0  0  0  0
  -12.5774  -21.4957   31.7974 N   0  0  0  0  0  0  0  0  0  0  0  0
  -11.4564  -21.5219   32.6169 C   0  0  0  0  0  0  0  0  0  0  0  0
  -10.2601  -21.4755   31.9869 C   0  0  0  0  0  0  0  0  0  0  0  0
   -9.2319  -22.1995   32.5089 C   0  0  0  0  0  0  0  0  0  0  0  0
   -9.3810  -22.7719   33.7484 C   0  0  0  0  0  0  0  0  0  0  0  0
   -8.4918  -23.8789   34.0498 C   0  0  0  0  0  0  0  0  0  0  0  0
   -8.8223  -24.9070   34.6064 O   0  0  0  0  0  0  0  0  0  0  0  0
   -7.2967  -23.5665   33.5435 O   0  0  0  0  0  0  0  0  0  0  0  0
  -10.4473  -22.4113   34.5535 C   0  0  0  0  0  0  0  0  0  0  0  0
  -11.5241  -21.7615   33.9724 C   0  0  0  0  0  0  0  0  0  0  0  0
  -14.1315  -24.9862   27.6256 N   0  0  0  0  0  0  0  0  0  0  0  0
  -13.3596  -24.4129   28.6472 C   0  0  0  0  0  0  0  0  0  0  0  0
  -12.1604  -23.2338   27.9124 C   0  0  0  0  0  0  0  0  0  0  0  0
  -10.3936  -23.3776   28.2821 C   0  0  0  0  0  0  0  0  0  0  0  0
   -9.8413  -24.6746   29.4352 C   0  0  0  0  0  0  0  0  0  0  0  0
   -8.5252  -24.4962   30.0291 C   0  0  0  0  0  0  0  0  0  0  0  0
  -11.0336  -25.7867   30.2448 C   0  0  0  0  0  0  0  0  0  0  0  0
  -12.7683  -25.6822   29.7912 C   0  0  0  0  0  0  0  0  0  0  0  0
  -13.6017  -26.6722   30.2253 O   0  0  0  0  0  0  0  0  0  0  0  0
  -15.7790  -27.3564   27.3956 H   0  0  0  0  0  0  0  0  0  0  0  0
  -16.1904  -28.0482   25.8181 H   0  0  0  0  0  0  0  0  0  0  0  0
  -14.5694  -28.2835   26.5051 H   0  0  0  0  0  0  0  0  0  0  0  0
  -15.7467  -25.5763   25.6480 H   0  0  0  0  0  0  0  0  0  0  0  0
  -14.6185  -26.5228   24.6762 H   0  0  0  0  0  0  0  0  0  0  0  0
  -10.6293  -25.8179   26.5056 H   0  0  0  0  0  0  0  0  0  0  0  0
  -11.2471  -24.2845   26.1614 H   0  0  0  0  0  0  0  0  0  0  0  0
  -11.0235  -26.0317   28.4641 H   0  0  0  0  0  0  0  0  0  0  0  0
  -12.0319  -24.2157   30.8505 H   0  0  0  0  0  0  0  0  0  0  0  0
  -10.7484  -23.3101   30.2855 H   0  0  0  0  0  0  0  0  0  0  0  0
  -13.4876  -21.6116   32.2684 H   0  0  0  0  0  0  0  0  0  0  0  0
  -10.2446  -21.0535   30.9993 H   0  0  0  0  0  0  0  0  0  0  0  0
   -8.3546  -22.4046   31.9163 H   0  0  0  0  0  0  0  0  0  0  0  0
   -6.5426  -24.1325   33.8286 H   0  0  0  0  0  0  0  0  0  0  0  0
  -10.4869  -22.7081   35.5916 H   0  0  0  0  0  0  0  0  0  0  0  0
  -12.4341  -21.5926   34.5365 H   0  0  0  0  0  0  0  0  0  0  0  0
  -15.1295  -25.0814   27.7493 H   0  0  0  0  0  0  0  0  0  0  0  0
  -12.4622  -22.5971   27.0802 H   0  0  0  0  0  0  0  0  0  0  0  0
   -9.7069  -22.6540   27.8595 H   0  0  0  0  0  0  0  0  0  0  0  0
   -8.2594  -23.4402   30.0257 H   0  0  0  0  0  0  0  0  0  0  0  0
   -7.8057  -25.0427   29.4352 H   0  0  0  0  0  0  0  0  0  0  0  0
   -8.5859  -24.8420   31.0631 H   0  0  0  0  0  0  0  0  0  0  0  0
  -10.7776  -26.4095   31.0798 H   0  0  0  0  0  0  0  0  0  0  0  0
  -14.3491  -26.6441   29.6030 H   0  0  0  0  0  0  0  0  0  0  0  0
  1  2  1  0
  2  3  1  0
  3  4  2  3
  4  5  1  0
  5  6  1  0
  6  7  1  0
  7  8  1  0
  8  9  2  0
  8 10  2  0
  8 11  1  0
 11 12  1  0
 12 13  2  0
 13 14  1  0
 14 15  2  0
 15 16  1  0
 16 17  2  0
 16 18  1  0
 15 19  1  0
 19 20  2  0
  3 21  1  0
 21 22  1  0
 22 23  2  0
 23 24  1  0
 24 25  2  0
 25 26  1  0
 25 27  1  0
 27 28  2  0
 28 29  1  0
 20 12  1  0
 28 22  1  0
  1 30  1  0
  1 31  1  0
  1 32  1  0
  2 33  1  0
  2 34  1  0
  5 35  1  0
  5 36  1  0
  6 37  1  0
  7 38  1  0
  7 39  1  0
 11 40  1  0
 13 41  1  0
 14 42  1  0
 18 43  1  0
 19 44  1  0
 20 45  1  0
 21 46  1  0
 23 47  1  0
 24 48  1  0
 26 49  1  0
 26 50  1  0
 26 51  1  0
 27 52  1  0
 29 53  1  0
M  END
>  <Energy>  (952) 
1062.3262944832366

>  <compound_id>  (952) 
1248

>  <target_id>  (952) 
1

>  <reference_id>  (952) 
88

>  <inspiration_ids>  (952) 
[88, 49]

>  <energy_score>  (952) 
986.1244564917297

>  <distance_score>  (952) 
2.433376891916308

>  <path>  (952) 
/opt/xchem-fragalysis-2/maxwin/BulkDock/SCRATCH/505733/C1248-P88/C1248-P88.minimised.mol

>  <scratch_subdir>  (952) 
/opt/xchem-fragalysis-2/maxwin/BulkDock/SCRATCH/505733/C1248-P88

>  <fragmenstein_runtime>  (952) 
74.94733595848083

>  <fragmenstein_outcome>  (952) 
too moved

>  <fragmenstein_mode>  (952) 
expansion

>  <fragmenstein_error>  (952) 


$$$$
C1248-P49
     RDKit          3D

 53 54  0  0  0  0  0  0  0  0999 V2000
  -10.9365  -25.5377   25.7467 C   0  0  0  0  0  0  0  0  0  0  0  0
  -10.5699  -24.0236   25.5918 C   0  0  0  0  0  0  0  0  0  0  0  0
  -10.8215  -23.6445   26.9720 C   0  0  0  0  0  0  0  0  0  0  0  0
  -10.2861  -24.4505   27.7338 N   0  0  0  0  0  0  0  0  0  0  0  0
  -10.5896  -23.4964   29.0419 C   0  0  0  0  0  0  0  0  0  0  0  0
  -12.1766  -23.0993   30.3452 N   0  0  0  0  0  0  0  0  0  0  0  0
  -12.6666  -21.7050   31.2357 C   0  0  0  0  0  0  0  0  0  0  0  0
  -13.6375  -21.2454   32.8108 S   0  0  0  0  0  0  0  0  0  0  0  0
  -14.0610  -19.8571   32.6740 O   0  0  0  0  0  0  0  0  0  0  0  0
  -14.5239  -22.1288   33.5160 O   0  0  0  0  0  0  0  0  0  0  0  0
  -12.3488  -21.1481   33.8532 N   0  0  0  0  0  0  0  0  0  0  0  0
  -11.7041  -22.3444   34.2032 C   0  0  0  0  0  0  0  0  0  0  0  0
  -11.5972  -23.4298   33.4218 C   0  0  0  0  0  0  0  0  0  0  0  0
  -10.4522  -24.2178   33.4889 C   0  0  0  0  0  0  0  0  0  0  0  0
   -9.3543  -23.7632   34.1119 C   0  0  0  0  0  0  0  0  0  0  0  0
   -8.4518  -23.0383   33.2333 C   0  0  0  0  0  0  0  0  0  0  0  0
   -8.5836  -21.8322   33.0903 O   0  0  0  0  0  0  0  0  0  0  0  0
   -7.5661  -23.7963   32.5896 O   0  0  0  0  0  0  0  0  0  0  0  0
   -9.6276  -23.0501   35.2067 C   0  0  0  0  0  0  0  0  0  0  0  0
  -10.8281  -22.3351   35.2237 C   0  0  0  0  0  0  0  0  0  0  0  0
  -11.6459  -22.5785   27.2333 N   0  0  0  0  0  0  0  0  0  0  0  0
  -12.2269  -22.1262   28.4621 C   0  0  0  0  0  0  0  0  0  0  0  0
  -10.9971  -21.5555   29.6533 C   0  0  0  0  0  0  0  0  0  0  0  0
  -10.2616  -22.7774   30.8600 C   0  0  0  0  0  0  0  0  0  0  0  0
  -10.7185  -24.5754   30.7704 C   0  0  0  0  0  0  0  0  0  0  0  0
   -9.7138  -25.6949   30.9721 C   0  0  0  0  0  0  0  0  0  0  0  0
  -11.9727  -25.0926   29.6127 C   0  0  0  0  0  0  0  0  0  0  0  0
  -12.7813  -23.8935   28.6001 C   0  0  0  0  0  0  0  0  0  0  0  0
  -13.6072  -24.4477   27.6327 O   0  0  0  0  0  0  0  0  0  0  0  0
  -10.0395  -26.0687   26.0932 H   0  0  0  0  0  0  0  0  0  0  0  0
  -11.7457  -25.7298   26.4647 H   0  0  0  0  0  0  0  0  0  0  0  0
  -11.2978  -26.0806   24.8981 H   0  0  0  0  0  0  0  0  0  0  0  0
   -9.5508  -23.8530   25.2793 H   0  0  0  0  0  0  0  0  0  0  0  0
  -11.2057  -23.3870   24.9794 H   0  0  0  0  0  0  0  0  0  0  0  0
   -9.5882  -23.8649   29.4496 H   0  0  0  0  0  0  0  0  0  0  0  0
   -9.9524  -22.6277   28.6455 H   0  0  0  0  0  0  0  0  0  0  0  0
  -12.4729  -23.8421   30.9778 H   0  0  0  0  0  0  0  0  0  0  0  0
  -13.2449  -21.1647   30.5156 H   0  0  0  0  0  0  0  0  0  0  0  0
  -11.7908  -21.0964   31.5021 H   0  0  0  0  0  0  0  0  0  0  0  0
  -12.4027  -20.3880   34.5185 H   0  0  0  0  0  0  0  0  0  0  0  0
  -12.4216  -23.7201   32.8079 H   0  0  0  0  0  0  0  0  0  0  0  0
  -10.3827  -25.1842   33.0350 H   0  0  0  0  0  0  0  0  0  0  0  0
   -7.4937  -24.6955   32.9952 H   0  0  0  0  0  0  0  0  0  0  0  0
   -8.7796  -22.7066   35.8040 H   0  0  0  0  0  0  0  0  0  0  0  0
  -10.9695  -21.5385   35.9419 H   0  0  0  0  0  0  0  0  0  0  0  0
  -11.9641  -22.1896   26.3486 H   0  0  0  0  0  0  0  0  0  0  0  0
  -10.6752  -20.5176   29.5774 H   0  0  0  0  0  0  0  0  0  0  0  0
   -9.3176  -22.5399   31.2893 H   0  0  0  0  0  0  0  0  0  0  0  0
   -8.8725  -25.4177   31.5904 H   0  0  0  0  0  0  0  0  0  0  0  0
   -9.3142  -25.9773   29.9961 H   0  0  0  0  0  0  0  0  0  0  0  0
  -10.2301  -26.5512   31.4124 H   0  0  0  0  0  0  0  0  0  0  0  0
  -12.1168  -26.1474   29.3957 H   0  0  0  0  0  0  0  0  0  0  0  0
  -13.6703  -23.7765   26.9344 H   0  0  0  0  0  0  0  0  0  0  0  0
  1  2  1  0
  2  3  1  0
  3  4  2  3
  4  5  1  0
  5  6  1  0
  6  7  1  0
  7  8  1  0
  8  9  2  0
  8 10  2  0
  8 11  1  0
 11 12  1  0
 12 13  2  0
 13 14  1  0
 14 15  2  0
 15 16  1  0
 16 17  2  0
 16 18  1  0
 15 19  1  0
 19 20  2  0
  3 21  1  0
 21 22  1  0
 22 23  2  0
 23 24  1  0
 24 25  2  0
 25 26  1  0
 25 27  1  0
 27 28  2  0
 28 29  1  0
 20 12  1  0
 28 22  1  0
  1 30  1  0
  1 31  1  0
  1 32  1  0
  2 33  1  0
  2 34  1  0
  5 35  1  0
  5 36  1  0
  6 37  1  0
  7 38  1  0
  7 39  1  0
 11 40  1  0
 13 41  1  0
 14 42  1  0
 18 43  1  0
 19 44  1  0
 20 45  1  0
 21 46  1  0
 23 47  1  0
 24 48  1  0
 26 49  1  0
 26 50  1  0
 26 51  1  0
 27 52  1  0
 29 53  1  0
M  END
>  <Energy>  (953) 
1297.0533862323873

>  <compound_id>  (953) 
1248

>  <target_id>  (953) 
1

>  <reference_id>  (953) 
49

>  <inspiration_ids>  (953) 
[88, 49]

>  <energy_score>  (953) 
1220.851548240888

>  <distance_score>  (953) 
2.0062967894701975

>  <path>  (953) 
/opt/xchem-fragalysis-2/maxwin/BulkDock/SCRATCH/505733/C1248-P49/C1248-P49.minimised.mol

>  <scratch_subdir>  (953) 
/opt/xchem-fragalysis-2/maxwin/BulkDock/SCRATCH/505733/C1248-P49

>  <fragmenstein_runtime>  (953) 
78.04611110687256

>  <fragmenstein_outcome>  (953) 
too moved

>  <fragmenstein_mode>  (953) 
expansion

>  <fragmenstein_error>  (953) 


$$$$
C1249-P88
     RDKit          3D

 56 58  0  0  0  0  0  0  0  0999 V2000
  -10.2879  -25.2599   28.5936 C   0  0  0  0  0  0  0  0  0  0  0  0
  -11.1091  -24.0888   28.0913 C   0  0  0  0  0  0  0  0  0  0  0  0
  -12.2736  -24.5448   27.1886 C   0  0  0  0  0  0  0  0  0  0  0  0
  -13.5778  -25.1107   27.7704 C   0  0  0  0  0  0  0  0  0  0  0  0
  -13.5072  -26.0863   28.9364 C   0  0  0  0  0  0  0  0  0  0  0  0
  -13.0215  -27.3955   28.5264 N   0  0  0  0  0  0  0  0  0  0  0  0
  -13.8283  -28.3226   28.1584 C   0  0  0  0  0  0  0  0  0  0  0  0
  -15.1533  -28.1675   27.9893 O   0  0  0  0  0  0  0  0  0  0  0  0
  -13.4077  -29.7126   27.8552 C   0  0  0  0  0  0  0  0  0  0  0  0
  -14.3002  -30.6547   27.3223 C   0  0  0  0  0  0  0  0  0  0  0  0
  -13.8611  -31.9433   27.0034 C   0  0  0  0  0  0  0  0  0  0  0  0
  -12.5293  -32.2941   27.2186 C   0  0  0  0  0  0  0  0  0  0  0  0
  -12.0506  -33.5692   26.7999 N   0  0  0  0  0  0  0  0  0  0  0  0
  -11.4759  -33.6694   25.2038 S   0  0  0  0  0  0  0  0  0  0  0  0
   -9.7321  -33.8794   25.4883 C   0  0  0  0  0  0  0  0  0  0  0  0
  -11.6943  -32.4124   24.5223 O   0  0  0  0  0  0  0  0  0  0  0  0
  -12.0032  -34.9145   24.6898 O   0  0  0  0  0  0  0  0  0  0  0  0
  -11.6343  -31.3648   27.7432 C   0  0  0  0  0  0  0  0  0  0  0  0
  -12.0769  -30.0840   28.0855 C   0  0  0  0  0  0  0  0  0  0  0  0
  -11.4144  -23.1769   29.2269 C   0  0  0  0  0  0  0  0  0  0  0  0
  -10.5813  -22.5289   30.0100 N   0  0  0  0  0  0  0  0  0  0  0  0
  -11.4370  -21.8334   30.8446 C   0  0  0  0  0  0  0  0  0  0  0  0
  -10.9406  -20.9064   31.9201 C   0  0  0  0  0  0  0  0  0  0  0  0
  -11.9717  -20.4023   32.9263 C   0  0  0  0  0  0  0  0  0  0  0  0
  -11.6748  -21.1453   34.2190 C   0  0  0  0  0  0  0  0  0  0  0  0
  -10.6814  -22.2183   33.8342 C   0  0  0  0  0  0  0  0  0  0  0  0
   -9.9275  -21.5936   32.7571 N   0  0  0  0  0  0  0  0  0  0  0  0
  -12.7270  -22.0506   30.5858 N   0  0  0  0  0  0  0  0  0  0  0  0
  -12.7085  -22.9870   29.5712 O   0  0  0  0  0  0  0  0  0  0  0  0
  -10.0630  -25.9524   27.7768 H   0  0  0  0  0  0  0  0  0  0  0  0
   -9.3368  -24.9024   29.0047 H   0  0  0  0  0  0  0  0  0  0  0  0
  -10.7829  -25.8143   29.3935 H   0  0  0  0  0  0  0  0  0  0  0  0
  -10.4421  -23.5179   27.4285 H   0  0  0  0  0  0  0  0  0  0  0  0
  -12.5635  -23.6838   26.5690 H   0  0  0  0  0  0  0  0  0  0  0  0
  -11.8814  -25.2834   26.4761 H   0  0  0  0  0  0  0  0  0  0  0  0
  -14.1999  -24.2677   28.0898 H   0  0  0  0  0  0  0  0  0  0  0  0
  -14.1374  -25.5710   26.9453 H   0  0  0  0  0  0  0  0  0  0  0  0
  -14.4917  -26.1595   29.4139 H   0  0  0  0  0  0  0  0  0  0  0  0
  -12.8620  -25.7043   29.7293 H   0  0  0  0  0  0  0  0  0  0  0  0
  -15.4353  -27.2495   28.0928 H   0  0  0  0  0  0  0  0  0  0  0  0
  -15.3389  -30.3934   27.1337 H   0  0  0  0  0  0  0  0  0  0  0  0
  -14.5588  -32.6518   26.5647 H   0  0  0  0  0  0  0  0  0  0  0  0
  -12.7054  -34.3417   26.9483 H   0  0  0  0  0  0  0  0  0  0  0  0
   -9.3412  -32.9857   25.9779 H   0  0  0  0  0  0  0  0  0  0  0  0
   -9.5769  -34.7662   26.1053 H   0  0  0  0  0  0  0  0  0  0  0  0
   -9.2475  -34.0121   24.5186 H   0  0  0  0  0  0  0  0  0  0  0  0
  -10.5910  -31.6280   27.8853 H   0  0  0  0  0  0  0  0  0  0  0  0
  -11.3722  -29.3717   28.5087 H   0  0  0  0  0  0  0  0  0  0  0  0
  -10.4958  -20.0417   31.4184 H   0  0  0  0  0  0  0  0  0  0  0  0
  -13.0085  -20.5432   32.6121 H   0  0  0  0  0  0  0  0  0  0  0  0
  -11.8378  -19.3277   33.1026 H   0  0  0  0  0  0  0  0  0  0  0  0
  -11.2296  -20.4525   34.9380 H   0  0  0  0  0  0  0  0  0  0  0  0
  -12.5789  -21.5399   34.6828 H   0  0  0  0  0  0  0  0  0  0  0  0
  -11.1793  -23.1132   33.4576 H   0  0  0  0  0  0  0  0  0  0  0  0
  -10.0375  -22.5076   34.6687 H   0  0  0  0  0  0  0  0  0  0  0  0
   -9.4403  -22.2901   32.1924 H   0  0  0  0  0  0  0  0  0  0  0  0
  1  2  1  0
  2  3  1  0
  3  4  1  0
  4  5  1  0
  5  6  1  0
  6  7  2  3
  7  8  1  0
  7  9  1  0
  9 10  2  0
 10 11  1  0
 11 12  2  0
 12 13  1  0
 13 14  1  0
 14 15  1  0
 14 16  2  0
 14 17  2  0
 12 18  1  0
 18 19  2  0
  2 20  1  0
 20 21  2  0
 21 22  1  0
 22 23  1  0
 23 24  1  0
 24 25  1  0
 25 26  1  0
 26 27  1  0
 22 28  2  0
 28 29  1  0
 19  9  1  0
 29 20  1  0
 27 23  1  0
  1 30  1  0
  1 31  1  0
  1 32  1  0
  2 33  1  0
  3 34  1  0
  3 35  1  0
  4 36  1  0
  4 37  1  0
  5 38  1  0
  5 39  1  0
  8 40  1  0
 10 41  1  0
 11 42  1  0
 13 43  1  0
 15 44  1  0
 15 45  1  0
 15 46  1  0
 18 47  1  0
 19 48  1  0
 23 49  1  0
 24 50  1  0
 24 51  1  0
 25 52  1  0
 25 53  1  0
 26 54  1  0
 26 55  1  0
 27 56  1  0
M  END
>  <Energy>  (954) 
9.818068949643969

>  <compound_id>  (954) 
1249

>  <target_id>  (954) 
1

>  <reference_id>  (954) 
88

>  <inspiration_ids>  (954) 
[88, 52]

>  <energy_score>  (954) 
-74.44331219809521

>  <distance_score>  (954) 
1.900580392157782

>  <path>  (954) 
/opt/xchem-fragalysis-2/maxwin/BulkDock/SCRATCH/505733/C1249-P88/C1249-P88.minimised.mol

>  <scratch_subdir>  (954) 
/opt/xchem-fragalysis-2/maxwin/BulkDock/SCRATCH/505733/C1249-P88

>  <fragmenstein_runtime>  (954) 
10.139565467834473

>  <fragmenstein_outcome>  (954) 
too moved

>  <fragmenstein_mode>  (954) 
expansion

>  <fragmenstein_error>  (954) 


$$$$
C1249-P52
     RDKit          3D

 56 58  0  0  0  0  0  0  0  0999 V2000
  -10.5424  -24.3022   27.4741 C   0  0  0  0  0  0  0  0  0  0  0  0
  -11.9313  -23.8200   27.8063 C   0  0  0  0  0  0  0  0  0  0  0  0
  -12.9827  -24.9159   27.6422 C   0  0  0  0  0  0  0  0  0  0  0  0
  -12.5207  -26.3491   27.9159 C   0  0  0  0  0  0  0  0  0  0  0  0
  -13.7339  -27.2810   28.0135 C   0  0  0  0  0  0  0  0  0  0  0  0
  -13.2849  -28.6559   27.8574 N   0  0  0  0  0  0  0  0  0  0  0  0
  -14.1449  -29.5949   27.6983 C   0  0  0  0  0  0  0  0  0  0  0  0
  -15.4762  -29.4398   27.7958 O   0  0  0  0  0  0  0  0  0  0  0  0
  -13.7766  -30.9810   27.3333 C   0  0  0  0  0  0  0  0  0  0  0  0
  -14.7087  -31.8551   26.7587 C   0  0  0  0  0  0  0  0  0  0  0  0
  -14.2865  -33.0751   26.2247 C   0  0  0  0  0  0  0  0  0  0  0  0
  -12.9362  -33.4236   26.2753 C   0  0  0  0  0  0  0  0  0  0  0  0
  -12.4666  -34.5473   25.5335 N   0  0  0  0  0  0  0  0  0  0  0  0
  -11.9952  -34.2024   23.9288 S   0  0  0  0  0  0  0  0  0  0  0  0
  -10.2604  -34.5875   24.0087 C   0  0  0  0  0  0  0  0  0  0  0  0
  -12.1486  -32.7886   23.6583 O   0  0  0  0  0  0  0  0  0  0  0  0
  -12.6477  -35.2085   23.1192 O   0  0  0  0  0  0  0  0  0  0  0  0
  -12.0115  -32.5809   26.8875 C   0  0  0  0  0  0  0  0  0  0  0  0
  -12.4333  -31.3641   27.4244 C   0  0  0  0  0  0  0  0  0  0  0  0
  -11.9100  -23.2267   29.1615 C   0  0  0  0  0  0  0  0  0  0  0  0
  -11.3316  -23.6787   30.2408 N   0  0  0  0  0  0  0  0  0  0  0  0
  -11.4370  -22.6001   31.0812 C   0  0  0  0  0  0  0  0  0  0  0  0
  -10.7550  -22.5257   32.3844 C   0  0  0  0  0  0  0  0  0  0  0  0
  -11.6117  -21.9073   33.4691 C   0  0  0  0  0  0  0  0  0  0  0  0
  -11.2833  -22.7342   34.6829 C   0  0  0  0  0  0  0  0  0  0  0  0
  -10.0939  -23.5957   34.2978 C   0  0  0  0  0  0  0  0  0  0  0  0
  -10.3438  -23.8499   32.8888 N   0  0  0  0  0  0  0  0  0  0  0  0
  -12.0730  -21.5386   30.5683 N   0  0  0  0  0  0  0  0  0  0  0  0
  -12.3912  -21.9621   29.2931 O   0  0  0  0  0  0  0  0  0  0  0  0
   -9.8462  -23.4566   27.4717 H   0  0  0  0  0  0  0  0  0  0  0  0
  -10.1533  -25.0449   28.1788 H   0  0  0  0  0  0  0  0  0  0  0  0
  -10.5570  -24.7384   26.4703 H   0  0  0  0  0  0  0  0  0  0  0  0
  -12.1825  -23.0187   27.0980 H   0  0  0  0  0  0  0  0  0  0  0  0
  -13.8438  -24.6905   28.2801 H   0  0  0  0  0  0  0  0  0  0  0  0
  -13.3531  -24.8832   26.6082 H   0  0  0  0  0  0  0  0  0  0  0  0
  -11.8599  -26.6745   27.1102 H   0  0  0  0  0  0  0  0  0  0  0  0
  -11.9554  -26.4103   28.8532 H   0  0  0  0  0  0  0  0  0  0  0  0
  -14.4470  -27.0272   27.2192 H   0  0  0  0  0  0  0  0  0  0  0  0
  -14.2246  -27.1400   28.9836 H   0  0  0  0  0  0  0  0  0  0  0  0
  -15.7181  -28.5544   28.0977 H   0  0  0  0  0  0  0  0  0  0  0  0
  -15.7536  -31.5703   26.6620 H   0  0  0  0  0  0  0  0  0  0  0  0
  -15.0065  -33.7126   25.7183 H   0  0  0  0  0  0  0  0  0  0  0  0
  -13.1154  -35.3378   25.5030 H   0  0  0  0  0  0  0  0  0  0  0  0
   -9.7771  -33.9049   24.7099 H   0  0  0  0  0  0  0  0  0  0  0  0
  -10.1410  -35.6256   24.3237 H   0  0  0  0  0  0  0  0  0  0  0  0
   -9.8399  -34.4518   23.0099 H   0  0  0  0  0  0  0  0  0  0  0  0
  -10.9576  -32.8431   26.9105 H   0  0  0  0  0  0  0  0  0  0  0  0
  -11.6983  -30.6886   27.8557 H   0  0  0  0  0  0  0  0  0  0  0  0
   -9.8556  -21.9158   32.2819 H   0  0  0  0  0  0  0  0  0  0  0  0
  -12.6876  -21.9478   33.2644 H   0  0  0  0  0  0  0  0  0  0  0  0
  -11.3480  -20.8549   33.6216 H   0  0  0  0  0  0  0  0  0  0  0  0
  -11.1090  -22.1074   35.5479 H   0  0  0  0  0  0  0  0  0  0  0  0
  -12.1610  -23.3283   34.9157 H   0  0  0  0  0  0  0  0  0  0  0  0
  -10.0211  -24.5191   34.8731 H   0  0  0  0  0  0  0  0  0  0  0  0
   -9.1488  -23.0571   34.4153 H   0  0  0  0  0  0  0  0  0  0  0  0
   -9.4908  -24.1501   32.4157 H   0  0  0  0  0  0  0  0  0  0  0  0
  1  2  1  0
  2  3  1  0
  3  4  1  0
  4  5  1  0
  5  6  1  0
  6  7  2  3
  7  8  1  0
  7  9  1  0
  9 10  2  0
 10 11  1  0
 11 12  2  0
 12 13  1  0
 13 14  1  0
 14 15  1  0
 14 16  2  0
 14 17  2  0
 12 18  1  0
 18 19  2  0
  2 20  1  0
 20 21  2  0
 21 22  1  0
 22 23  1  0
 23 24  1  0
 24 25  1  0
 25 26  1  0
 26 27  1  0
 22 28  2  0
 28 29  1  0
 19  9  1  0
 29 20  1  0
 27 23  1  0
  1 30  1  0
  1 31  1  0
  1 32  1  0
  2 33  1  0
  3 34  1  0
  3 35  1  0
  4 36  1  0
  4 37  1  0
  5 38  1  0
  5 39  1  0
  8 40  1  0
 10 41  1  0
 11 42  1  0
 13 43  1  0
 15 44  1  0
 15 45  1  0
 15 46  1  0
 18 47  1  0
 19 48  1  0
 23 49  1  0
 24 50  1  0
 24 51  1  0
 25 52  1  0
 25 53  1  0
 26 54  1  0
 26 55  1  0
 27 56  1  0
M  END
>  <Energy>  (955) 
11.825980994032115

>  <compound_id>  (955) 
1249

>  <target_id>  (955) 
1

>  <reference_id>  (955) 
52

>  <inspiration_ids>  (955) 
[88, 52]

>  <energy_score>  (955) 
-87.43360008551082

>  <distance_score>  (955) 
1.6163742431109642

>  <path>  (955) 
/opt/xchem-fragalysis-2/maxwin/BulkDock/SCRATCH/505733/C1249-P52/C1249-P52.minimised.mol

>  <scratch_subdir>  (955) 
/opt/xchem-fragalysis-2/maxwin/BulkDock/SCRATCH/505733/C1249-P52

>  <fragmenstein_runtime>  (955) 
5.520673751831055

>  <fragmenstein_outcome>  (955) 
too moved

>  <fragmenstein_mode>  (955) 
expansion

>  <fragmenstein_error>  (955) 


$$$$
C1252-P88
     RDKit          3D

 32 33  0  0  0  0  0  0  0  0999 V2000
   -9.7289  -25.4313   32.8050 C   0  0  0  0  0  0  0  0  0  0  0  0
   -8.7981  -24.8377   33.8476 C   0  0  0  0  0  0  0  0  0  0  0  0
   -9.0553  -23.4313   34.5044 C   0  0  0  0  0  0  0  0  0  0  0  0
   -9.8940  -22.5471   33.6781 C   0  0  0  0  0  0  0  0  0  0  0  0
  -11.0033  -21.9061   33.9559 N   0  0  0  0  0  0  0  0  0  0  0  0
  -11.6182  -21.7350   32.6896 C   0  0  0  0  0  0  0  0  0  0  0  0
  -10.9351  -22.3054   31.6925 C   0  0  0  0  0  0  0  0  0  0  0  0
   -9.6931  -22.5698   32.2779 C   0  0  0  0  0  0  0  0  0  0  0  0
   -8.8231  -23.0063   31.3930 C   0  0  0  0  0  0  0  0  0  0  0  0
   -9.4101  -23.2152   30.1700 N   0  0  0  0  0  0  0  0  0  0  0  0
  -10.6726  -22.8533   30.3579 C   0  0  0  0  0  0  0  0  0  0  0  0
  -11.7268  -23.1936   29.3645 C   0  0  0  0  0  0  0  0  0  0  0  0
  -11.7842  -24.7282   29.2939 C   0  0  0  0  0  0  0  0  0  0  0  0
  -11.3242  -22.5238   28.1330 N   0  0  0  0  0  0  0  0  0  0  0  0
  -11.8557  -23.1181   26.9238 C   0  0  0  0  0  0  0  0  0  0  0  0
  -10.6141  -24.8443   32.6157 H   0  0  0  0  0  0  0  0  0  0  0  0
   -9.2138  -25.5137   31.8506 H   0  0  0  0  0  0  0  0  0  0  0  0
  -10.0569  -26.4258   33.1139 H   0  0  0  0  0  0  0  0  0  0  0  0
   -8.7580  -25.5550   34.6722 H   0  0  0  0  0  0  0  0  0  0  0  0
   -7.7802  -24.8380   33.4391 H   0  0  0  0  0  0  0  0  0  0  0  0
   -9.5394  -23.5391   35.4727 H   0  0  0  0  0  0  0  0  0  0  0  0
   -8.1002  -22.9222   34.6614 H   0  0  0  0  0  0  0  0  0  0  0  0
  -12.6291  -21.3526   32.6412 H   0  0  0  0  0  0  0  0  0  0  0  0
   -7.8280  -23.3153   31.6326 H   0  0  0  0  0  0  0  0  0  0  0  0
  -12.6869  -22.8041   29.7137 H   0  0  0  0  0  0  0  0  0  0  0  0
  -11.8938  -25.1636   30.2931 H   0  0  0  0  0  0  0  0  0  0  0  0
  -12.6354  -25.0639   28.6926 H   0  0  0  0  0  0  0  0  0  0  0  0
  -10.8710  -25.1535   28.8606 H   0  0  0  0  0  0  0  0  0  0  0  0
  -10.3018  -22.5235   28.0682 H   0  0  0  0  0  0  0  0  0  0  0  0
  -12.9402  -23.2510   26.9667 H   0  0  0  0  0  0  0  0  0  0  0  0
  -11.3913  -24.0863   26.7093 H   0  0  0  0  0  0  0  0  0  0  0  0
  -11.6435  -22.4716   26.0682 H   0  0  0  0  0  0  0  0  0  0  0  0
  1  2  1  0
  2  3  1  0
  3  4  1  0
  4  5  2  0
  5  6  1  0
  6  7  2  0
  7  8  1  0
  8  9  2  0
  9 10  1  0
 10 11  2  0
 11 12  1  0
 12 13  1  0
 12 14  1  0
 14 15  1  0
  8  4  1  0
 11  7  1  0
  1 16  1  0
  1 17  1  0
  1 18  1  0
  2 19  1  0
  2 20  1  0
  3 21  1  0
  3 22  1  0
  6 23  1  0
  9 24  1  0
 12 25  1  0
 13 26  1  0
 13 27  1  0
 13 28  1  0
 14 29  1  0
 15 30  1  0
 15 31  1  0
 15 32  1  0
M  END
>  <Energy>  (956) 
146.73454071423657

>  <compound_id>  (956) 
1252

>  <target_id>  (956) 
1

>  <reference_id>  (956) 
88

>  <inspiration_ids>  (956) 
[88, 64]

>  <energy_score>  (956) 
11.48440926617964

>  <distance_score>  (956) 
2.675990826587593

>  <path>  (956) 
/opt/xchem-fragalysis-2/maxwin/BulkDock/SCRATCH/505733/C1252-P88/C1252-P88.minimised.mol

>  <scratch_subdir>  (956) 
/opt/xchem-fragalysis-2/maxwin/BulkDock/SCRATCH/505733/C1252-P88

>  <fragmenstein_runtime>  (956) 
12.197473526000977

>  <fragmenstein_outcome>  (956) 
too moved

>  <fragmenstein_mode>  (956) 
expansion

>  <fragmenstein_error>  (956) 


$$$$
C1252-P64
     RDKit          3D

 32 33  0  0  0  0  0  0  0  0999 V2000
   -9.7447  -24.3907   32.8793 C   0  0  0  0  0  0  0  0  0  0  0  0
  -11.1985  -24.7047   33.0623 C   0  0  0  0  0  0  0  0  0  0  0  0
  -12.1600  -23.7978   33.8468 C   0  0  0  0  0  0  0  0  0  0  0  0
  -12.6324  -22.5765   33.1627 C   0  0  0  0  0  0  0  0  0  0  0  0
  -13.9053  -22.2636   33.0786 N   0  0  0  0  0  0  0  0  0  0  0  0
  -14.0216  -22.0678   31.7090 C   0  0  0  0  0  0  0  0  0  0  0  0
  -12.8734  -22.2422   31.0315 C   0  0  0  0  0  0  0  0  0  0  0  0
  -11.9178  -22.0578   32.0364 C   0  0  0  0  0  0  0  0  0  0  0  0
  -10.9480  -21.3979   31.4309 C   0  0  0  0  0  0  0  0  0  0  0  0
  -10.9969  -21.4968   30.0423 N   0  0  0  0  0  0  0  0  0  0  0  0
  -12.0125  -22.3069   29.8475 C   0  0  0  0  0  0  0  0  0  0  0  0
  -12.0168  -23.4342   28.8209 C   0  0  0  0  0  0  0  0  0  0  0  0
  -10.9254  -24.4769   29.0854 C   0  0  0  0  0  0  0  0  0  0  0  0
  -11.8382  -22.8899   27.5031 N   0  0  0  0  0  0  0  0  0  0  0  0
  -11.8917  -23.8636   26.4291 C   0  0  0  0  0  0  0  0  0  0  0  0
   -9.3322  -24.9062   32.0067 H   0  0  0  0  0  0  0  0  0  0  0  0
   -9.5482  -23.3323   32.7763 H   0  0  0  0  0  0  0  0  0  0  0  0
   -9.2268  -24.7710   33.7545 H   0  0  0  0  0  0  0  0  0  0  0  0
  -11.5622  -24.7700   32.0498 H   0  0  0  0  0  0  0  0  0  0  0  0
  -11.2247  -25.6921   33.5336 H   0  0  0  0  0  0  0  0  0  0  0  0
  -13.0722  -24.3969   33.9629 H   0  0  0  0  0  0  0  0  0  0  0  0
  -11.8392  -23.4953   34.8209 H   0  0  0  0  0  0  0  0  0  0  0  0
  -14.9950  -21.8683   31.3255 H   0  0  0  0  0  0  0  0  0  0  0  0
  -10.1251  -20.9020   31.9022 H   0  0  0  0  0  0  0  0  0  0  0  0
  -12.9963  -23.8952   28.8523 H   0  0  0  0  0  0  0  0  0  0  0  0
  -10.7936  -24.6804   30.1443 H   0  0  0  0  0  0  0  0  0  0  0  0
  -11.1489  -25.4242   28.5840 H   0  0  0  0  0  0  0  0  0  0  0  0
   -9.9535  -24.1600   28.6924 H   0  0  0  0  0  0  0  0  0  0  0  0
  -11.0302  -22.2760   27.4527 H   0  0  0  0  0  0  0  0  0  0  0  0
  -12.7509  -24.5344   26.5371 H   0  0  0  0  0  0  0  0  0  0  0  0
  -10.9794  -24.4651   26.3761 H   0  0  0  0  0  0  0  0  0  0  0  0
  -12.0098  -23.3597   25.4658 H   0  0  0  0  0  0  0  0  0  0  0  0
  1  2  1  0
  2  3  1  0
  3  4  1  0
  4  5  2  0
  5  6  1  0
  6  7  2  0
  7  8  1  0
  8  9  2  0
  9 10  1  0
 10 11  2  0
 11 12  1  0
 12 13  1  0
 12 14  1  0
 14 15  1  0
  8  4  1  0
 11  7  1  0
  1 16  1  0
  1 17  1  0
  1 18  1  0
  2 19  1  0
  2 20  1  0
  3 21  1  0
  3 22  1  0
  6 23  1  0
  9 24  1  0
 12 25  1  0
 13 26  1  0
 13 27  1  0
 13 28  1  0
 14 29  1  0
 15 30  1  0
 15 31  1  0
 15 32  1  0
M  END
>  <Energy>  (957) 
188.0642820423532

>  <compound_id>  (957) 
1252

>  <target_id>  (957) 
1

>  <reference_id>  (957) 
64

>  <inspiration_ids>  (957) 
[88, 64]

>  <energy_score>  (957) 
58.13094901139672

>  <distance_score>  (957) 
2.8211094841535145

>  <path>  (957) 
/opt/xchem-fragalysis-2/maxwin/BulkDock/SCRATCH/505733/C1252-P64/C1252-P64.minimised.mol

>  <scratch_subdir>  (957) 
/opt/xchem-fragalysis-2/maxwin/BulkDock/SCRATCH/505733/C1252-P64

>  <fragmenstein_runtime>  (957) 
12.722522020339966

>  <fragmenstein_outcome>  (957) 
too moved

>  <fragmenstein_mode>  (957) 
expansion

>  <fragmenstein_error>  (957) 


$$$$
C1254-P88
     RDKit          3D

 44 46  0  0  0  0  0  0  0  0999 V2000
   -7.4672  -25.4832   33.3138 C   0  0  0  0  0  0  0  0  0  0  0  0
   -8.7821  -25.7921   33.9417 C   0  0  0  0  0  0  0  0  0  0  0  0
   -9.6005  -24.7005   33.5692 N   0  0  0  0  0  0  0  0  0  0  0  0
   -9.8468  -24.5601   32.1604 C   0  0  0  0  0  0  0  0  0  0  0  0
  -10.3877  -23.2053   31.9348 C   0  0  0  0  0  0  0  0  0  0  0  0
  -10.3439  -22.2252   32.9677 C   0  0  0  0  0  0  0  0  0  0  0  0
  -10.9089  -20.9775   32.8077 C   0  0  0  0  0  0  0  0  0  0  0  0
  -11.4392  -20.6599   31.5785 C   0  0  0  0  0  0  0  0  0  0  0  0
  -11.4128  -21.5964   30.5557 C   0  0  0  0  0  0  0  0  0  0  0  0
  -10.9236  -22.8836   30.7066 C   0  0  0  0  0  0  0  0  0  0  0  0
  -11.1950  -23.6509   29.4274 C   0  0  0  0  0  0  0  0  0  0  0  0
  -10.2891  -24.6740   28.8300 C   0  0  0  0  0  0  0  0  0  0  0  0
  -11.1935  -25.8915   28.9005 C   0  0  0  0  0  0  0  0  0  0  0  0
  -12.6460  -25.6275   28.5905 N   0  0  0  0  0  0  0  0  0  0  0  0
  -12.8826  -25.5433   27.0967 C   0  0  0  0  0  0  0  0  0  0  0  0
  -13.3029  -26.9242   26.6504 C   0  0  0  0  0  0  0  0  0  0  0  0
  -12.8489  -24.6187   26.3729 O   0  0  0  0  0  0  0  0  0  0  0  0
  -12.4005  -24.5510   29.6004 C   0  0  0  0  0  0  0  0  0  0  0  0
  -11.4950  -22.4783   28.4869 C   0  0  0  0  0  0  0  0  0  0  0  0
  -10.3452  -22.0594   27.8133 O   0  0  0  0  0  0  0  0  0  0  0  0
  -11.9147  -21.3359   29.2683 N   0  0  0  0  0  0  0  0  0  0  0  0
   -7.1571  -24.4526   33.4993 H   0  0  0  0  0  0  0  0  0  0  0  0
   -7.5694  -25.6301   32.2565 H   0  0  0  0  0  0  0  0  0  0  0  0
   -6.6758  -26.1652   33.5551 H   0  0  0  0  0  0  0  0  0  0  0  0
   -8.7288  -25.7982   35.0218 H   0  0  0  0  0  0  0  0  0  0  0  0
   -9.2272  -26.7367   33.6390 H   0  0  0  0  0  0  0  0  0  0  0  0
  -10.4639  -24.6448   34.0659 H   0  0  0  0  0  0  0  0  0  0  0  0
  -10.5474  -25.3330   31.8373 H   0  0  0  0  0  0  0  0  0  0  0  0
   -8.9624  -24.6125   31.5291 H   0  0  0  0  0  0  0  0  0  0  0  0
   -9.8850  -22.4295   33.9319 H   0  0  0  0  0  0  0  0  0  0  0  0
  -10.9244  -20.2623   33.6215 H   0  0  0  0  0  0  0  0  0  0  0  0
  -11.8502  -19.6772   31.4146 H   0  0  0  0  0  0  0  0  0  0  0  0
   -9.3441  -24.8150   29.3545 H   0  0  0  0  0  0  0  0  0  0  0  0
  -10.0670  -24.4720   27.7787 H   0  0  0  0  0  0  0  0  0  0  0  0
  -10.8432  -26.6094   28.1480 H   0  0  0  0  0  0  0  0  0  0  0  0
  -11.1138  -26.4427   29.8515 H   0  0  0  0  0  0  0  0  0  0  0  0
  -14.3903  -27.0056   26.7302 H   0  0  0  0  0  0  0  0  0  0  0  0
  -12.8411  -27.7088   27.2548 H   0  0  0  0  0  0  0  0  0  0  0  0
  -13.0111  -27.0665   25.6094 H   0  0  0  0  0  0  0  0  0  0  0  0
  -12.3999  -25.0295   30.5832 H   0  0  0  0  0  0  0  0  0  0  0  0
  -13.3060  -23.9374   29.5384 H   0  0  0  0  0  0  0  0  0  0  0  0
  -12.2433  -22.7257   27.7337 H   0  0  0  0  0  0  0  0  0  0  0  0
  -10.7031  -21.3181   27.2954 H   0  0  0  0  0  0  0  0  0  0  0  0
  -11.4898  -20.4657   28.9444 H   0  0  0  0  0  0  0  0  0  0  0  0
  1  2  1  0
  2  3  1  0
  3  4  1  0
  4  5  1  0
  5  6  2  0
  6  7  1  0
  7  8  2  0
  8  9  1  0
  9 10  2  0
 10 11  1  0
 11 12  1  0
 12 13  1  0
 13 14  1  0
 14 15  1  0
 15 16  1  0
 15 17  2  0
 14 18  1  0
 11 19  1  0
 19 20  1  0
 19 21  1  0
 10  5  1  0
 18 11  1  0
 21  9  1  0
  1 22  1  0
  1 23  1  0
  1 24  1  0
  2 25  1  0
  2 26  1  0
  3 27  1  0
  4 28  1  0
  4 29  1  0
  6 30  1  0
  7 31  1  0
  8 32  1  0
 12 33  1  0
 12 34  1  0
 13 35  1  0
 13 36  1  0
 16 37  1  0
 16 38  1  0
 16 39  1  0
 18 40  1  0
 18 41  1  0
 19 42  1  0
 20 43  1  0
 21 44  1  0
M  END
>  <Energy>  (958) 
81.521566543475586

>  <compound_id>  (958) 
1254

>  <target_id>  (958) 
1

>  <reference_id>  (958) 
88

>  <inspiration_ids>  (958) 
[88, 101]

>  <energy_score>  (958) 
25.87761832962019

>  <distance_score>  (958) 
2.004179394446203

>  <path>  (958) 
/opt/xchem-fragalysis-2/maxwin/BulkDock/SCRATCH/505733/C1254-P88/C1254-P88.minimised.mol

>  <scratch_subdir>  (958) 
/opt/xchem-fragalysis-2/maxwin/BulkDock/SCRATCH/505733/C1254-P88

>  <fragmenstein_runtime>  (958) 
9.58983850479126

>  <fragmenstein_outcome>  (958) 
too moved

>  <fragmenstein_mode>  (958) 
expansion

>  <fragmenstein_error>  (958) 


$$$$
C1254-P101
     RDKit          3D

 44 46  0  0  0  0  0  0  0  0999 V2000
   -7.0565  -26.0643   35.9766 C   0  0  0  0  0  0  0  0  0  0  0  0
   -8.2925  -25.0495   35.6554 C   0  0  0  0  0  0  0  0  0  0  0  0
   -9.3025  -25.2263   34.5057 N   0  0  0  0  0  0  0  0  0  0  0  0
   -9.3064  -24.5039   33.1462 C   0  0  0  0  0  0  0  0  0  0  0  0
  -10.7264  -24.1788   32.6502 C   0  0  0  0  0  0  0  0  0  0  0  0
  -11.6873  -24.2079   33.6921 C   0  0  0  0  0  0  0  0  0  0  0  0
  -12.7703  -23.3519   33.7570 C   0  0  0  0  0  0  0  0  0  0  0  0
  -12.9631  -22.4674   32.7551 C   0  0  0  0  0  0  0  0  0  0  0  0
  -12.2797  -22.7647   31.5881 C   0  0  0  0  0  0  0  0  0  0  0  0
  -11.1183  -23.5580   31.4370 C   0  0  0  0  0  0  0  0  0  0  0  0
  -11.0781  -24.0470   29.9407 C   0  0  0  0  0  0  0  0  0  0  0  0
  -10.6774  -25.5109   29.9665 C   0  0  0  0  0  0  0  0  0  0  0  0
  -10.7423  -26.0048   28.5294 C   0  0  0  0  0  0  0  0  0  0  0  0
  -11.4495  -24.9692   27.7557 N   0  0  0  0  0  0  0  0  0  0  0  0
  -11.5309  -25.3313   26.3916 C   0  0  0  0  0  0  0  0  0  0  0  0
  -12.8191  -26.0882   26.1569 C   0  0  0  0  0  0  0  0  0  0  0  0
  -10.7911  -25.1004   25.4784 O   0  0  0  0  0  0  0  0  0  0  0  0
  -10.4385  -24.0570   28.5115 C   0  0  0  0  0  0  0  0  0  0  0  0
  -12.4565  -23.4089   29.4800 C   0  0  0  0  0  0  0  0  0  0  0  0
  -12.3087  -22.4658   28.4492 O   0  0  0  0  0  0  0  0  0  0  0  0
  -13.0132  -22.5103   30.4330 N   0  0  0  0  0  0  0  0  0  0  0  0
   -6.7308  -26.6620   35.1262 H   0  0  0  0  0  0  0  0  0  0  0  0
   -6.0637  -25.7071   36.1726 H   0  0  0  0  0  0  0  0  0  0  0  0
   -7.2568  -26.6669   36.8504 H   0  0  0  0  0  0  0  0  0  0  0  0
   -8.0038  -24.0187   35.8380 H   0  0  0  0  0  0  0  0  0  0  0  0
   -8.9056  -25.1409   36.5366 H   0  0  0  0  0  0  0  0  0  0  0  0
   -9.3861  -26.1787   34.1767 H   0  0  0  0  0  0  0  0  0  0  0  0
   -8.7656  -25.0797   32.3920 H   0  0  0  0  0  0  0  0  0  0  0  0
   -8.8404  -23.5198   33.2317 H   0  0  0  0  0  0  0  0  0  0  0  0
  -11.5445  -24.8568   34.5490 H   0  0  0  0  0  0  0  0  0  0  0  0
  -13.4786  -23.4036   34.5681 H   0  0  0  0  0  0  0  0  0  0  0  0
  -13.8397  -21.8309   32.7627 H   0  0  0  0  0  0  0  0  0  0  0  0
  -11.2707  -26.0655   30.6303 H   0  0  0  0  0  0  0  0  0  0  0  0
   -9.6518  -25.6438   30.3361 H   0  0  0  0  0  0  0  0  0  0  0  0
   -9.7694  -26.2793   28.0914 H   0  0  0  0  0  0  0  0  0  0  0  0
  -11.3281  -26.9289   28.4759 H   0  0  0  0  0  0  0  0  0  0  0  0
  -13.0256  -26.1397   25.0848 H   0  0  0  0  0  0  0  0  0  0  0  0
  -12.7297  -27.1068   26.5414 H   0  0  0  0  0  0  0  0  0  0  0  0
  -13.6560  -25.5731   26.6361 H   0  0  0  0  0  0  0  0  0  0  0  0
   -9.3803  -24.3385   28.4244 H   0  0  0  0  0  0  0  0  0  0  0  0
  -10.4282  -23.1008   27.9952 H   0  0  0  0  0  0  0  0  0  0  0  0
  -13.1894  -24.1425   29.1448 H   0  0  0  0  0  0  0  0  0  0  0  0
  -12.0006  -21.6670   28.9110 H   0  0  0  0  0  0  0  0  0  0  0  0
  -13.9762  -22.8052   30.6250 H   0  0  0  0  0  0  0  0  0  0  0  0
  1  2  1  0
  2  3  1  0
  3  4  1  0
  4  5  1  0
  5  6  2  0
  6  7  1  0
  7  8  2  0
  8  9  1  0
  9 10  2  0
 10 11  1  0
 11 12  1  0
 12 13  1  0
 13 14  1  0
 14 15  1  0
 15 16  1  0
 15 17  2  0
 14 18  1  0
 11 19  1  0
 19 20  1  0
 19 21  1  0
 10  5  1  0
 18 11  1  0
 21  9  1  0
  1 22  1  0
  1 23  1  0
  1 24  1  0
  2 25  1  0
  2 26  1  0
  3 27  1  0
  4 28  1  0
  4 29  1  0
  6 30  1  0
  7 31  1  0
  8 32  1  0
 12 33  1  0
 12 34  1  0
 13 35  1  0
 13 36  1  0
 16 37  1  0
 16 38  1  0
 16 39  1  0
 18 40  1  0
 18 41  1  0
 19 42  1  0
 20 43  1  0
 21 44  1  0
M  END
>  <Energy>  (959) 
207.15902681965784

>  <compound_id>  (959) 
1254

>  <target_id>  (959) 
1

>  <reference_id>  (959) 
101

>  <inspiration_ids>  (959) 
[88, 101]

>  <energy_score>  (959) 
161.84714310240997

>  <distance_score>  (959) 
1.9665474494905175

>  <path>  (959) 
/opt/xchem-fragalysis-2/maxwin/BulkDock/SCRATCH/505733/C1254-P101/C1254-P101.minimised.mol

>  <scratch_subdir>  (959) 
/opt/xchem-fragalysis-2/maxwin/BulkDock/SCRATCH/505733/C1254-P101

>  <fragmenstein_runtime>  (959) 
13.4388906955719

>  <fragmenstein_outcome>  (959) 
too moved

>  <fragmenstein_mode>  (959) 
expansion

>  <fragmenstein_error>  (959) 


$$$$
C1256-P88
     RDKit          3D

 28 29  0  0  0  0  0  0  0  0999 V2000
   -9.2238  -23.9259   33.7337 C   0  0  0  0  0  0  0  0  0  0  0  0
   -9.3460  -24.3989   32.2962 C   0  0  0  0  0  0  0  0  0  0  0  0
   -9.1532  -23.2626   31.4177 N   0  0  0  0  0  0  0  0  0  0  0  0
   -8.9905  -23.6332   30.0092 C   0  0  0  0  0  0  0  0  0  0  0  0
  -10.1768  -23.2346   29.1865 C   0  0  0  0  0  0  0  0  0  0  0  0
  -10.5515  -21.8932   29.0976 C   0  0  0  0  0  0  0  0  0  0  0  0
  -11.6784  -21.5024   29.7771 C   0  0  0  0  0  0  0  0  0  0  0  0
  -12.6123  -22.4628   30.1001 C   0  0  0  0  0  0  0  0  0  0  0  0
  -12.4383  -23.7160   29.4938 C   0  0  0  0  0  0  0  0  0  0  0  0
  -11.2106  -24.1415   29.0238 C   0  0  0  0  0  0  0  0  0  0  0  0
  -11.3090  -25.5209   28.7119 C   0  0  0  0  0  0  0  0  0  0  0  0
  -12.6247  -25.8752   28.8665 C   0  0  0  0  0  0  0  0  0  0  0  0
  -13.2726  -24.7519   29.2535 N   0  0  0  0  0  0  0  0  0  0  0  0
  -14.6377  -24.6359   29.3347 O   0  0  0  0  0  0  0  0  0  0  0  0
   -9.3143  -24.7759   34.4151 H   0  0  0  0  0  0  0  0  0  0  0  0
  -10.0040  -23.1982   33.9803 H   0  0  0  0  0  0  0  0  0  0  0  0
   -8.2516  -23.4560   33.9182 H   0  0  0  0  0  0  0  0  0  0  0  0
  -10.3246  -24.8564   32.1269 H   0  0  0  0  0  0  0  0  0  0  0  0
   -8.5791  -25.1578   32.1339 H   0  0  0  0  0  0  0  0  0  0  0  0
   -8.3306  -22.7468   31.7239 H   0  0  0  0  0  0  0  0  0  0  0  0
   -8.7579  -24.6931   29.8748 H   0  0  0  0  0  0  0  0  0  0  0  0
   -8.1284  -23.0935   29.6420 H   0  0  0  0  0  0  0  0  0  0  0  0
   -9.8694  -21.1313   28.7554 H   0  0  0  0  0  0  0  0  0  0  0  0
  -11.8212  -20.4596   30.0404 H   0  0  0  0  0  0  0  0  0  0  0  0
  -13.4999  -22.1858   30.6421 H   0  0  0  0  0  0  0  0  0  0  0  0
  -10.5195  -26.1636   28.3600 H   0  0  0  0  0  0  0  0  0  0  0  0
  -13.1488  -26.8038   28.6927 H   0  0  0  0  0  0  0  0  0  0  0  0
  -14.8149  -24.3551   28.4190 H   0  0  0  0  0  0  0  0  0  0  0  0
  1  2  1  0
  2  3  1  0
  3  4  1  0
  4  5  1  0
  5  6  2  0
  6  7  1  0
  7  8  2  0
  8  9  1  0
  9 10  2  0
 10 11  1  0
 11 12  2  0
 12 13  1  0
 13 14  1  0
 10  5  1  0
 13  9  1  0
  1 15  1  0
  1 16  1  0
  1 17  1  0
  2 18  1  0
  2 19  1  0
  3 20  1  0
  4 21  1  0
  4 22  1  0
  6 23  1  0
  7 24  1  0
  8 25  1  0
 11 26  1  0
 12 27  1  0
 14 28  1  0
M  END
>  <Energy>  (960) 
44.395148586277557

>  <compound_id>  (960) 
1256

>  <target_id>  (960) 
1

>  <reference_id>  (960) 
88

>  <inspiration_ids>  (960) 
[88, 107]

>  <energy_score>  (960) 
23.975602489809106

>  <distance_score>  (960) 
2.4011691259536425

>  <path>  (960) 
/opt/xchem-fragalysis-2/maxwin/BulkDock/SCRATCH/505733/C1256-P88/C1256-P88.minimised.mol

>  <scratch_subdir>  (960) 
/opt/xchem-fragalysis-2/maxwin/BulkDock/SCRATCH/505733/C1256-P88

>  <fragmenstein_runtime>  (960) 
2.506584882736206

>  <fragmenstein_outcome>  (960) 
too moved

>  <fragmenstein_mode>  (960) 
expansion

>  <fragmenstein_error>  (960) 


$$$$
C1256-P107
     RDKit          3D

 28 29  0  0  0  0  0  0  0  0999 V2000
  -10.1706  -25.5227   33.7140 C   0  0  0  0  0  0  0  0  0  0  0  0
   -9.8166  -25.3540   32.2498 C   0  0  0  0  0  0  0  0  0  0  0  0
  -10.6533  -24.3610   31.6276 N   0  0  0  0  0  0  0  0  0  0  0  0
  -10.6023  -23.1080   32.3576 C   0  0  0  0  0  0  0  0  0  0  0  0
  -11.3895  -21.9679   31.7302 C   0  0  0  0  0  0  0  0  0  0  0  0
  -12.2913  -21.4531   32.6972 C   0  0  0  0  0  0  0  0  0  0  0  0
  -13.6303  -21.7308   32.5626 C   0  0  0  0  0  0  0  0  0  0  0  0
  -14.0530  -22.4197   31.4401 C   0  0  0  0  0  0  0  0  0  0  0  0
  -13.1415  -22.6751   30.4004 C   0  0  0  0  0  0  0  0  0  0  0  0
  -11.8590  -22.1635   30.4215 C   0  0  0  0  0  0  0  0  0  0  0  0
  -11.3116  -22.3354   29.1193 C   0  0  0  0  0  0  0  0  0  0  0  0
  -12.1128  -23.2199   28.4576 C   0  0  0  0  0  0  0  0  0  0  0  0
  -13.1415  -23.4642   29.2936 N   0  0  0  0  0  0  0  0  0  0  0  0
  -14.0213  -24.4615   29.0562 O   0  0  0  0  0  0  0  0  0  0  0  0
  -10.4594  -26.5478   33.9099 H   0  0  0  0  0  0  0  0  0  0  0  0
  -11.0568  -24.9924   34.0641 H   0  0  0  0  0  0  0  0  0  0  0  0
   -9.3186  -25.2755   34.3460 H   0  0  0  0  0  0  0  0  0  0  0  0
   -9.9799  -26.2934   31.7118 H   0  0  0  0  0  0  0  0  0  0  0  0
   -8.7566  -25.1042   32.1374 H   0  0  0  0  0  0  0  0  0  0  0  0
  -10.3939  -24.2558   30.6557 H   0  0  0  0  0  0  0  0  0  0  0  0
  -11.1132  -23.2846   33.3050 H   0  0  0  0  0  0  0  0  0  0  0  0
   -9.6060  -22.8204   32.6554 H   0  0  0  0  0  0  0  0  0  0  0  0
  -11.9480  -21.1311   33.6771 H   0  0  0  0  0  0  0  0  0  0  0  0
  -14.3290  -21.5166   33.3658 H   0  0  0  0  0  0  0  0  0  0  0  0
  -15.0884  -22.7146   31.3922 H   0  0  0  0  0  0  0  0  0  0  0  0
  -10.3895  -21.9580   28.7186 H   0  0  0  0  0  0  0  0  0  0  0  0
  -12.0362  -23.6900   27.4879 H   0  0  0  0  0  0  0  0  0  0  0  0
  -13.8703  -24.9097   29.9130 H   0  0  0  0  0  0  0  0  0  0  0  0
  1  2  1  0
  2  3  1  0
  3  4  1  0
  4  5  1  0
  5  6  2  0
  6  7  1  0
  7  8  2  0
  8  9  1  0
  9 10  2  0
 10 11  1  0
 11 12  2  0
 12 13  1  0
 13 14  1  0
 10  5  1  0
 13  9  1  0
  1 15  1  0
  1 16  1  0
  1 17  1  0
  2 18  1  0
  2 19  1  0
  3 20  1  0
  4 21  1  0
  4 22  1  0
  6 23  1  0
  7 24  1  0
  8 25  1  0
 11 26  1  0
 12 27  1  0
 14 28  1  0
M  END
>  <Energy>  (961) 
71.414577165199844

>  <compound_id>  (961) 
1256

>  <target_id>  (961) 
1

>  <reference_id>  (961) 
107

>  <inspiration_ids>  (961) 
[88, 107]

>  <energy_score>  (961) 
50.99503106873049

>  <distance_score>  (961) 
2.7996064231155806

>  <path>  (961) 
/opt/xchem-fragalysis-2/maxwin/BulkDock/SCRATCH/505733/C1256-P107/C1256-P107.minimised.mol

>  <scratch_subdir>  (961) 
/opt/xchem-fragalysis-2/maxwin/BulkDock/SCRATCH/505733/C1256-P107

>  <fragmenstein_runtime>  (961) 
2.107569694519043

>  <fragmenstein_outcome>  (961) 
too moved

>  <fragmenstein_mode>  (961) 
expansion

>  <fragmenstein_error>  (961) 


$$$$
C1258-P88
     RDKit          3D

 51 54  0  0  0  0  0  0  0  0999 V2000
  -11.2086  -21.6529   28.5611 C   0  0  0  0  0  0  0  0  0  0  0  0
  -11.1119  -21.9956   30.0019 C   0  0  0  0  0  0  0  0  0  0  0  0
  -11.6980  -21.1440   30.9280 C   0  0  0  0  0  0  0  0  0  0  0  0
  -11.5620  -21.3891   32.2704 C   0  0  0  0  0  0  0  0  0  0  0  0
  -10.8289  -22.5113   32.6813 C   0  0  0  0  0  0  0  0  0  0  0  0
  -10.4354  -23.5060   31.7682 C   0  0  0  0  0  0  0  0  0  0  0  0
  -10.4840  -23.1759   30.4117 C   0  0  0  0  0  0  0  0  0  0  0  0
  -10.0304  -24.1654   29.3774 C   0  0  0  0  0  0  0  0  0  0  0  0
  -11.1904  -25.0801   29.0908 C   0  0  0  0  0  0  0  0  0  0  0  0
  -11.3297  -26.1712   30.1355 C   0  0  0  0  0  0  0  0  0  0  0  0
  -12.6225  -26.9143   29.8253 C   0  0  0  0  0  0  0  0  0  0  0  0
  -11.2327  -25.8452   31.5608 N   0  0  0  0  0  0  0  0  0  0  0  0
  -10.1439  -24.9543   32.0760 C   0  0  0  0  0  0  0  0  0  0  0  0
  -10.4014  -22.2565   34.0815 C   0  0  0  0  0  0  0  0  0  0  0  0
  -11.4601  -21.2500   34.5823 C   0  0  0  0  0  0  0  0  0  0  0  0
  -12.0070  -20.4422   33.3849 C   0  0  0  0  0  0  0  0  0  0  0  0
  -11.3833  -19.0765   33.1510 C   0  0  0  0  0  0  0  0  0  0  0  0
  -11.7504  -18.0216   34.2004 C   0  0  0  0  0  0  0  0  0  0  0  0
  -13.2388  -17.8230   34.4536 C   0  0  0  0  0  0  0  0  0  0  0  0
  -14.0120  -19.1195   34.5041 C   0  0  0  0  0  0  0  0  0  0  0  0
  -13.5278  -20.1665   33.5181 C   0  0  0  0  0  0  0  0  0  0  0  0
  -14.0932  -19.7690   32.2683 O   0  0  0  0  0  0  0  0  0  0  0  0
  -10.2478  -21.7757   28.0698 H   0  0  0  0  0  0  0  0  0  0  0  0
  -11.4562  -20.5984   28.4399 H   0  0  0  0  0  0  0  0  0  0  0  0
  -11.9541  -22.2675   28.0531 H   0  0  0  0  0  0  0  0  0  0  0  0
  -12.1873  -20.2394   30.6004 H   0  0  0  0  0  0  0  0  0  0  0  0
   -9.1230  -24.6960   29.6783 H   0  0  0  0  0  0  0  0  0  0  0  0
   -9.7393  -23.6724   28.4497 H   0  0  0  0  0  0  0  0  0  0  0  0
  -12.1287  -24.5185   28.9908 H   0  0  0  0  0  0  0  0  0  0  0  0
  -11.0191  -25.5550   28.1147 H   0  0  0  0  0  0  0  0  0  0  0  0
  -10.5848  -26.9136   29.9179 H   0  0  0  0  0  0  0  0  0  0  0  0
  -12.7601  -27.7651   30.5029 H   0  0  0  0  0  0  0  0  0  0  0  0
  -12.6116  -27.3163   28.8052 H   0  0  0  0  0  0  0  0  0  0  0  0
  -13.5011  -26.2689   29.9162 H   0  0  0  0  0  0  0  0  0  0  0  0
  -11.2165  -26.7052   32.1038 H   0  0  0  0  0  0  0  0  0  0  0  0
  -10.0774  -25.0757   33.1628 H   0  0  0  0  0  0  0  0  0  0  0  0
   -9.1576  -25.2434   31.7086 H   0  0  0  0  0  0  0  0  0  0  0  0
  -10.3051  -23.1400   34.6988 H   0  0  0  0  0  0  0  0  0  0  0  0
   -9.4150  -21.7861   34.0272 H   0  0  0  0  0  0  0  0  0  0  0  0
  -11.0734  -20.6111   35.3710 H   0  0  0  0  0  0  0  0  0  0  0  0
  -12.2729  -21.8266   35.0310 H   0  0  0  0  0  0  0  0  0  0  0  0
  -11.7117  -18.7194   32.1884 H   0  0  0  0  0  0  0  0  0  0  0  0
  -10.3235  -19.1759   32.9560 H   0  0  0  0  0  0  0  0  0  0  0  0
  -11.3035  -17.0601   33.9263 H   0  0  0  0  0  0  0  0  0  0  0  0
  -11.3211  -18.3052   35.1576 H   0  0  0  0  0  0  0  0  0  0  0  0
  -13.7113  -17.1874   33.7131 H   0  0  0  0  0  0  0  0  0  0  0  0
  -13.3742  -17.2349   35.3646 H   0  0  0  0  0  0  0  0  0  0  0  0
  -15.0710  -18.8905   34.3196 H   0  0  0  0  0  0  0  0  0  0  0  0
  -14.0040  -19.5758   35.4889 H   0  0  0  0  0  0  0  0  0  0  0  0
  -13.9959  -21.0480   33.9165 H   0  0  0  0  0  0  0  0  0  0  0  0
  -14.5236  -20.5822   31.9365 H   0  0  0  0  0  0  0  0  0  0  0  0
  1  2  1  0
  2  3  2  0
  3  4  1  0
  4  5  2  0
  5  6  1  0
  6  7  2  0
  7  8  1  0
  8  9  1  0
  9 10  1  0
 10 11  1  0
 10 12  1  0
 12 13  1  0
  5 14  1  0
 14 15  1  0
 15 16  1  0
 16 17  1  0
 17 18  1  0
 18 19  1  0
 19 20  1  0
 20 21  1  0
 21 22  1  0
  7  2  1  0
 21 16  1  0
 16  4  1  0
 13  6  1  0
  1 23  1  0
  1 24  1  0
  1 25  1  0
  3 26  1  0
  8 27  1  0
  8 28  1  0
  9 29  1  0
  9 30  1  0
 10 31  1  0
 11 32  1  0
 11 33  1  0
 11 34  1  0
 12 35  1  0
 13 36  1  0
 13 37  1  0
 14 38  1  0
 14 39  1  0
 15 40  1  0
 15 41  1  0
 17 42  1  0
 17 43  1  0
 18 44  1  0
 18 45  1  0
 19 46  1  0
 19 47  1  0
 20 48  1  0
 20 49  1  0
 21 50  1  0
 22 51  1  0
M  END
>  <Energy>  (962) 
100.23757007706526

>  <compound_id>  (962) 
1258

>  <target_id>  (962) 
1

>  <reference_id>  (962) 
88

>  <inspiration_ids>  (962) 
[88, 115]

>  <energy_score>  (962) 
-12.424089321679844

>  <distance_score>  (962) 
2.418572771349867

>  <path>  (962) 
/opt/xchem-fragalysis-2/maxwin/BulkDock/SCRATCH/505733/C1258-P88/C1258-P88.minimised.mol

>  <scratch_subdir>  (962) 
/opt/xchem-fragalysis-2/maxwin/BulkDock/SCRATCH/505733/C1258-P88

>  <fragmenstein_runtime>  (962) 
26.145850658416748

>  <fragmenstein_outcome>  (962) 
too moved

>  <fragmenstein_mode>  (962) 
expansion

>  <fragmenstein_error>  (962) 


$$$$
C1258-P115
     RDKit          3D

 51 54  0  0  0  0  0  0  0  0999 V2000
  -11.6238  -21.7298   29.6978 C   0  0  0  0  0  0  0  0  0  0  0  0
  -11.3200  -22.2208   31.0828 C   0  0  0  0  0  0  0  0  0  0  0  0
  -10.8237  -21.3678   32.0503 C   0  0  0  0  0  0  0  0  0  0  0  0
  -10.3805  -21.8468   33.2541 C   0  0  0  0  0  0  0  0  0  0  0  0
  -10.3359  -23.2348   33.4434 C   0  0  0  0  0  0  0  0  0  0  0  0
  -10.5367  -24.1319   32.3899 C   0  0  0  0  0  0  0  0  0  0  0  0
  -11.2373  -23.5963   31.3202 C   0  0  0  0  0  0  0  0  0  0  0  0
  -11.8595  -24.5086   30.3530 C   0  0  0  0  0  0  0  0  0  0  0  0
  -10.9919  -24.7945   29.2135 C   0  0  0  0  0  0  0  0  0  0  0  0
   -9.7869  -25.5633   29.7066 C   0  0  0  0  0  0  0  0  0  0  0  0
   -9.6074  -26.4263   28.4808 C   0  0  0  0  0  0  0  0  0  0  0  0
   -9.9278  -26.2976   30.9819 N   0  0  0  0  0  0  0  0  0  0  0  0
   -9.9199  -25.5283   32.2852 C   0  0  0  0  0  0  0  0  0  0  0  0
  -10.2371  -23.5143   34.8971 C   0  0  0  0  0  0  0  0  0  0  0  0
   -9.6316  -22.1916   35.3864 C   0  0  0  0  0  0  0  0  0  0  0  0
   -9.9400  -20.9961   34.4355 C   0  0  0  0  0  0  0  0  0  0  0  0
   -8.6877  -20.1332   34.2487 C   0  0  0  0  0  0  0  0  0  0  0  0
   -8.2551  -19.3732   35.5300 C   0  0  0  0  0  0  0  0  0  0  0  0
   -9.3435  -18.5501   36.1904 C   0  0  0  0  0  0  0  0  0  0  0  0
  -10.5543  -18.5307   35.3037 C   0  0  0  0  0  0  0  0  0  0  0  0
  -10.9823  -19.9586   34.9353 C   0  0  0  0  0  0  0  0  0  0  0  0
  -12.1080  -19.8280   34.0828 O   0  0  0  0  0  0  0  0  0  0  0  0
  -10.6966  -21.5364   29.1624 H   0  0  0  0  0  0  0  0  0  0  0  0
  -12.1974  -22.4035   29.0733 H   0  0  0  0  0  0  0  0  0  0  0  0
  -12.2143  -20.8326   29.6855 H   0  0  0  0  0  0  0  0  0  0  0  0
  -10.7559  -20.3148   31.9016 H   0  0  0  0  0  0  0  0  0  0  0  0
  -12.7624  -24.0670   29.9759 H   0  0  0  0  0  0  0  0  0  0  0  0
  -12.1399  -25.4468   30.8288 H   0  0  0  0  0  0  0  0  0  0  0  0
  -11.6206  -25.3564   28.5057 H   0  0  0  0  0  0  0  0  0  0  0  0
  -10.6574  -23.9116   28.6587 H   0  0  0  0  0  0  0  0  0  0  0  0
   -8.9161  -24.9266   29.7828 H   0  0  0  0  0  0  0  0  0  0  0  0
   -8.6435  -26.9073   28.4409 H   0  0  0  0  0  0  0  0  0  0  0  0
   -9.6698  -25.8344   27.5629 H   0  0  0  0  0  0  0  0  0  0  0  0
  -10.4307  -27.1413   28.4292 H   0  0  0  0  0  0  0  0  0  0  0  0
  -10.7380  -26.9066   30.9547 H   0  0  0  0  0  0  0  0  0  0  0  0
  -10.3769  -26.1649   33.0506 H   0  0  0  0  0  0  0  0  0  0  0  0
   -8.8615  -25.4252   32.5502 H   0  0  0  0  0  0  0  0  0  0  0  0
  -11.2252  -23.7026   35.3220 H   0  0  0  0  0  0  0  0  0  0  0  0
   -9.5903  -24.3725   35.0772 H   0  0  0  0  0  0  0  0  0  0  0  0
   -8.6056  -22.4630   35.2904 H   0  0  0  0  0  0  0  0  0  0  0  0
   -9.7025  -21.9501   36.4425 H   0  0  0  0  0  0  0  0  0  0  0  0
   -8.9130  -19.3738   33.5005 H   0  0  0  0  0  0  0  0  0  0  0  0
   -7.8713  -20.7185   33.8264 H   0  0  0  0  0  0  0  0  0  0  0  0
   -7.9109  -20.0651   36.3009 H   0  0  0  0  0  0  0  0  0  0  0  0
   -7.4176  -18.7115   35.2785 H   0  0  0  0  0  0  0  0  0  0  0  0
   -8.9902  -17.5314   36.3863 H   0  0  0  0  0  0  0  0  0  0  0  0
   -9.6003  -18.9828   37.1654 H   0  0  0  0  0  0  0  0  0  0  0  0
  -10.3125  -17.9411   34.4251 H   0  0  0  0  0  0  0  0  0  0  0  0
  -11.3831  -18.0050   35.7943 H   0  0  0  0  0  0  0  0  0  0  0  0
  -11.2758  -20.3204   35.8968 H   0  0  0  0  0  0  0  0  0  0  0  0
  -12.3844  -20.7229   33.8174 H   0  0  0  0  0  0  0  0  0  0  0  0
  1  2  1  0
  2  3  2  0
  3  4  1  0
  4  5  2  0
  5  6  1  0
  6  7  2  0
  7  8  1  0
  8  9  1  0
  9 10  1  0
 10 11  1  0
 10 12  1  0
 12 13  1  0
  5 14  1  0
 14 15  1  0
 15 16  1  0
 16 17  1  0
 17 18  1  0
 18 19  1  0
 19 20  1  0
 20 21  1  0
 21 22  1  0
  7  2  1  0
 21 16  1  0
 16  4  1  0
 13  6  1  0
  1 23  1  0
  1 24  1  0
  1 25  1  0
  3 26  1  0
  8 27  1  0
  8 28  1  0
  9 29  1  0
  9 30  1  0
 10 31  1  0
 11 32  1  0
 11 33  1  0
 11 34  1  0
 12 35  1  0
 13 36  1  0
 13 37  1  0
 14 38  1  0
 14 39  1  0
 15 40  1  0
 15 41  1  0
 17 42  1  0
 17 43  1  0
 18 44  1  0
 18 45  1  0
 19 46  1  0
 19 47  1  0
 20 48  1  0
 20 49  1  0
 21 50  1  0
 22 51  1  0
M  END
>  <Energy>  (963) 
137.52106543726214

>  <compound_id>  (963) 
1258

>  <target_id>  (963) 
1

>  <reference_id>  (963) 
115

>  <inspiration_ids>  (963) 
[88, 115]

>  <energy_score>  (963) 
24.85940603851799

>  <distance_score>  (963) 
1.6378547078817676

>  <path>  (963) 
/opt/xchem-fragalysis-2/maxwin/BulkDock/SCRATCH/505733/C1258-P115/C1258-P115.minimised.mol

>  <scratch_subdir>  (963) 
/opt/xchem-fragalysis-2/maxwin/BulkDock/SCRATCH/505733/C1258-P115

>  <fragmenstein_runtime>  (963) 
26.085821866989136

>  <fragmenstein_outcome>  (963) 
too moved

>  <fragmenstein_mode>  (963) 
expansion

>  <fragmenstein_error>  (963) 


$$$$
C1259-P88
     RDKit          3D

 50 52  0  0  0  0  0  0  0  0999 V2000
  -10.9324  -20.2717   29.6181 C   0  0  0  0  0  0  0  0  0  0  0  0
  -10.7496  -21.4881   28.7373 C   0  0  0  0  0  0  0  0  0  0  0  0
  -11.8207  -22.4350   28.8616 N   0  0  0  0  0  0  0  0  0  0  0  0
  -11.9149  -23.2719   30.0489 C   0  0  0  0  0  0  0  0  0  0  0  0
  -11.8271  -24.7543   29.7481 C   0  0  0  0  0  0  0  0  0  0  0  0
  -12.5117  -25.3323   28.7497 C   0  0  0  0  0  0  0  0  0  0  0  0
  -12.7238  -26.6738   28.4824 N   0  0  0  0  0  0  0  0  0  0  0  0
  -13.8860  -27.0401   27.6649 C   0  0  0  0  0  0  0  0  0  0  0  0
  -13.8858  -28.5506   27.3984 C   0  0  0  0  0  0  0  0  0  0  0  0
  -14.1388  -29.4766   28.5599 N   0  0  0  0  0  0  0  0  0  0  0  0
  -14.3182  -30.8884   28.6003 C   0  0  0  0  0  0  0  0  0  0  0  0
  -14.7150  -31.3026   30.0025 C   0  0  0  0  0  0  0  0  0  0  0  0
  -14.2248  -31.7129   27.7315 O   0  0  0  0  0  0  0  0  0  0  0  0
  -12.6821  -29.1217   28.8764 C   0  0  0  0  0  0  0  0  0  0  0  0
  -12.4141  -27.7164   29.4609 C   0  0  0  0  0  0  0  0  0  0  0  0
  -11.3330  -22.7964   31.3830 C   0  0  0  0  0  0  0  0  0  0  0  0
  -12.0402  -21.7639   32.0614 C   0  0  0  0  0  0  0  0  0  0  0  0
  -11.7334  -21.3355   33.3461 C   0  0  0  0  0  0  0  0  0  0  0  0
  -10.6903  -21.9220   34.0356 C   0  0  0  0  0  0  0  0  0  0  0  0
   -9.9263  -22.8780   33.3691 C   0  0  0  0  0  0  0  0  0  0  0  0
   -8.8173  -23.5549   33.8097 N   0  0  0  0  0  0  0  0  0  0  0  0
   -8.4630  -24.5041   32.9024 C   0  0  0  0  0  0  0  0  0  0  0  0
   -9.2516  -24.3301   31.7899 C   0  0  0  0  0  0  0  0  0  0  0  0
  -10.2161  -23.3275   32.0748 C   0  0  0  0  0  0  0  0  0  0  0  0
  -11.9300  -19.8574   29.5529 H   0  0  0  0  0  0  0  0  0  0  0  0
  -10.2498  -19.4969   29.3135 H   0  0  0  0  0  0  0  0  0  0  0  0
  -10.6921  -20.4250   30.6636 H   0  0  0  0  0  0  0  0  0  0  0  0
   -9.7850  -21.9873   28.8476 H   0  0  0  0  0  0  0  0  0  0  0  0
  -10.7832  -21.1249   27.7086 H   0  0  0  0  0  0  0  0  0  0  0  0
  -11.8254  -23.0057   28.0209 H   0  0  0  0  0  0  0  0  0  0  0  0
  -12.9879  -23.1679   30.2352 H   0  0  0  0  0  0  0  0  0  0  0  0
  -11.3375  -25.3837   30.4780 H   0  0  0  0  0  0  0  0  0  0  0  0
  -13.0753  -24.6986   28.0632 H   0  0  0  0  0  0  0  0  0  0  0  0
  -13.8560  -26.5072   26.7068 H   0  0  0  0  0  0  0  0  0  0  0  0
  -14.8092  -26.7558   28.1857 H   0  0  0  0  0  0  0  0  0  0  0  0
  -13.1025  -28.8830   26.7063 H   0  0  0  0  0  0  0  0  0  0  0  0
  -14.7855  -28.7228   26.7864 H   0  0  0  0  0  0  0  0  0  0  0  0
  -15.6598  -31.8514   29.9567 H   0  0  0  0  0  0  0  0  0  0  0  0
  -13.9343  -31.9450   30.4190 H   0  0  0  0  0  0  0  0  0  0  0  0
  -14.8506  -30.4406   30.6624 H   0  0  0  0  0  0  0  0  0  0  0  0
  -11.9513  -29.4443   28.1145 H   0  0  0  0  0  0  0  0  0  0  0  0
  -12.4236  -29.7983   29.7074 H   0  0  0  0  0  0  0  0  0  0  0  0
  -11.3609  -27.6576   29.7516 H   0  0  0  0  0  0  0  0  0  0  0  0
  -13.0267  -27.5741   30.3602 H   0  0  0  0  0  0  0  0  0  0  0  0
  -12.9084  -21.3144   31.5781 H   0  0  0  0  0  0  0  0  0  0  0  0
  -12.3629  -20.5953   33.8328 H   0  0  0  0  0  0  0  0  0  0  0  0
  -10.5243  -21.6633   35.0723 H   0  0  0  0  0  0  0  0  0  0  0  0
   -8.3316  -23.3716   34.6752 H   0  0  0  0  0  0  0  0  0  0  0  0
   -7.6327  -25.1699   33.0954 H   0  0  0  0  0  0  0  0  0  0  0  0
   -9.1498  -24.8830   30.8682 H   0  0  0  0  0  0  0  0  0  0  0  0
  1  2  1  0
  2  3  1  0
  3  4  1  0
  4  5  1  0
  5  6  2  3
  6  7  1  0
  7  8  1  0
  8  9  1  0
  9 10  1  0
 10 11  1  0
 11 12  1  0
 11 13  2  0
 10 14  1  0
 14 15  1  0
  4 16  1  0
 16 17  2  0
 17 18  1  0
 18 19  2  0
 19 20  1  0
 20 21  1  0
 21 22  1  0
 22 23  2  0
 23 24  1  0
 15  7  1  0
 24 16  1  0
 24 20  2  0
  1 25  1  0
  1 26  1  0
  1 27  1  0
  2 28  1  0
  2 29  1  0
  3 30  1  0
  4 31  1  0
  5 32  1  0
  6 33  1  0
  8 34  1  0
  8 35  1  0
  9 36  1  0
  9 37  1  0
 12 38  1  0
 12 39  1  0
 12 40  1  0
 14 41  1  0
 14 42  1  0
 15 43  1  0
 15 44  1  0
 17 45  1  0
 18 46  1  0
 19 47  1  0
 21 48  1  0
 22 49  1  0
 23 50  1  0
M  END
>  <Energy>  (964) 
150.97653459071753

>  <compound_id>  (964) 
1259

>  <target_id>  (964) 
1

>  <reference_id>  (964) 
88

>  <inspiration_ids>  (964) 
[88, 119]

>  <energy_score>  (964) 
46.402966474760774

>  <distance_score>  (964) 
2.5318135798293

>  <path>  (964) 
/opt/xchem-fragalysis-2/maxwin/BulkDock/SCRATCH/505733/C1259-P88/C1259-P88.minimised.mol

>  <scratch_subdir>  (964) 
/opt/xchem-fragalysis-2/maxwin/BulkDock/SCRATCH/505733/C1259-P88

>  <fragmenstein_runtime>  (964) 
19.068957328796387

>  <fragmenstein_outcome>  (964) 
too moved

>  <fragmenstein_mode>  (964) 
expansion

>  <fragmenstein_error>  (964) 


$$$$
C1259-P119
     RDKit          3D

 50 52  0  0  0  0  0  0  0  0999 V2000
  -13.5133  -23.3497   25.7500 C   0  0  0  0  0  0  0  0  0  0  0  0
  -12.0286  -23.0250   25.9044 C   0  0  0  0  0  0  0  0  0  0  0  0
  -11.6000  -22.4782   27.1900 N   0  0  0  0  0  0  0  0  0  0  0  0
  -11.5708  -23.4292   28.3132 C   0  0  0  0  0  0  0  0  0  0  0  0
  -10.6331  -24.5408   27.8972 C   0  0  0  0  0  0  0  0  0  0  0  0
  -10.8163  -25.8538   27.6992 C   0  0  0  0  0  0  0  0  0  0  0  0
  -11.9050  -26.7008   27.7894 N   0  0  0  0  0  0  0  0  0  0  0  0
  -13.2354  -26.3624   27.2971 C   0  0  0  0  0  0  0  0  0  0  0  0
  -14.2187  -27.5345   27.4654 C   0  0  0  0  0  0  0  0  0  0  0  0
  -14.5213  -27.9643   28.8780 N   0  0  0  0  0  0  0  0  0  0  0  0
  -15.4968  -28.8728   29.3853 C   0  0  0  0  0  0  0  0  0  0  0  0
  -15.5415  -28.7665   30.8959 C   0  0  0  0  0  0  0  0  0  0  0  0
  -16.2662  -29.5944   28.8100 O   0  0  0  0  0  0  0  0  0  0  0  0
  -13.1768  -28.6725   28.7167 C   0  0  0  0  0  0  0  0  0  0  0  0
  -11.8795  -27.8157   28.7462 C   0  0  0  0  0  0  0  0  0  0  0  0
  -11.1417  -22.7644   29.6432 C   0  0  0  0  0  0  0  0  0  0  0  0
  -11.4659  -21.4193   29.9464 C   0  0  0  0  0  0  0  0  0  0  0  0
  -11.2119  -20.8289   31.1909 C   0  0  0  0  0  0  0  0  0  0  0  0
  -10.5637  -21.5251   32.2013 C   0  0  0  0  0  0  0  0  0  0  0  0
  -10.1704  -22.8229   31.8983 C   0  0  0  0  0  0  0  0  0  0  0  0
   -9.4318  -23.7031   32.6463 N   0  0  0  0  0  0  0  0  0  0  0  0
   -9.4096  -24.9167   32.0359 C   0  0  0  0  0  0  0  0  0  0  0  0
  -10.0593  -24.8014   30.8464 C   0  0  0  0  0  0  0  0  0  0  0  0
  -10.4850  -23.4607   30.6926 C   0  0  0  0  0  0  0  0  0  0  0  0
  -13.6787  -24.0683   24.9442 H   0  0  0  0  0  0  0  0  0  0  0  0
  -13.9498  -23.7775   26.6501 H   0  0  0  0  0  0  0  0  0  0  0  0
  -14.0978  -22.4693   25.4804 H   0  0  0  0  0  0  0  0  0  0  0  0
  -11.4241  -23.9014   25.6736 H   0  0  0  0  0  0  0  0  0  0  0  0
  -11.7753  -22.3015   25.1218 H   0  0  0  0  0  0  0  0  0  0  0  0
  -12.1918  -21.6780   27.3888 H   0  0  0  0  0  0  0  0  0  0  0  0
  -12.5761  -23.8122   28.4934 H   0  0  0  0  0  0  0  0  0  0  0  0
   -9.6134  -24.1760   27.7911 H   0  0  0  0  0  0  0  0  0  0  0  0
   -9.9172  -26.4280   27.4756 H   0  0  0  0  0  0  0  0  0  0  0  0
  -13.1771  -26.1074   26.2339 H   0  0  0  0  0  0  0  0  0  0  0  0
  -13.6358  -25.5014   27.8305 H   0  0  0  0  0  0  0  0  0  0  0  0
  -14.1279  -28.3464   26.7265 H   0  0  0  0  0  0  0  0  0  0  0  0
  -15.1901  -27.1144   27.1573 H   0  0  0  0  0  0  0  0  0  0  0  0
  -14.5559  -28.5584   31.3192 H   0  0  0  0  0  0  0  0  0  0  0  0
  -16.2337  -27.9687   31.1786 H   0  0  0  0  0  0  0  0  0  0  0  0
  -15.8902  -29.7160   31.3128 H   0  0  0  0  0  0  0  0  0  0  0  0
  -13.1844  -29.4730   27.9575 H   0  0  0  0  0  0  0  0  0  0  0  0
  -13.0891  -29.2847   29.6295 H   0  0  0  0  0  0  0  0  0  0  0  0
  -11.0188  -28.4677   28.5536 H   0  0  0  0  0  0  0  0  0  0  0  0
  -11.7037  -27.4333   29.7518 H   0  0  0  0  0  0  0  0  0  0  0  0
  -11.9079  -20.7826   29.1901 H   0  0  0  0  0  0  0  0  0  0  0  0
  -11.4746  -19.7888   31.3518 H   0  0  0  0  0  0  0  0  0  0  0  0
  -10.3402  -21.0608   33.1527 H   0  0  0  0  0  0  0  0  0  0  0  0
   -9.0071  -23.5115   33.5419 H   0  0  0  0  0  0  0  0  0  0  0  0
   -8.9384  -25.7660   32.4953 H   0  0  0  0  0  0  0  0  0  0  0  0
  -10.2058  -25.6187   30.1694 H   0  0  0  0  0  0  0  0  0  0  0  0
  1  2  1  0
  2  3  1  0
  3  4  1  0
  4  5  1  0
  5  6  2  3
  6  7  1  0
  7  8  1  0
  8  9  1  0
  9 10  1  0
 10 11  1  0
 11 12  1  0
 11 13  2  0
 10 14  1  0
 14 15  1  0
  4 16  1  0
 16 17  2  0
 17 18  1  0
 18 19  2  0
 19 20  1  0
 20 21  1  0
 21 22  1  0
 22 23  2  0
 23 24  1  0
 15  7  1  0
 24 16  1  0
 24 20  2  0
  1 25  1  0
  1 26  1  0
  1 27  1  0
  2 28  1  0
  2 29  1  0
  3 30  1  0
  4 31  1  0
  5 32  1  0
  6 33  1  0
  8 34  1  0
  8 35  1  0
  9 36  1  0
  9 37  1  0
 12 38  1  0
 12 39  1  0
 12 40  1  0
 14 41  1  0
 14 42  1  0
 15 43  1  0
 15 44  1  0
 17 45  1  0
 18 46  1  0
 19 47  1  0
 21 48  1  0
 22 49  1  0
 23 50  1  0
M  END
>  <Energy>  (965) 
152.73983630380906

>  <compound_id>  (965) 
1259

>  <target_id>  (965) 
1

>  <reference_id>  (965) 
119

>  <inspiration_ids>  (965) 
[88, 119]

>  <energy_score>  (965) 
48.166268187853916

>  <distance_score>  (965) 
2.688356166205472

>  <path>  (965) 
/opt/xchem-fragalysis-2/maxwin/BulkDock/SCRATCH/505733/C1259-P119/C1259-P119.minimised.mol

>  <scratch_subdir>  (965) 
/opt/xchem-fragalysis-2/maxwin/BulkDock/SCRATCH/505733/C1259-P119

>  <fragmenstein_runtime>  (965) 
16.244450092315674

>  <fragmenstein_outcome>  (965) 
too moved

>  <fragmenstein_mode>  (965) 
expansion

>  <fragmenstein_error>  (965) 


$$$$
C1260-P88
     RDKit          3D

 40 42  0  0  0  0  0  0  0  0999 V2000
  -14.2207  -24.7527   28.6896 C   0  0  0  0  0  0  0  0  0  0  0  0
  -13.2100  -23.7737   29.3021 C   0  0  0  0  0  0  0  0  0  0  0  0
  -12.3332  -24.5033   30.1719 N   0  0  0  0  0  0  0  0  0  0  0  0
  -10.9738  -24.0246   30.4062 C   0  0  0  0  0  0  0  0  0  0  0  0
  -10.1187  -23.7993   29.2245 C   0  0  0  0  0  0  0  0  0  0  0  0
   -9.4539  -24.9013   28.8465 N   0  0  0  0  0  0  0  0  0  0  0  0
  -10.1349  -25.2349   27.6827 O   0  0  0  0  0  0  0  0  0  0  0  0
  -10.8157  -24.1026   27.3399 C   0  0  0  0  0  0  0  0  0  0  0  0
  -11.8829  -24.2434   26.3288 C   0  0  0  0  0  0  0  0  0  0  0  0
  -11.7679  -23.0908   25.3470 C   0  0  0  0  0  0  0  0  0  0  0  0
  -12.0253  -25.6340   25.8648 N   0  0  0  0  0  0  0  0  0  0  0  0
  -10.5888  -23.0956   28.1548 N   0  0  0  0  0  0  0  0  0  0  0  0
  -10.8066  -22.9569   31.4127 C   0  0  0  0  0  0  0  0  0  0  0  0
  -11.4005  -21.6898   31.3400 C   0  0  0  0  0  0  0  0  0  0  0  0
  -11.4361  -20.8546   32.4534 C   0  0  0  0  0  0  0  0  0  0  0  0
  -10.8941  -21.2520   33.6703 C   0  0  0  0  0  0  0  0  0  0  0  0
  -10.2374  -22.4727   33.6930 C   0  0  0  0  0  0  0  0  0  0  0  0
   -9.6481  -23.1326   34.7296 N   0  0  0  0  0  0  0  0  0  0  0  0
   -9.2157  -24.3602   34.3263 C   0  0  0  0  0  0  0  0  0  0  0  0
   -9.4331  -24.4695   32.9891 C   0  0  0  0  0  0  0  0  0  0  0  0
  -10.1472  -23.3107   32.5975 C   0  0  0  0  0  0  0  0  0  0  0  0
  -14.9063  -25.1901   29.4195 H   0  0  0  0  0  0  0  0  0  0  0  0
  -14.8329  -24.2530   27.9330 H   0  0  0  0  0  0  0  0  0  0  0  0
  -13.7162  -25.5955   28.2087 H   0  0  0  0  0  0  0  0  0  0  0  0
  -12.7167  -23.2053   28.5361 H   0  0  0  0  0  0  0  0  0  0  0  0
  -13.6990  -22.9986   29.8885 H   0  0  0  0  0  0  0  0  0  0  0  0
  -12.7137  -24.3260   31.1005 H   0  0  0  0  0  0  0  0  0  0  0  0
  -10.5663  -24.9373   30.8564 H   0  0  0  0  0  0  0  0  0  0  0  0
  -12.8496  -24.0464   26.7759 H   0  0  0  0  0  0  0  0  0  0  0  0
  -11.7506  -22.1423   25.8893 H   0  0  0  0  0  0  0  0  0  0  0  0
  -12.6357  -23.0194   24.6819 H   0  0  0  0  0  0  0  0  0  0  0  0
  -10.8408  -23.1261   24.7669 H   0  0  0  0  0  0  0  0  0  0  0  0
  -12.3077  -26.2121   26.6576 H   0  0  0  0  0  0  0  0  0  0  0  0
  -11.1097  -26.0181   25.6170 H   0  0  0  0  0  0  0  0  0  0  0  0
  -11.8894  -21.3670   30.4246 H   0  0  0  0  0  0  0  0  0  0  0  0
  -11.9440  -19.8961   32.3872 H   0  0  0  0  0  0  0  0  0  0  0  0
  -11.0112  -20.6376   34.5559 H   0  0  0  0  0  0  0  0  0  0  0  0
   -9.6676  -22.7804   35.6731 H   0  0  0  0  0  0  0  0  0  0  0  0
   -8.8037  -25.0905   34.9926 H   0  0  0  0  0  0  0  0  0  0  0  0
   -9.1654  -25.3271   32.3902 H   0  0  0  0  0  0  0  0  0  0  0  0
  1  2  1  0
  2  3  1  0
  3  4  1  0
  4  5  1  0
  5  6  2  0
  6  7  1  0
  7  8  1  0
  8  9  1  0
  9 10  1  0
  9 11  1  0
  8 12  2  0
  4 13  1  0
 13 14  2  0
 14 15  1  0
 15 16  2  0
 16 17  1  0
 17 18  1  0
 18 19  1  0
 19 20  2  0
 20 21  1  0
 12  5  1  0
 21 13  1  0
 21 17  2  0
  1 22  1  0
  1 23  1  0
  1 24  1  0
  2 25  1  0
  2 26  1  0
  3 27  1  0
  4 28  1  0
  9 29  1  0
 10 30  1  0
 10 31  1  0
 10 32  1  0
 11 33  1  0
 11 34  1  0
 14 35  1  0
 15 36  1  0
 16 37  1  0
 18 38  1  0
 19 39  1  0
 20 40  1  0
M  END
>  <Energy>  (966) 
155.54313590784147

>  <compound_id>  (966) 
1260

>  <target_id>  (966) 
1

>  <reference_id>  (966) 
88

>  <inspiration_ids>  (966) 
[88, 123]

>  <energy_score>  (966) 
12.470370964156643

>  <distance_score>  (966) 
1.9076161324413916

>  <path>  (966) 
/opt/xchem-fragalysis-2/maxwin/BulkDock/SCRATCH/505733/C1260-P88/C1260-P88.minimised.mol

>  <scratch_subdir>  (966) 
/opt/xchem-fragalysis-2/maxwin/BulkDock/SCRATCH/505733/C1260-P88

>  <fragmenstein_runtime>  (966) 
5.5789008140563965

>  <fragmenstein_outcome>  (966) 
too moved

>  <fragmenstein_mode>  (966) 
expansion

>  <fragmenstein_error>  (966) 


$$$$
C1260-P123
     RDKit          3D

 40 42  0  0  0  0  0  0  0  0999 V2000
  -12.1177  -23.3653   26.6003 C   0  0  0  0  0  0  0  0  0  0  0  0
  -11.4469  -22.5197   27.6584 C   0  0  0  0  0  0  0  0  0  0  0  0
  -12.0938  -22.2203   28.9268 N   0  0  0  0  0  0  0  0  0  0  0  0
  -12.2591  -23.3486   29.8634 C   0  0  0  0  0  0  0  0  0  0  0  0
  -11.7715  -24.6531   29.3607 C   0  0  0  0  0  0  0  0  0  0  0  0
  -10.4863  -25.0171   29.2122 N   0  0  0  0  0  0  0  0  0  0  0  0
  -10.5559  -26.0561   28.2842 O   0  0  0  0  0  0  0  0  0  0  0  0
  -11.8690  -26.1683   27.9339 C   0  0  0  0  0  0  0  0  0  0  0  0
  -12.2355  -26.9596   26.7278 C   0  0  0  0  0  0  0  0  0  0  0  0
  -13.4882  -26.3962   26.0445 C   0  0  0  0  0  0  0  0  0  0  0  0
  -11.1831  -27.0139   25.7021 N   0  0  0  0  0  0  0  0  0  0  0  0
  -12.6580  -25.4058   28.6365 N   0  0  0  0  0  0  0  0  0  0  0  0
  -11.8565  -23.0844   31.2838 C   0  0  0  0  0  0  0  0  0  0  0  0
  -12.0122  -21.7955   31.8068 C   0  0  0  0  0  0  0  0  0  0  0  0
  -12.3809  -21.5147   33.1143 C   0  0  0  0  0  0  0  0  0  0  0  0
  -12.5623  -22.5429   33.9894 C   0  0  0  0  0  0  0  0  0  0  0  0
  -12.0038  -23.7222   33.5505 C   0  0  0  0  0  0  0  0  0  0  0  0
  -11.7314  -24.8044   34.2925 N   0  0  0  0  0  0  0  0  0  0  0  0
  -10.8748  -25.6038   33.6359 C   0  0  0  0  0  0  0  0  0  0  0  0
  -10.8800  -25.2492   32.3234 C   0  0  0  0  0  0  0  0  0  0  0  0
  -11.5566  -24.0112   32.2675 C   0  0  0  0  0  0  0  0  0  0  0  0
  -13.0880  -23.7311   26.9209 H   0  0  0  0  0  0  0  0  0  0  0  0
  -11.4613  -24.1915   26.3307 H   0  0  0  0  0  0  0  0  0  0  0  0
  -12.2594  -22.8263   25.6618 H   0  0  0  0  0  0  0  0  0  0  0  0
  -11.3270  -21.5613   27.1800 H   0  0  0  0  0  0  0  0  0  0  0  0
  -10.4444  -22.9001   27.8656 H   0  0  0  0  0  0  0  0  0  0  0  0
  -11.4617  -21.5496   29.3546 H   0  0  0  0  0  0  0  0  0  0  0  0
  -13.3477  -23.4481   29.9150 H   0  0  0  0  0  0  0  0  0  0  0  0
  -12.4490  -27.9814   27.0600 H   0  0  0  0  0  0  0  0  0  0  0  0
  -13.3156  -25.4404   25.5466 H   0  0  0  0  0  0  0  0  0  0  0  0
  -14.3079  -26.2604   26.7594 H   0  0  0  0  0  0  0  0  0  0  0  0
  -13.8509  -27.0858   25.2740 H   0  0  0  0  0  0  0  0  0  0  0  0
  -11.0224  -26.0593   25.3769 H   0  0  0  0  0  0  0  0  0  0  0  0
  -10.3115  -27.3004   26.1558 H   0  0  0  0  0  0  0  0  0  0  0  0
  -11.8820  -20.9856   31.1262 H   0  0  0  0  0  0  0  0  0  0  0  0
  -12.5148  -20.5065   33.4798 H   0  0  0  0  0  0  0  0  0  0  0  0
  -12.8611  -22.3848   35.0162 H   0  0  0  0  0  0  0  0  0  0  0  0
  -12.0213  -24.9107   35.2516 H   0  0  0  0  0  0  0  0  0  0  0  0
  -10.5018  -26.4480   34.1570 H   0  0  0  0  0  0  0  0  0  0  0  0
  -10.3698  -25.7963   31.5454 H   0  0  0  0  0  0  0  0  0  0  0  0
  1  2  1  0
  2  3  1  0
  3  4  1  0
  4  5  1  0
  5  6  2  0
  6  7  1  0
  7  8  1  0
  8  9  1  0
  9 10  1  0
  9 11  1  0
  8 12  2  0
  4 13  1  0
 13 14  2  0
 14 15  1  0
 15 16  2  0
 16 17  1  0
 17 18  1  0
 18 19  1  0
 19 20  2  0
 20 21  1  0
 12  5  1  0
 21 13  1  0
 21 17  2  0
  1 22  1  0
  1 23  1  0
  1 24  1  0
  2 25  1  0
  2 26  1  0
  3 27  1  0
  4 28  1  0
  9 29  1  0
 10 30  1  0
 10 31  1  0
 10 32  1  0
 11 33  1  0
 11 34  1  0
 14 35  1  0
 15 36  1  0
 16 37  1  0
 18 38  1  0
 19 39  1  0
 20 40  1  0
M  END
>  <Energy>  (967) 
149.52841163812553

>  <compound_id>  (967) 
1260

>  <target_id>  (967) 
1

>  <reference_id>  (967) 
123

>  <inspiration_ids>  (967) 
[88, 123]

>  <energy_score>  (967) 
6.45564669443948

>  <distance_score>  (967) 
1.9732550501859207

>  <path>  (967) 
/opt/xchem-fragalysis-2/maxwin/BulkDock/SCRATCH/505733/C1260-P123/C1260-P123.minimised.mol

>  <scratch_subdir>  (967) 
/opt/xchem-fragalysis-2/maxwin/BulkDock/SCRATCH/505733/C1260-P123

>  <fragmenstein_runtime>  (967) 
6.775401592254639

>  <fragmenstein_outcome>  (967) 
too moved

>  <fragmenstein_mode>  (967) 
expansion

>  <fragmenstein_error>  (967) 


$$$$
C1264-P19
     RDKit          3D

 29 30  0  0  0  0  0  0  0  0999 V2000
  -13.0550  -33.6164   24.2917 C   0  0  0  0  0  0  0  0  0  0  0  0
  -13.2604  -33.5849   22.7734 C   0  0  0  0  0  0  0  0  0  0  0  0
  -12.1528  -33.0450   21.9790 N   0  0  0  0  0  0  0  0  0  0  0  0
  -11.2287  -34.0806   21.5159 C   0  0  0  0  0  0  0  0  0  0  0  0
  -10.4487  -34.6488   22.6776 C   0  0  0  0  0  0  0  0  0  0  0  0
   -9.3934  -33.9063   23.1790 C   0  0  0  0  0  0  0  0  0  0  0  0
   -8.7606  -34.2019   24.3816 C   0  0  0  0  0  0  0  0  0  0  0  0
   -9.1875  -35.1957   25.2109 C   0  0  0  0  0  0  0  0  0  0  0  0
   -8.6629  -35.2210   26.5139 N   0  0  0  0  0  0  0  0  0  0  0  0
  -10.2580  -35.9312   24.7269 C   0  0  0  0  0  0  0  0  0  0  0  0
  -10.9847  -36.9182   25.3228 N   0  0  0  0  0  0  0  0  0  0  0  0
  -12.0445  -37.2887   24.5571 C   0  0  0  0  0  0  0  0  0  0  0  0
  -11.9383  -36.6280   23.3651 C   0  0  0  0  0  0  0  0  0  0  0  0
  -10.8574  -35.7197   23.4805 C   0  0  0  0  0  0  0  0  0  0  0  0
  -13.4341  -34.5529   24.7110 H   0  0  0  0  0  0  0  0  0  0  0  0
  -12.0196  -33.4826   24.6053 H   0  0  0  0  0  0  0  0  0  0  0  0
  -13.6300  -32.8175   24.7716 H   0  0  0  0  0  0  0  0  0  0  0  0
  -13.5721  -34.5677   22.4037 H   0  0  0  0  0  0  0  0  0  0  0  0
  -14.1305  -32.9462   22.5767 H   0  0  0  0  0  0  0  0  0  0  0  0
  -11.6364  -32.3516   22.5112 H   0  0  0  0  0  0  0  0  0  0  0  0
  -11.7593  -34.8741   20.9768 H   0  0  0  0  0  0  0  0  0  0  0  0
  -10.5382  -33.6392   20.7887 H   0  0  0  0  0  0  0  0  0  0  0  0
   -9.1545  -33.0062   22.6285 H   0  0  0  0  0  0  0  0  0  0  0  0
   -7.9835  -33.5745   24.7941 H   0  0  0  0  0  0  0  0  0  0  0  0
   -8.8697  -34.3011   26.9323 H   0  0  0  0  0  0  0  0  0  0  0  0
   -7.6421  -35.1940   26.4702 H   0  0  0  0  0  0  0  0  0  0  0  0
  -10.7458  -37.3567   26.1876 H   0  0  0  0  0  0  0  0  0  0  0  0
  -12.7467  -38.0395   24.8944 H   0  0  0  0  0  0  0  0  0  0  0  0
  -12.6182  -36.7314   22.5297 H   0  0  0  0  0  0  0  0  0  0  0  0
  1  2  1  0
  2  3  1  0
  3  4  1  0
  4  5  1  0
  5  6  2  0
  6  7  1  0
  7  8  2  0
  8  9  1  0
  8 10  1  0
 10 11  1  0
 11 12  1  0
 12 13  2  0
 13 14  1  0
 14  5  1  0
 14 10  2  0
  1 15  1  0
  1 16  1  0
  1 17  1  0
  2 18  1  0
  2 19  1  0
  3 20  1  0
  4 21  1  0
  4 22  1  0
  6 23  1  0
  7 24  1  0
  9 25  1  0
  9 26  1  0
 11 27  1  0
 12 28  1  0
 13 29  1  0
M  END
>  <Energy>  (968) 
20.80346969075989

>  <compound_id>  (968) 
1264

>  <target_id>  (968) 
1

>  <reference_id>  (968) 
19

>  <inspiration_ids>  (968) 
[90, 19]

>  <energy_score>  (968) 
-7.864768482284944

>  <distance_score>  (968) 
2.9686484453870277

>  <path>  (968) 
/opt/xchem-fragalysis-2/maxwin/BulkDock/SCRATCH/505733/C1264-P19/C1264-P19.minimised.mol

>  <scratch_subdir>  (968) 
/opt/xchem-fragalysis-2/maxwin/BulkDock/SCRATCH/505733/C1264-P19

>  <fragmenstein_runtime>  (968) 
1.5772593021392822

>  <fragmenstein_outcome>  (968) 
too moved

>  <fragmenstein_mode>  (968) 
expansion

>  <fragmenstein_error>  (968) 


$$$$
C1265-P45
     RDKit          3D

 29 30  0  0  0  0  0  0  0  0999 V2000
   -9.0471  -31.3411   23.1066 C   0  0  0  0  0  0  0  0  0  0  0  0
   -8.3960  -31.3412   24.4755 C   0  0  0  0  0  0  0  0  0  0  0  0
   -9.2030  -30.9483   25.6514 N   0  0  0  0  0  0  0  0  0  0  0  0
   -9.2222  -29.4766   25.9026 C   0  0  0  0  0  0  0  0  0  0  0  0
  -10.1695  -29.0382   27.0387 C   0  0  0  0  0  0  0  0  0  0  0  0
  -11.0962  -29.9478   27.5975 C   0  0  0  0  0  0  0  0  0  0  0  0
  -11.9045  -29.6366   28.6922 C   0  0  0  0  0  0  0  0  0  0  0  0
  -11.7414  -28.4384   29.3812 C   0  0  0  0  0  0  0  0  0  0  0  0
  -10.8376  -27.5195   28.8416 C   0  0  0  0  0  0  0  0  0  0  0  0
  -10.4001  -26.2882   29.2914 N   0  0  0  0  0  0  0  0  0  0  0  0
   -9.9329  -25.5609   28.2319 C   0  0  0  0  0  0  0  0  0  0  0  0
  -10.0940  -26.3949   27.1478 C   0  0  0  0  0  0  0  0  0  0  0  0
  -10.4927  -25.9409   25.8477 C   0  0  0  0  0  0  0  0  0  0  0  0
  -10.4315  -24.7846   25.4487 O   0  0  0  0  0  0  0  0  0  0  0  0
  -10.1951  -27.7356   27.6199 C   0  0  0  0  0  0  0  0  0  0  0  0
   -8.3133  -31.6593   22.3579 H   0  0  0  0  0  0  0  0  0  0  0  0
   -9.8802  -32.0481   23.0487 H   0  0  0  0  0  0  0  0  0  0  0  0
   -9.3845  -30.3412   22.8320 H   0  0  0  0  0  0  0  0  0  0  0  0
   -7.4760  -30.7486   24.4299 H   0  0  0  0  0  0  0  0  0  0  0  0
   -8.1131  -32.3896   24.6236 H   0  0  0  0  0  0  0  0  0  0  0  0
   -8.6864  -31.3330   26.4529 H   0  0  0  0  0  0  0  0  0  0  0  0
   -8.2095  -29.1535   26.1741 H   0  0  0  0  0  0  0  0  0  0  0  0
   -9.5079  -28.9390   25.0014 H   0  0  0  0  0  0  0  0  0  0  0  0
  -11.1930  -30.9400   27.1656 H   0  0  0  0  0  0  0  0  0  0  0  0
  -12.6112  -30.3765   29.0624 H   0  0  0  0  0  0  0  0  0  0  0  0
  -12.3153  -28.2448   30.2789 H   0  0  0  0  0  0  0  0  0  0  0  0
  -10.6254  -25.8796   30.1838 H   0  0  0  0  0  0  0  0  0  0  0  0
   -9.8092  -24.4873   28.3001 H   0  0  0  0  0  0  0  0  0  0  0  0
  -10.9570  -26.7310   25.2303 H   0  0  0  0  0  0  0  0  0  0  0  0
  1  2  1  0
  2  3  1  0
  3  4  1  0
  4  5  1  0
  5  6  2  0
  6  7  1  0
  7  8  2  0
  8  9  1  0
  9 10  1  0
 10 11  1  0
 11 12  2  0
 12 13  1  0
 13 14  2  0
 12 15  1  0
 15  5  1  0
 15  9  2  0
  1 16  1  0
  1 17  1  0
  1 18  1  0
  2 19  1  0
  2 20  1  0
  3 21  1  0
  4 22  1  0
  4 23  1  0
  6 24  1  0
  7 25  1  0
  8 26  1  0
 10 27  1  0
 11 28  1  0
 13 29  1  0
M  END
>  <Energy>  (969) 
61.656277564018296

>  <compound_id>  (969) 
1265

>  <target_id>  (969) 
1

>  <reference_id>  (969) 
45

>  <inspiration_ids>  (969) 
[90, 45]

>  <energy_score>  (969) 
-7.224420900227074

>  <distance_score>  (969) 
3.735416508478343

>  <path>  (969) 
/opt/xchem-fragalysis-2/maxwin/BulkDock/SCRATCH/505733/C1265-P45/C1265-P45.minimised.mol

>  <scratch_subdir>  (969) 
/opt/xchem-fragalysis-2/maxwin/BulkDock/SCRATCH/505733/C1265-P45

>  <fragmenstein_runtime>  (969) 
31.319809913635254

>  <fragmenstein_outcome>  (969) 
too moved

>  <fragmenstein_mode>  (969) 
expansion

>  <fragmenstein_error>  (969) 


$$$$
C1266-P68
     RDKit          3D

 43 45  0  0  0  0  0  0  0  0999 V2000
  -10.8633  -41.7548   20.4330 C   0  0  0  0  0  0  0  0  0  0  0  0
  -10.7826  -41.8235   21.9506 C   0  0  0  0  0  0  0  0  0  0  0  0
   -9.8051  -40.8744   22.5027 N   0  0  0  0  0  0  0  0  0  0  0  0
  -10.3975  -39.3663   22.6992 C   0  0  0  0  0  0  0  0  0  0  0  0
   -9.5844  -37.5471   23.3095 C   0  0  0  0  0  0  0  0  0  0  0  0
   -8.1202  -37.0624   23.2929 C   0  0  0  0  0  0  0  0  0  0  0  0
   -7.5180  -35.9170   23.8360 C   0  0  0  0  0  0  0  0  0  0  0  0
   -8.2691  -34.9848   24.4893 C   0  0  0  0  0  0  0  0  0  0  0  0
   -9.6266  -35.1405   24.4008 C   0  0  0  0  0  0  0  0  0  0  0  0
  -10.5721  -34.2314   24.8391 N   0  0  0  0  0  0  0  0  0  0  0  0
  -11.8214  -34.6610   24.5220 C   0  0  0  0  0  0  0  0  0  0  0  0
  -11.6251  -35.8591   23.9093 C   0  0  0  0  0  0  0  0  0  0  0  0
  -12.5346  -36.6841   23.4229 N   0  0  0  0  0  0  0  0  0  0  0  0
  -11.8535  -37.9103   23.0852 C   0  0  0  0  0  0  0  0  0  0  0  0
  -10.7530  -37.5855   21.4836 C   0  0  0  0  0  0  0  0  0  0  0  0
   -9.0206  -38.5046   21.4064 C   0  0  0  0  0  0  0  0  0  0  0  0
   -8.2764  -39.3723   23.0223 C   0  0  0  0  0  0  0  0  0  0  0  0
   -7.1842  -39.9537   23.0411 O   0  0  0  0  0  0  0  0  0  0  0  0
   -9.2427  -39.3504   24.4539 N   0  0  0  0  0  0  0  0  0  0  0  0
  -10.9283  -38.6169   24.6977 C   0  0  0  0  0  0  0  0  0  0  0  0
  -10.2532  -36.2541   23.8342 C   0  0  0  0  0  0  0  0  0  0  0  0
   -9.8756  -41.8908   19.9796 H   0  0  0  0  0  0  0  0  0  0  0  0
  -11.2726  -40.8022   20.0847 H   0  0  0  0  0  0  0  0  0  0  0  0
  -11.5146  -42.5511   20.0580 H   0  0  0  0  0  0  0  0  0  0  0  0
  -11.7736  -41.6970   22.3999 H   0  0  0  0  0  0  0  0  0  0  0  0
  -10.4473  -42.8322   22.2198 H   0  0  0  0  0  0  0  0  0  0  0  0
   -9.6081  -41.1778   23.4693 H   0  0  0  0  0  0  0  0  0  0  0  0
  -10.9279  -39.4029   21.7355 H   0  0  0  0  0  0  0  0  0  0  0  0
  -11.2154  -39.7975   23.2960 H   0  0  0  0  0  0  0  0  0  0  0  0
   -7.2979  -37.6023   22.8082 H   0  0  0  0  0  0  0  0  0  0  0  0
   -6.4395  -35.7956   23.7583 H   0  0  0  0  0  0  0  0  0  0  0  0
   -7.8258  -34.1199   24.9633 H   0  0  0  0  0  0  0  0  0  0  0  0
  -10.3314  -33.3613   25.3023 H   0  0  0  0  0  0  0  0  0  0  0  0
  -12.7064  -34.0838   24.7456 H   0  0  0  0  0  0  0  0  0  0  0  0
  -13.4561  -36.7499   23.8430 H   0  0  0  0  0  0  0  0  0  0  0  0
  -12.6407  -38.6286   22.7925 H   0  0  0  0  0  0  0  0  0  0  0  0
  -11.3424  -37.9057   20.6085 H   0  0  0  0  0  0  0  0  0  0  0  0
  -10.5735  -36.5084   21.3439 H   0  0  0  0  0  0  0  0  0  0  0  0
   -8.3061  -37.7828   20.9852 H   0  0  0  0  0  0  0  0  0  0  0  0
   -9.1168  -39.2848   20.6336 H   0  0  0  0  0  0  0  0  0  0  0  0
   -8.7762  -39.6993   25.2871 H   0  0  0  0  0  0  0  0  0  0  0  0
  -11.5374  -39.4350   25.1154 H   0  0  0  0  0  0  0  0  0  0  0  0
  -10.8210  -37.8755   25.5007 H   0  0  0  0  0  0  0  0  0  0  0  0
  1  2  1  0
  2  3  1  0
  3  4  1  0
  4  5  1  0
  5  6  2  0
  6  7  1  0
  7  8  2  0
  8  9  1  0
  9 10  1  0
 10 11  1  0
 11 12  2  0
 12 13  1  0
 13 14  1  0
 14 15  1  0
 15 16  1  0
 16 17  1  0
 17 18  2  0
 17 19  1  0
 19 20  1  0
 12 21  1  0
 21  5  1  0
 21  9  2  0
 20 14  1  0
  1 22  1  0
  1 23  1  0
  1 24  1  0
  2 25  1  0
  2 26  1  0
  3 27  1  0
  4 28  1  0
  4 29  1  0
  6 30  1  0
  7 31  1  0
  8 32  1  0
 10 33  1  0
 11 34  1  0
 13 35  1  0
 14 36  1  0
 15 37  1  0
 15 38  1  0
 16 39  1  0
 16 40  1  0
 19 41  1  0
 20 42  1  0
 20 43  1  0
M  END
>  <Energy>  (970) 
827.88698306817184

>  <compound_id>  (970) 
1266

>  <target_id>  (970) 
1

>  <reference_id>  (970) 
68

>  <inspiration_ids>  (970) 
[90, 68]

>  <energy_score>  (970) 
787.1949331802007

>  <distance_score>  (970) 
2.611265209641265

>  <path>  (970) 
/opt/xchem-fragalysis-2/maxwin/BulkDock/SCRATCH/505733/C1266-P68/C1266-P68.minimised.mol

>  <scratch_subdir>  (970) 
/opt/xchem-fragalysis-2/maxwin/BulkDock/SCRATCH/505733/C1266-P68

>  <fragmenstein_runtime>  (970) 
6.7512147426605225

>  <fragmenstein_outcome>  (970) 
too moved

>  <fragmenstein_mode>  (970) 
expansion

>  <fragmenstein_error>  (970) 


$$$$
C76-P17
     RDKit          3D

 27 28  0  0  0  0  0  0  0  0999 V2000
  -10.0617   -3.1439    6.4137 C   0  0  0  0  0  0  0  0  0  0  0  0
   -8.9233   -3.3034    7.4165 C   0  0  0  0  0  0  0  0  0  0  0  0
   -7.7053   -3.8033    6.7956 N   0  0  0  0  0  0  0  0  0  0  0  0
   -7.0639   -2.8370    5.9202 C   0  0  0  0  0  0  0  0  0  0  0  0
   -6.2456   -1.8042    6.6468 C   0  0  0  0  0  0  0  0  0  0  0  0
   -4.8944   -2.0787    6.9477 C   0  0  0  0  0  0  0  0  0  0  0  0
   -4.0813   -1.1297    7.5547 C   0  0  0  0  0  0  0  0  0  0  0  0
   -4.5783    0.1329    7.8727 C   0  0  0  0  0  0  0  0  0  0  0  0
   -5.9245    0.3993    7.5984 C   0  0  0  0  0  0  0  0  0  0  0  0
   -6.6708    1.5413    7.7916 N   0  0  0  0  0  0  0  0  0  0  0  0
   -7.9713    1.3358    7.4306 C   0  0  0  0  0  0  0  0  0  0  0  0
   -8.0571    0.0633    6.9220 C   0  0  0  0  0  0  0  0  0  0  0  0
   -6.7700   -0.5435    7.0180 C   0  0  0  0  0  0  0  0  0  0  0  0
   -9.8746   -2.3474    5.6893 H   0  0  0  0  0  0  0  0  0  0  0  0
  -10.2248   -4.0701    5.8527 H   0  0  0  0  0  0  0  0  0  0  0  0
  -10.9934   -2.8922    6.9287 H   0  0  0  0  0  0  0  0  0  0  0  0
   -9.1938   -4.0444    8.1679 H   0  0  0  0  0  0  0  0  0  0  0  0
   -8.7593   -2.3794    7.9762 H   0  0  0  0  0  0  0  0  0  0  0  0
   -7.0473   -4.0761    7.5190 H   0  0  0  0  0  0  0  0  0  0  0  0
   -6.3913   -3.3953    5.2557 H   0  0  0  0  0  0  0  0  0  0  0  0
   -7.7661   -2.3532    5.2332 H   0  0  0  0  0  0  0  0  0  0  0  0
   -4.4732   -3.0484    6.6915 H   0  0  0  0  0  0  0  0  0  0  0  0
   -3.0458   -1.3675    7.7837 H   0  0  0  0  0  0  0  0  0  0  0  0
   -3.9291    0.8691    8.3311 H   0  0  0  0  0  0  0  0  0  0  0  0
   -6.3180    2.4117    8.1593 H   0  0  0  0  0  0  0  0  0  0  0  0
   -8.7138    2.1145    7.5402 H   0  0  0  0  0  0  0  0  0  0  0  0
   -8.9561   -0.3802    6.5182 H   0  0  0  0  0  0  0  0  0  0  0  0
  1  2  1  0
  2  3  1  0
  3  4  1  0
  4  5  1  0
  5  6  2  0
  6  7  1  0
  7  8  2  0
  8  9  1  0
  9 10  1  0
 10 11  1  0
 11 12  2  0
 12 13  1  0
 13  5  1  0
 13  9  2  0
  1 14  1  0
  1 15  1  0
  1 16  1  0
  2 17  1  0
  2 18  1  0
  3 19  1  0
  4 20  1  0
  4 21  1  0
  6 22  1  0
  7 23  1  0
  8 24  1  0
 10 25  1  0
 11 26  1  0
 12 27  1  0
M  END
>  <Energy>  (971) 
15.253607721158778

>  <compound_id>  (971) 
76

>  <target_id>  (971) 
1

>  <reference_id>  (971) 
17

>  <inspiration_ids>  (971) 
[91, 17]

>  <energy_score>  (971) 
-11.54122017476277

>  <distance_score>  (971) 
1.01421158330827

>  <path>  (971) 
/opt/xchem-fragalysis-2/maxwin/BulkDock/SCRATCH/505733/C76-P17/C76-P17.minimised.mol

>  <scratch_subdir>  (971) 
/opt/xchem-fragalysis-2/maxwin/BulkDock/SCRATCH/505733/C76-P17

>  <fragmenstein_runtime>  (971) 
2.231773614883423

>  <fragmenstein_outcome>  (971) 
too moved

>  <fragmenstein_mode>  (971) 
expansion

>  <fragmenstein_error>  (971) 


$$$$
C1185-P33
     RDKit          3D

 42 43  0  0  0  0  0  0  0  0999 V2000
   -5.7631   -0.4747    3.6692 C   0  0  0  0  0  0  0  0  0  0  0  0
   -4.9820   -1.7658    3.8744 C   0  0  0  0  0  0  0  0  0  0  0  0
   -5.7049   -2.7662    4.6607 N   0  0  0  0  0  0  0  0  0  0  0  0
   -5.2505   -2.8770    6.0555 C   0  0  0  0  0  0  0  0  0  0  0  0
   -5.4990   -1.6388    6.8671 C   0  0  0  0  0  0  0  0  0  0  0  0
   -4.4487   -0.8533    7.3714 C   0  0  0  0  0  0  0  0  0  0  0  0
   -3.1117   -1.2935    7.3450 N   0  0  0  0  0  0  0  0  0  0  0  0
   -4.7208    0.4716    7.7207 C   0  0  0  0  0  0  0  0  0  0  0  0
   -3.6982    1.2868    8.0146 F   0  0  0  0  0  0  0  0  0  0  0  0
   -6.0087    0.9856    7.8022 C   0  0  0  0  0  0  0  0  0  0  0  0
   -7.0540    0.0952    7.5912 C   0  0  0  0  0  0  0  0  0  0  0  0
   -6.8243   -1.2005    7.1230 C   0  0  0  0  0  0  0  0  0  0  0  0
   -8.0993   -1.8112    6.9766 C   0  0  0  0  0  0  0  0  0  0  0  0
   -9.0519   -0.9225    7.4121 C   0  0  0  0  0  0  0  0  0  0  0  0
   -8.4161    0.2377    7.7618 N   0  0  0  0  0  0  0  0  0  0  0  0
   -9.0763    1.3896    8.3574 C   0  0  0  0  0  0  0  0  0  0  0  0
   -9.2838    2.5111    7.3461 C   0  0  0  0  0  0  0  0  0  0  0  0
   -9.9666    2.3966    6.3932 O   0  0  0  0  0  0  0  0  0  0  0  0
   -8.4469    3.6911    7.8221 N   0  0  0  0  0  0  0  0  0  0  0  0
   -8.1651    5.0077    7.1742 C   0  0  0  0  0  0  0  0  0  0  0  0
   -9.2442    4.5965    8.7249 C   0  0  0  0  0  0  0  0  0  0  0  0
   -6.7501   -0.6725    3.2377 H   0  0  0  0  0  0  0  0  0  0  0  0
   -5.8999    0.0766    4.6017 H   0  0  0  0  0  0  0  0  0  0  0  0
   -5.2235    0.1795    2.9763 H   0  0  0  0  0  0  0  0  0  0  0  0
   -4.8178   -2.1999    2.8827 H   0  0  0  0  0  0  0  0  0  0  0  0
   -3.9889   -1.5491    4.2841 H   0  0  0  0  0  0  0  0  0  0  0  0
   -6.7026   -2.5589    4.6529 H   0  0  0  0  0  0  0  0  0  0  0  0
   -5.8155   -3.6896    6.5233 H   0  0  0  0  0  0  0  0  0  0  0  0
   -4.2035   -3.1819    6.0703 H   0  0  0  0  0  0  0  0  0  0  0  0
   -3.0108   -2.2898    7.5083 H   0  0  0  0  0  0  0  0  0  0  0  0
   -2.5408   -0.7623    8.0000 H   0  0  0  0  0  0  0  0  0  0  0  0
   -6.1774    2.0187    8.0728 H   0  0  0  0  0  0  0  0  0  0  0  0
   -8.3021   -2.8184    6.6349 H   0  0  0  0  0  0  0  0  0  0  0  0
  -10.1256   -1.0284    7.5004 H   0  0  0  0  0  0  0  0  0  0  0  0
  -10.0550    1.0761    8.7370 H   0  0  0  0  0  0  0  0  0  0  0  0
   -8.4776    1.7057    9.2177 H   0  0  0  0  0  0  0  0  0  0  0  0
   -7.5212    5.6864    7.7527 H   0  0  0  0  0  0  0  0  0  0  0  0
   -9.0257    5.4838    6.6784 H   0  0  0  0  0  0  0  0  0  0  0  0
   -7.5330    4.7254    6.3190 H   0  0  0  0  0  0  0  0  0  0  0  0
   -9.6574    3.9251    9.4931 H   0  0  0  0  0  0  0  0  0  0  0  0
   -8.6569    5.3159    9.3160 H   0  0  0  0  0  0  0  0  0  0  0  0
  -10.1519    5.0166    8.2627 H   0  0  0  0  0  0  0  0  0  0  0  0
  1  2  1  0
  2  3  1  0
  3  4  1  0
  4  5  1  0
  5  6  2  0
  6  7  1  0
  6  8  1  0
  8  9  1  0
  8 10  2  0
 10 11  1  0
 11 12  2  0
 12 13  1  0
 13 14  2  0
 14 15  1  0
 15 16  1  0
 16 17  1  0
 17 18  2  0
 17 19  1  0
 19 20  1  0
 19 21  1  0
 12  5  1  0
 15 11  1  0
  1 22  1  0
  1 23  1  0
  1 24  1  0
  2 25  1  0
  2 26  1  0
  3 27  1  0
  4 28  1  0
  4 29  1  0
  7 30  1  0
  7 31  1  0
 10 32  1  0
 13 33  1  0
 14 34  1  0
 16 35  1  0
 16 36  1  0
 20 37  1  0
 20 38  1  0
 20 39  1  0
 21 40  1  0
 21 41  1  0
 21 42  1  0
M  END
>  <Energy>  (972) 
126.68027580588671

>  <compound_id>  (972) 
1185

>  <target_id>  (972) 
1

>  <reference_id>  (972) 
33

>  <inspiration_ids>  (972) 
[91, 33]

>  <energy_score>  (972) 
46.70809901364012

>  <distance_score>  (972) 
3.4192294004707637

>  <path>  (972) 
/opt/xchem-fragalysis-2/maxwin/BulkDock/SCRATCH/505733/C1185-P33/C1185-P33.minimised.mol

>  <scratch_subdir>  (972) 
/opt/xchem-fragalysis-2/maxwin/BulkDock/SCRATCH/505733/C1185-P33

>  <fragmenstein_runtime>  (972) 
5.224216938018799

>  <fragmenstein_outcome>  (972) 
too moved

>  <fragmenstein_mode>  (972) 
expansion

>  <fragmenstein_error>  (972) 


$$$$
C1269-P51
     RDKit          3D

 36 37  0  0  0  0  0  0  0  0999 V2000
   -7.2425   -3.5874    3.6067 C   0  0  0  0  0  0  0  0  0  0  0  0
   -7.2421   -3.3070    5.1073 C   0  0  0  0  0  0  0  0  0  0  0  0
   -5.9075   -3.0520    5.6497 N   0  0  0  0  0  0  0  0  0  0  0  0
   -5.7788   -2.9223    7.0872 C   0  0  0  0  0  0  0  0  0  0  0  0
   -6.3839   -1.6984    7.7923 C   0  0  0  0  0  0  0  0  0  0  0  0
   -7.8830   -1.6443    7.6511 C   0  0  0  0  0  0  0  0  0  0  0  0
   -8.5450   -0.6054    7.1541 C   0  0  0  0  0  0  0  0  0  0  0  0
   -9.8535   -0.8640    6.8425 N   0  0  0  0  0  0  0  0  0  0  0  0
  -10.0783   -2.3057    6.9973 C   0  0  0  0  0  0  0  0  0  0  0  0
   -8.8590   -2.7675    7.8392 C   0  0  0  0  0  0  0  0  0  0  0  0
   -7.6881    0.4918    6.7147 C   0  0  0  0  0  0  0  0  0  0  0  0
   -7.8127    0.9820    5.6034 O   0  0  0  0  0  0  0  0  0  0  0  0
   -6.5533    0.8007    7.6711 C   0  0  0  0  0  0  0  0  0  0  0  0
   -5.8588    2.0178    7.4594 O   0  0  0  0  0  0  0  0  0  0  0  0
   -6.7360    3.1329    7.5856 C   0  0  0  0  0  0  0  0  0  0  0  0
   -7.7235    2.8475    8.4656 F   0  0  0  0  0  0  0  0  0  0  0  0
   -5.6322   -0.3889    7.4605 C   0  0  0  0  0  0  0  0  0  0  0  0
   -4.5700   -0.2544    8.3128 F   0  0  0  0  0  0  0  0  0  0  0  0
   -6.9614   -2.7033    3.0274 H   0  0  0  0  0  0  0  0  0  0  0  0
   -8.2540   -3.8477    3.2794 H   0  0  0  0  0  0  0  0  0  0  0  0
   -6.5693   -4.4110    3.3490 H   0  0  0  0  0  0  0  0  0  0  0  0
   -7.6882   -4.1671    5.6098 H   0  0  0  0  0  0  0  0  0  0  0  0
   -7.8744   -2.4318    5.2324 H   0  0  0  0  0  0  0  0  0  0  0  0
   -5.2970   -3.7992    5.3299 H   0  0  0  0  0  0  0  0  0  0  0  0
   -4.7083   -2.9497    7.3206 H   0  0  0  0  0  0  0  0  0  0  0  0
   -6.2176   -3.8272    7.5038 H   0  0  0  0  0  0  0  0  0  0  0  0
   -6.2264   -1.8036    8.8584 H   0  0  0  0  0  0  0  0  0  0  0  0
  -10.1245   -0.4665    5.9434 H   0  0  0  0  0  0  0  0  0  0  0  0
  -11.0483   -2.4941    7.4547 H   0  0  0  0  0  0  0  0  0  0  0  0
  -10.0722   -2.7889    6.0134 H   0  0  0  0  0  0  0  0  0  0  0  0
   -8.5152   -3.7536    7.5290 H   0  0  0  0  0  0  0  0  0  0  0  0
   -9.1032   -2.8194    8.8941 H   0  0  0  0  0  0  0  0  0  0  0  0
   -6.9177    0.7931    8.7061 H   0  0  0  0  0  0  0  0  0  0  0  0
   -6.1702    3.9947    7.9483 H   0  0  0  0  0  0  0  0  0  0  0  0
   -7.1798    3.3758    6.6163 H   0  0  0  0  0  0  0  0  0  0  0  0
   -5.2319   -0.3775    6.4477 H   0  0  0  0  0  0  0  0  0  0  0  0
  1  2  1  0
  2  3  1  0
  3  4  1  0
  4  5  1  0
  5  6  1  0
  6  7  2  0
  7  8  1  0
  8  9  1  0
  9 10  1  0
  7 11  1  0
 11 12  2  0
 11 13  1  0
 13 14  1  0
 14 15  1  0
 15 16  1  0
 13 17  1  0
 17 18  1  0
 17  5  1  0
 10  6  1  0
  1 19  1  0
  1 20  1  0
  1 21  1  0
  2 22  1  0
  2 23  1  0
  3 24  1  0
  4 25  1  0
  4 26  1  0
  5 27  1  0
  8 28  1  0
  9 29  1  0
  9 30  1  0
 10 31  1  0
 10 32  1  0
 13 33  1  0
 15 34  1  0
 15 35  1  0
 17 36  1  0
M  END
>  <Energy>  (973) 
102.72440206659272

>  <compound_id>  (973) 
1269

>  <target_id>  (973) 
1

>  <reference_id>  (973) 
51

>  <inspiration_ids>  (973) 
[91, 51]

>  <energy_score>  (973) 
-46.63929768795862

>  <distance_score>  (973) 
1.9786791587585897

>  <path>  (973) 
/opt/xchem-fragalysis-2/maxwin/BulkDock/SCRATCH/505733/C1269-P51/C1269-P51.minimised.mol

>  <scratch_subdir>  (973) 
/opt/xchem-fragalysis-2/maxwin/BulkDock/SCRATCH/505733/C1269-P51

>  <fragmenstein_runtime>  (973) 
3.4834141731262207

>  <fragmenstein_outcome>  (973) 
too moved

>  <fragmenstein_mode>  (973) 
expansion

>  <fragmenstein_error>  (973) 


$$$$
C1270-P65
     RDKit          3D

 25 25  0  0  0  0  0  0  0  0999 V2000
   -9.0820    1.1379    8.8059 C   0  0  0  0  0  0  0  0  0  0  0  0
   -9.4002    0.3772    7.5387 C   0  0  0  0  0  0  0  0  0  0  0  0
   -8.8558   -0.9648    7.5013 N   0  0  0  0  0  0  0  0  0  0  0  0
   -7.5378   -1.2684    7.2111 C   0  0  0  0  0  0  0  0  0  0  0  0
   -7.2300   -2.5889    6.8836 C   0  0  0  0  0  0  0  0  0  0  0  0
   -5.9362   -2.9662    6.5348 C   0  0  0  0  0  0  0  0  0  0  0  0
   -4.9013   -2.0454    6.5754 C   0  0  0  0  0  0  0  0  0  0  0  0
   -5.1747   -0.7160    6.8901 C   0  0  0  0  0  0  0  0  0  0  0  0
   -4.0331    0.2564    6.9118 C   0  0  0  0  0  0  0  0  0  0  0  0
   -4.3647    1.5096    7.5574 N   0  0  0  0  0  0  0  0  0  0  0  0
   -6.5075   -0.3340    7.1314 C   0  0  0  0  0  0  0  0  0  0  0  0
   -9.1438    0.4972    9.6910 H   0  0  0  0  0  0  0  0  0  0  0  0
   -8.0924    1.5909    8.7584 H   0  0  0  0  0  0  0  0  0  0  0  0
   -9.7917    1.9624    8.9340 H   0  0  0  0  0  0  0  0  0  0  0  0
   -9.0925    0.9518    6.6568 H   0  0  0  0  0  0  0  0  0  0  0  0
  -10.4900    0.2804    7.4653 H   0  0  0  0  0  0  0  0  0  0  0  0
   -9.2981   -1.6334    8.1330 H   0  0  0  0  0  0  0  0  0  0  0  0
   -8.0174   -3.3397    6.8719 H   0  0  0  0  0  0  0  0  0  0  0  0
   -5.7571   -3.9918    6.2444 H   0  0  0  0  0  0  0  0  0  0  0  0
   -3.8905   -2.3681    6.3514 H   0  0  0  0  0  0  0  0  0  0  0  0
   -3.1857   -0.1965    7.4384 H   0  0  0  0  0  0  0  0  0  0  0  0
   -3.7421    0.4397    5.8769 H   0  0  0  0  0  0  0  0  0  0  0  0
   -4.7336    1.2419    8.4736 H   0  0  0  0  0  0  0  0  0  0  0  0
   -3.5048    2.0216    7.7516 H   0  0  0  0  0  0  0  0  0  0  0  0
   -6.7223    0.7145    7.3000 H   0  0  0  0  0  0  0  0  0  0  0  0
  1  2  1  0
  2  3  1  0
  3  4  1  0
  4  5  2  0
  5  6  1  0
  6  7  2  0
  7  8  1  0
  8  9  1  0
  9 10  1  0
  8 11  2  0
 11  4  1  0
  1 12  1  0
  1 13  1  0
  1 14  1  0
  2 15  1  0
  2 16  1  0
  3 17  1  0
  5 18  1  0
  6 19  1  0
  7 20  1  0
  9 21  1  0
  9 22  1  0
 10 23  1  0
 10 24  1  0
 11 25  1  0
M  END
>  <Energy>  (974) 
9.4501347652598184

>  <compound_id>  (974) 
1270

>  <target_id>  (974) 
1

>  <reference_id>  (974) 
65

>  <inspiration_ids>  (974) 
[91, 65]

>  <energy_score>  (974) 
-8.724257699188996

>  <distance_score>  (974) 
1.2375114350270722

>  <path>  (974) 
/opt/xchem-fragalysis-2/maxwin/BulkDock/SCRATCH/505733/C1270-P65/C1270-P65.minimised.mol

>  <scratch_subdir>  (974) 
/opt/xchem-fragalysis-2/maxwin/BulkDock/SCRATCH/505733/C1270-P65

>  <fragmenstein_runtime>  (974) 
1.9247000217437744

>  <fragmenstein_outcome>  (974) 
too moved

>  <fragmenstein_mode>  (974) 
expansion

>  <fragmenstein_error>  (974) 


$$$$
C1271-P69
     RDKit          3D

 47 47  0  0  0  0  0  0  0  0999 V2000
   -9.0781   -1.7045    4.1896 C   0  0  0  0  0  0  0  0  0  0  0  0
   -9.3228   -3.0424    4.8634 C   0  0  0  0  0  0  0  0  0  0  0  0
   -9.6804   -3.1355    6.3520 C   0  0  0  0  0  0  0  0  0  0  0  0
  -11.1009   -2.8184    6.6654 N   0  0  0  0  0  0  0  0  0  0  0  0
  -11.7386   -1.7131    5.9793 C   0  0  0  0  0  0  0  0  0  0  0  0
   -8.6851   -2.5191    7.3833 C   0  0  0  0  0  0  0  0  0  0  0  0
   -7.2502   -2.8580    7.0274 C   0  0  0  0  0  0  0  0  0  0  0  0
   -8.9714   -1.0883    7.5278 N   0  0  0  0  0  0  0  0  0  0  0  0
   -8.5828   -0.5142    8.7996 C   0  0  0  0  0  0  0  0  0  0  0  0
   -8.8626    0.9816    8.7993 C   0  0  0  0  0  0  0  0  0  0  0  0
   -7.8685    1.8887    8.1146 C   0  0  0  0  0  0  0  0  0  0  0  0
   -7.6423    1.7320    6.6313 C   0  0  0  0  0  0  0  0  0  0  0  0
   -6.9827    0.4986    6.0405 C   0  0  0  0  0  0  0  0  0  0  0  0
   -5.7616   -0.1053    6.6461 C   0  0  0  0  0  0  0  0  0  0  0  0
   -5.1927   -0.1148    7.9016 C   0  0  0  0  0  0  0  0  0  0  0  0
   -4.0817   -0.9823    7.8880 C   0  0  0  0  0  0  0  0  0  0  0  0
   -4.0501   -1.5713    6.6536 C   0  0  0  0  0  0  0  0  0  0  0  0
   -5.0002   -0.9709    5.8805 N   0  0  0  0  0  0  0  0  0  0  0  0
   -9.3960   -1.7550    3.1421 H   0  0  0  0  0  0  0  0  0  0  0  0
   -8.0089   -1.4796    4.1666 H   0  0  0  0  0  0  0  0  0  0  0  0
   -9.6048   -0.8711    4.6526 H   0  0  0  0  0  0  0  0  0  0  0  0
   -8.4476   -3.6763    4.6685 H   0  0  0  0  0  0  0  0  0  0  0  0
  -10.1285   -3.5428    4.3059 H   0  0  0  0  0  0  0  0  0  0  0  0
   -9.6231   -4.2146    6.5521 H   0  0  0  0  0  0  0  0  0  0  0  0
  -11.2015   -2.7513    7.6864 H   0  0  0  0  0  0  0  0  0  0  0  0
  -11.8412   -1.9070    4.9090 H   0  0  0  0  0  0  0  0  0  0  0  0
  -12.7485   -1.5890    6.3821 H   0  0  0  0  0  0  0  0  0  0  0  0
  -11.2507   -0.7456    6.1059 H   0  0  0  0  0  0  0  0  0  0  0  0
   -8.9006   -3.0030    8.3454 H   0  0  0  0  0  0  0  0  0  0  0  0
   -6.9836   -2.5397    6.0218 H   0  0  0  0  0  0  0  0  0  0  0  0
   -6.5653   -2.4258    7.7464 H   0  0  0  0  0  0  0  0  0  0  0  0
   -7.1062   -3.9442    7.0568 H   0  0  0  0  0  0  0  0  0  0  0  0
   -9.9815   -0.9911    7.4738 H   0  0  0  0  0  0  0  0  0  0  0  0
   -9.2273   -0.9509    9.5694 H   0  0  0  0  0  0  0  0  0  0  0  0
   -7.5470   -0.7204    9.0678 H   0  0  0  0  0  0  0  0  0  0  0  0
   -8.9308    1.2974    9.8479 H   0  0  0  0  0  0  0  0  0  0  0  0
   -9.8625    1.1719    8.3853 H   0  0  0  0  0  0  0  0  0  0  0  0
   -6.9170    1.8515    8.6235 H   0  0  0  0  0  0  0  0  0  0  0  0
   -8.2237    2.9170    8.2726 H   0  0  0  0  0  0  0  0  0  0  0  0
   -7.0217    2.5888    6.3296 H   0  0  0  0  0  0  0  0  0  0  0  0
   -8.5992    1.8839    6.1137 H   0  0  0  0  0  0  0  0  0  0  0  0
   -7.7211   -0.2691    5.8768 H   0  0  0  0  0  0  0  0  0  0  0  0
   -6.7046    0.7862    5.0138 H   0  0  0  0  0  0  0  0  0  0  0  0
   -5.5518    0.3848    8.7762 H   0  0  0  0  0  0  0  0  0  0  0  0
   -3.4272   -1.2191    8.7094 H   0  0  0  0  0  0  0  0  0  0  0  0
   -3.4459   -2.3701    6.2662 H   0  0  0  0  0  0  0  0  0  0  0  0
   -5.2063   -1.2141    4.9209 H   0  0  0  0  0  0  0  0  0  0  0  0
  1  2  1  0
  2  3  1  0
  3  4  1  0
  4  5  1  0
  3  6  1  0
  6  7  1  0
  6  8  1  0
  8  9  1  0
  9 10  1  0
 10 11  1  0
 11 12  1  0
 12 13  1  0
 13 14  1  0
 14 15  2  0
 15 16  1  0
 16 17  2  0
 17 18  1  0
 18 14  1  0
  1 19  1  0
  1 20  1  0
  1 21  1  0
  2 22  1  0
  2 23  1  0
  3 24  1  0
  4 25  1  0
  5 26  1  0
  5 27  1  0
  5 28  1  0
  6 29  1  0
  7 30  1  0
  7 31  1  0
  7 32  1  0
  8 33  1  0
  9 34  1  0
  9 35  1  0
 10 36  1  0
 10 37  1  0
 11 38  1  0
 11 39  1  0
 12 40  1  0
 12 41  1  0
 13 42  1  0
 13 43  1  0
 15 44  1  0
 16 45  1  0
 17 46  1  0
 18 47  1  0
M  END
>  <Energy>  (975) 
66.098803725077644

>  <compound_id>  (975) 
1271

>  <target_id>  (975) 
1

>  <reference_id>  (975) 
69

>  <inspiration_ids>  (975) 
[91, 69]

>  <energy_score>  (975) 
-34.12660061924623

>  <distance_score>  (975) 
2.5238307898677332

>  <path>  (975) 
/opt/xchem-fragalysis-2/maxwin/BulkDock/SCRATCH/505733/C1271-P69/C1271-P69.minimised.mol

>  <scratch_subdir>  (975) 
/opt/xchem-fragalysis-2/maxwin/BulkDock/SCRATCH/505733/C1271-P69

>  <fragmenstein_runtime>  (975) 
4.713527679443359

>  <fragmenstein_outcome>  (975) 
too moved

>  <fragmenstein_mode>  (975) 
expansion

>  <fragmenstein_error>  (975) 


$$$$
C1272-P73
     RDKit          3D

 36 37  0  0  0  0  0  0  0  0999 V2000
  -11.9204   -2.2440    6.4205 C   0  0  0  0  0  0  0  0  0  0  0  0
  -10.5110   -1.7061    6.5783 C   0  0  0  0  0  0  0  0  0  0  0  0
   -9.6429   -2.3582    5.6096 N   0  0  0  0  0  0  0  0  0  0  0  0
   -8.3821   -1.6820    5.2837 C   0  0  0  0  0  0  0  0  0  0  0  0
   -8.5254   -0.1879    4.9075 C   0  0  0  0  0  0  0  0  0  0  0  0
   -7.0488    0.5941    4.2369 S   0  0  0  0  0  0  0  0  0  0  0  0
   -6.0655    1.2074    5.6187 C   0  0  0  0  0  0  0  0  0  0  0  0
   -6.2608   -0.3843    3.5100 O   0  0  0  0  0  0  0  0  0  0  0  0
   -7.5036    1.7855    3.5357 O   0  0  0  0  0  0  0  0  0  0  0  0
   -7.2608   -1.8968    6.2797 C   0  0  0  0  0  0  0  0  0  0  0  0
   -6.1616   -2.6795    5.8591 C   0  0  0  0  0  0  0  0  0  0  0  0
   -4.9236   -2.5883    6.4821 C   0  0  0  0  0  0  0  0  0  0  0  0
   -4.7269   -1.7355    7.5583 C   0  0  0  0  0  0  0  0  0  0  0  0
   -5.8470   -1.0584    8.0400 C   0  0  0  0  0  0  0  0  0  0  0  0
   -5.9338   -0.1667    9.0761 N   0  0  0  0  0  0  0  0  0  0  0  0
   -7.2136    0.2825    9.2175 C   0  0  0  0  0  0  0  0  0  0  0  0
   -7.9651   -0.3031    8.2348 C   0  0  0  0  0  0  0  0  0  0  0  0
   -7.1166   -1.1555    7.4739 C   0  0  0  0  0  0  0  0  0  0  0  0
  -12.3308   -1.9973    5.4359 H   0  0  0  0  0  0  0  0  0  0  0  0
  -11.9240   -3.3261    6.5331 H   0  0  0  0  0  0  0  0  0  0  0  0
  -12.5817   -1.8186    7.1818 H   0  0  0  0  0  0  0  0  0  0  0  0
  -10.5690   -0.6244    6.4379 H   0  0  0  0  0  0  0  0  0  0  0  0
  -10.1656   -1.9168    7.5930 H   0  0  0  0  0  0  0  0  0  0  0  0
   -9.4508   -3.3158    5.9086 H   0  0  0  0  0  0  0  0  0  0  0  0
   -8.0723   -2.1737    4.3512 H   0  0  0  0  0  0  0  0  0  0  0  0
   -8.8524    0.4531    5.7299 H   0  0  0  0  0  0  0  0  0  0  0  0
   -9.2796   -0.0960    4.1151 H   0  0  0  0  0  0  0  0  0  0  0  0
   -5.3237    0.4656    5.8938 H   0  0  0  0  0  0  0  0  0  0  0  0
   -6.7309    1.4937    6.4304 H   0  0  0  0  0  0  0  0  0  0  0  0
   -5.5574    2.1097    5.2737 H   0  0  0  0  0  0  0  0  0  0  0  0
   -6.2393   -3.2910    4.9604 H   0  0  0  0  0  0  0  0  0  0  0  0
   -4.0867   -3.1563    6.0936 H   0  0  0  0  0  0  0  0  0  0  0  0
   -3.7505   -1.6335    8.0221 H   0  0  0  0  0  0  0  0  0  0  0  0
   -5.1520    0.0515    9.6775 H   0  0  0  0  0  0  0  0  0  0  0  0
   -7.5056    0.9649   10.0034 H   0  0  0  0  0  0  0  0  0  0  0  0
   -9.0158   -0.1036    8.0934 H   0  0  0  0  0  0  0  0  0  0  0  0
  1  2  1  0
  2  3  1  0
  3  4  1  0
  4  5  1  0
  5  6  1  0
  6  7  1  0
  6  8  2  0
  6  9  2  0
  4 10  1  0
 10 11  2  0
 11 12  1  0
 12 13  2  0
 13 14  1  0
 14 15  1  0
 15 16  1  0
 16 17  2  0
 17 18  1  0
 18 10  1  0
 18 14  2  0
  1 19  1  0
  1 20  1  0
  1 21  1  0
  2 22  1  0
  2 23  1  0
  3 24  1  0
  4 25  1  0
  5 26  1  0
  5 27  1  0
  7 28  1  0
  7 29  1  0
  7 30  1  0
 11 31  1  0
 12 32  1  0
 13 33  1  0
 15 34  1  0
 16 35  1  0
 17 36  1  0
M  END
>  <Energy>  (976) 
23.452254687545825

>  <compound_id>  (976) 
1272

>  <target_id>  (976) 
1

>  <reference_id>  (976) 
73

>  <inspiration_ids>  (976) 
[91, 73]

>  <energy_score>  (976) 
-40.17560924822581

>  <distance_score>  (976) 
1.5808411129990574

>  <path>  (976) 
/opt/xchem-fragalysis-2/maxwin/BulkDock/SCRATCH/505733/C1272-P73/C1272-P73.minimised.mol

>  <scratch_subdir>  (976) 
/opt/xchem-fragalysis-2/maxwin/BulkDock/SCRATCH/505733/C1272-P73

>  <fragmenstein_runtime>  (976) 
3.85752534866333

>  <fragmenstein_outcome>  (976) 
too moved

>  <fragmenstein_mode>  (976) 
expansion

>  <fragmenstein_error>  (976) 


$$$$
C1280-P143
     RDKit          3D

 62 62  0  0  0  0  0  0  0  0999 V2000
  -14.1289    0.4301   11.3448 C   0  0  0  0  0  0  0  0  0  0  0  0
  -12.6810    0.6095   10.9301 C   0  0  0  0  0  0  0  0  0  0  0  0
  -12.5140    0.1137    9.5708 N   0  0  0  0  0  0  0  0  0  0  0  0
  -11.2514    0.5719    9.0026 C   0  0  0  0  0  0  0  0  0  0  0  0
  -11.0850    0.0066    7.5983 C   0  0  0  0  0  0  0  0  0  0  0  0
  -10.3967    0.9531    6.6218 C   0  0  0  0  0  0  0  0  0  0  0  0
   -8.9660    1.4499    6.8881 C   0  0  0  0  0  0  0  0  0  0  0  0
   -7.9320    0.3192    6.9857 C   0  0  0  0  0  0  0  0  0  0  0  0
   -7.6477   -0.2646    5.6098 C   0  0  0  0  0  0  0  0  0  0  0  0
   -8.4248   -1.4832    5.1342 C   0  0  0  0  0  0  0  0  0  0  0  0
   -8.1843   -2.8952    5.6471 C   0  0  0  0  0  0  0  0  0  0  0  0
   -9.2158   -3.3589    6.6658 C   0  0  0  0  0  0  0  0  0  0  0  0
   -8.9780   -2.7584    7.9629 N   0  0  0  0  0  0  0  0  0  0  0  0
   -6.7917   -3.2773    6.0870 C   0  0  0  0  0  0  0  0  0  0  0  0
   -6.6345   -4.1782    6.9162 O   0  0  0  0  0  0  0  0  0  0  0  0
   -5.5899   -2.6623    5.4229 C   0  0  0  0  0  0  0  0  0  0  0  0
   -4.6977   -2.0800    6.4419 C   0  0  0  0  0  0  0  0  0  0  0  0
   -4.5265   -0.8151    6.9527 C   0  0  0  0  0  0  0  0  0  0  0  0
   -3.5315   -0.9444    7.9217 C   0  0  0  0  0  0  0  0  0  0  0  0
   -3.0477   -2.1745    7.9661 N   0  0  0  0  0  0  0  0  0  0  0  0
   -3.8380   -2.8686    7.1472 N   0  0  0  0  0  0  0  0  0  0  0  0
   -8.8219    2.4479    8.0528 C   0  0  0  0  0  0  0  0  0  0  0  0
   -9.7173    3.5966    7.8834 N   0  0  0  0  0  0  0  0  0  0  0  0
   -9.6201    4.5249    9.0057 C   0  0  0  0  0  0  0  0  0  0  0  0
  -10.5896    5.6787    8.8004 C   0  0  0  0  0  0  0  0  0  0  0  0
  -14.4661   -0.6024   11.2170 H   0  0  0  0  0  0  0  0  0  0  0  0
  -14.2587    0.7037   12.3968 H   0  0  0  0  0  0  0  0  0  0  0  0
  -14.7882    1.0701   10.7479 H   0  0  0  0  0  0  0  0  0  0  0  0
  -12.4314    1.6746   11.0018 H   0  0  0  0  0  0  0  0  0  0  0  0
  -12.0252    0.0614   11.6157 H   0  0  0  0  0  0  0  0  0  0  0  0
  -12.5428   -0.9052    9.5520 H   0  0  0  0  0  0  0  0  0  0  0  0
  -11.2915    1.6633    8.9671 H   0  0  0  0  0  0  0  0  0  0  0  0
  -10.4069    0.2644    9.6297 H   0  0  0  0  0  0  0  0  0  0  0  0
  -10.5747   -0.9503    7.6405 H   0  0  0  0  0  0  0  0  0  0  0  0
  -12.0725   -0.2128    7.1678 H   0  0  0  0  0  0  0  0  0  0  0  0
  -10.4286    0.4946    5.6283 H   0  0  0  0  0  0  0  0  0  0  0  0
  -11.0491    1.8300    6.5076 H   0  0  0  0  0  0  0  0  0  0  0  0
   -8.7028    2.0471    6.0009 H   0  0  0  0  0  0  0  0  0  0  0  0
   -8.2169   -0.4301    7.7212 H   0  0  0  0  0  0  0  0  0  0  0  0
   -7.0016    0.7595    7.3614 H   0  0  0  0  0  0  0  0  0  0  0  0
   -6.5875   -0.4057    5.4919 H   0  0  0  0  0  0  0  0  0  0  0  0
   -7.8390    0.5164    4.8591 H   0  0  0  0  0  0  0  0  0  0  0  0
   -8.2149   -1.5314    4.0534 H   0  0  0  0  0  0  0  0  0  0  0  0
   -9.4979   -1.2774    5.1658 H   0  0  0  0  0  0  0  0  0  0  0  0
   -8.3550   -3.5423    4.7723 H   0  0  0  0  0  0  0  0  0  0  0  0
  -10.2290   -3.1196    6.3242 H   0  0  0  0  0  0  0  0  0  0  0  0
   -9.1604   -4.4488    6.7612 H   0  0  0  0  0  0  0  0  0  0  0  0
   -8.1661   -3.2194    8.3748 H   0  0  0  0  0  0  0  0  0  0  0  0
   -9.7587   -3.0008    8.5921 H   0  0  0  0  0  0  0  0  0  0  0  0
   -5.0748   -3.4738    4.8937 H   0  0  0  0  0  0  0  0  0  0  0  0
   -5.8463   -1.9720    4.6206 H   0  0  0  0  0  0  0  0  0  0  0  0
   -5.0256    0.0953    6.6761 H   0  0  0  0  0  0  0  0  0  0  0  0
   -3.1053   -0.1973    8.5736 H   0  0  0  0  0  0  0  0  0  0  0  0
   -3.7184   -3.8770    7.1142 H   0  0  0  0  0  0  0  0  0  0  0  0
   -7.7888    2.8152    8.0610 H   0  0  0  0  0  0  0  0  0  0  0  0
   -9.0003    1.9446    9.0056 H   0  0  0  0  0  0  0  0  0  0  0  0
   -9.4977    4.0786    7.0134 H   0  0  0  0  0  0  0  0  0  0  0  0
   -9.8710    4.0169    9.9436 H   0  0  0  0  0  0  0  0  0  0  0  0
   -8.6033    4.9243    9.0877 H   0  0  0  0  0  0  0  0  0  0  0  0
  -10.3579    6.2349    7.8857 H   0  0  0  0  0  0  0  0  0  0  0  0
  -10.5295    6.3756    9.6426 H   0  0  0  0  0  0  0  0  0  0  0  0
  -11.6225    5.3205    8.7323 H   0  0  0  0  0  0  0  0  0  0  0  0
  1  2  1  0
  2  3  1  0
  3  4  1  0
  4  5  1  0
  5  6  1  0
  6  7  1  0
  7  8  1  0
  8  9  1  0
  9 10  1  0
 10 11  1  0
 11 12  1  0
 12 13  1  0
 11 14  1  0
 14 15  2  0
 14 16  1  0
 16 17  1  0
 17 18  2  0
 18 19  1  0
 19 20  2  0
 20 21  1  0
  7 22  1  0
 22 23  1  0
 23 24  1  0
 24 25  1  0
 21 17  1  0
  1 26  1  0
  1 27  1  0
  1 28  1  0
  2 29  1  0
  2 30  1  0
  3 31  1  0
  4 32  1  0
  4 33  1  0
  5 34  1  0
  5 35  1  0
  6 36  1  0
  6 37  1  0
  7 38  1  0
  8 39  1  0
  8 40  1  0
  9 41  1  0
  9 42  1  0
 10 43  1  0
 10 44  1  0
 11 45  1  0
 12 46  1  0
 12 47  1  0
 13 48  1  0
 13 49  1  0
 16 50  1  0
 16 51  1  0
 18 52  1  0
 19 53  1  0
 21 54  1  0
 22 55  1  0
 22 56  1  0
 23 57  1  0
 24 58  1  0
 24 59  1  0
 25 60  1  0
 25 61  1  0
 25 62  1  0
M  END
>  <Energy>  (977) 
60.380969699862042

>  <compound_id>  (977) 
1280

>  <target_id>  (977) 
1

>  <reference_id>  (977) 
143

>  <inspiration_ids>  (977) 
[91, 143]

>  <energy_score>  (977) 
-39.79068822778157

>  <distance_score>  (977) 
2.2564356499690317

>  <path>  (977) 
/opt/xchem-fragalysis-2/maxwin/BulkDock/SCRATCH/505733/C1280-P143/C1280-P143.minimised.mol

>  <scratch_subdir>  (977) 
/opt/xchem-fragalysis-2/maxwin/BulkDock/SCRATCH/505733/C1280-P143

>  <fragmenstein_runtime>  (977) 
18.081485986709595

>  <fragmenstein_outcome>  (977) 
too moved

>  <fragmenstein_mode>  (977) 
expansion

>  <fragmenstein_error>  (977) 


$$$$
C1281-P169
     RDKit          3D

 43 46  0  0  0  0  0  0  0  0999 V2000
   -8.6140    3.4549    5.6368 C   0  0  0  0  0  0  0  0  0  0  0  0
   -8.1572    2.1975    6.3677 C   0  0  0  0  0  0  0  0  0  0  0  0
   -7.1377    2.5302    7.3700 N   0  0  0  0  0  0  0  0  0  0  0  0
   -5.8545    1.8727    7.0930 C   0  0  0  0  0  0  0  0  0  0  0  0
   -5.8739    0.3664    7.1888 C   0  0  0  0  0  0  0  0  0  0  0  0
   -4.8776   -0.3748    6.5330 C   0  0  0  0  0  0  0  0  0  0  0  0
   -5.0023   -1.7464    6.3496 C   0  0  0  0  0  0  0  0  0  0  0  0
   -6.1578   -2.4163    6.7508 C   0  0  0  0  0  0  0  0  0  0  0  0
   -7.1270   -1.6845    7.4562 C   0  0  0  0  0  0  0  0  0  0  0  0
   -6.9251   -0.3519    7.7884 C   0  0  0  0  0  0  0  0  0  0  0  0
   -7.9660    0.0198    8.6660 C   0  0  0  0  0  0  0  0  0  0  0  0
   -8.9229   -0.9555    8.6404 C   0  0  0  0  0  0  0  0  0  0  0  0
  -10.4807   -0.8590    9.4359 S   0  0  0  0  0  0  0  0  0  0  0  0
  -11.1347    0.4119    8.4773 C   0  0  0  0  0  0  0  0  0  0  0  0
  -10.9923    1.7039    8.8394 C   0  0  0  0  0  0  0  0  0  0  0  0
  -11.4673    2.7511    7.9439 C   0  0  0  0  0  0  0  0  0  0  0  0
  -12.0031    2.4567    6.7432 C   0  0  0  0  0  0  0  0  0  0  0  0
  -12.1803    1.1023    6.3701 C   0  0  0  0  0  0  0  0  0  0  0  0
  -12.6839    0.5433    5.2921 N   0  0  0  0  0  0  0  0  0  0  0  0
  -12.6979   -0.8127    5.4978 N   0  0  0  0  0  0  0  0  0  0  0  0
  -12.1754   -1.0480    6.6807 C   0  0  0  0  0  0  0  0  0  0  0  0
  -11.7786    0.1242    7.2679 N   0  0  0  0  0  0  0  0  0  0  0  0
   -8.4076   -2.0038    7.9051 N   0  0  0  0  0  0  0  0  0  0  0  0
   -9.0548   -3.2376    7.5393 C   0  0  0  0  0  0  0  0  0  0  0  0
   -9.3875    3.2047    4.9036 H   0  0  0  0  0  0  0  0  0  0  0  0
   -7.7816    3.9234    5.1010 H   0  0  0  0  0  0  0  0  0  0  0  0
   -9.0328    4.1901    6.3320 H   0  0  0  0  0  0  0  0  0  0  0  0
   -9.0187    1.7485    6.8555 H   0  0  0  0  0  0  0  0  0  0  0  0
   -7.8056    1.4812    5.6158 H   0  0  0  0  0  0  0  0  0  0  0  0
   -6.9945    3.5360    7.4195 H   0  0  0  0  0  0  0  0  0  0  0  0
   -5.0763    2.2646    7.7479 H   0  0  0  0  0  0  0  0  0  0  0  0
   -5.5481    2.1564    6.0777 H   0  0  0  0  0  0  0  0  0  0  0  0
   -4.0259    0.1335    6.0945 H   0  0  0  0  0  0  0  0  0  0  0  0
   -4.2351   -2.2920    5.8104 H   0  0  0  0  0  0  0  0  0  0  0  0
   -6.2884   -3.4684    6.5252 H   0  0  0  0  0  0  0  0  0  0  0  0
   -8.0663    0.9723    9.1672 H   0  0  0  0  0  0  0  0  0  0  0  0
  -10.4826    2.0032    9.7507 H   0  0  0  0  0  0  0  0  0  0  0  0
  -11.3314    3.7822    8.2563 H   0  0  0  0  0  0  0  0  0  0  0  0
  -12.3322    3.2324    6.0612 H   0  0  0  0  0  0  0  0  0  0  0  0
  -12.0770   -2.0182    7.1417 H   0  0  0  0  0  0  0  0  0  0  0  0
  -10.1080   -3.0534    7.3426 H   0  0  0  0  0  0  0  0  0  0  0  0
   -8.6221   -3.6263    6.6138 H   0  0  0  0  0  0  0  0  0  0  0  0
   -8.8909   -3.9582    8.3415 H   0  0  0  0  0  0  0  0  0  0  0  0
  1  2  1  0
  2  3  1  0
  3  4  1  0
  4  5  1  0
  5  6  2  0
  6  7  1  0
  7  8  2  0
  8  9  1  0
  9 10  2  0
 10 11  1  0
 11 12  2  0
 12 13  1  0
 13 14  1  0
 14 15  2  0
 15 16  1  0
 16 17  2  0
 17 18  1  0
 18 19  2  0
 19 20  1  0
 20 21  2  0
 21 22  1  0
 12 23  1  0
 23 24  1  0
 10  5  1  0
 22 14  1  0
 23  9  1  0
 22 18  1  0
  1 25  1  0
  1 26  1  0
  1 27  1  0
  2 28  1  0
  2 29  1  0
  3 30  1  0
  4 31  1  0
  4 32  1  0
  6 33  1  0
  7 34  1  0
  8 35  1  0
 11 36  1  0
 15 37  1  0
 16 38  1  0
 17 39  1  0
 21 40  1  0
 24 41  1  0
 24 42  1  0
 24 43  1  0
M  END
>  <Energy>  (978) 
62.027215702192095

>  <compound_id>  (978) 
1281

>  <target_id>  (978) 
1

>  <reference_id>  (978) 
169

>  <inspiration_ids>  (978) 
[91, 169]

>  <energy_score>  (978) 
-28.305596432131665

>  <distance_score>  (978) 
2.0762753394733586

>  <path>  (978) 
/opt/xchem-fragalysis-2/maxwin/BulkDock/SCRATCH/505733/C1281-P169/C1281-P169.minimised.mol

>  <scratch_subdir>  (978) 
/opt/xchem-fragalysis-2/maxwin/BulkDock/SCRATCH/505733/C1281-P169

>  <fragmenstein_runtime>  (978) 
4.156772136688232

>  <fragmenstein_outcome>  (978) 
too moved

>  <fragmenstein_mode>  (978) 
expansion

>  <fragmenstein_error>  (978) 


$$$$
C1282-P179
     RDKit          3D

 48 51  0  0  0  0  0  0  0  0999 V2000
  -11.1900   -5.2110    2.6390 C   0  0  0  0  0  0  0  0  0  0  0  0
  -10.6717   -3.9179    3.2547 C   0  0  0  0  0  0  0  0  0  0  0  0
   -9.4870   -3.3899    2.5992 N   0  0  0  0  0  0  0  0  0  0  0  0
   -9.2033   -3.4727    1.2623 C   0  0  0  0  0  0  0  0  0  0  0  0
   -8.0449   -2.9285    0.9707 N   0  0  0  0  0  0  0  0  0  0  0  0
   -7.5906   -2.4022    2.1533 C   0  0  0  0  0  0  0  0  0  0  0  0
   -6.4424   -1.6393    2.4016 C   0  0  0  0  0  0  0  0  0  0  0  0
   -6.2003   -1.1813    3.7038 C   0  0  0  0  0  0  0  0  0  0  0  0
   -7.0597   -1.5024    4.7716 C   0  0  0  0  0  0  0  0  0  0  0  0
   -6.8504   -0.9257    6.1794 C   0  0  0  0  0  0  0  0  0  0  0  0
   -7.7039    0.2546    6.2348 N   0  0  0  0  0  0  0  0  0  0  0  0
   -8.5041    0.5231    7.3412 C   0  0  0  0  0  0  0  0  0  0  0  0
   -9.2227   -0.4663    8.0187 C   0  0  0  0  0  0  0  0  0  0  0  0
  -10.0843   -0.1398    9.0685 C   0  0  0  0  0  0  0  0  0  0  0  0
  -10.2514    1.1852    9.4525 C   0  0  0  0  0  0  0  0  0  0  0  0
   -9.5613    2.1858    8.7804 C   0  0  0  0  0  0  0  0  0  0  0  0
   -8.7036    1.8552    7.7289 C   0  0  0  0  0  0  0  0  0  0  0  0
   -5.4374   -0.6783    6.4849 N   0  0  0  0  0  0  0  0  0  0  0  0
   -4.6590   -1.9060    6.6269 C   0  0  0  0  0  0  0  0  0  0  0  0
   -3.5018   -1.4819    7.5120 C   0  0  0  0  0  0  0  0  0  0  0  0
   -3.8976   -0.1600    8.1246 C   0  0  0  0  0  0  0  0  0  0  0  0
   -5.3460   -0.0039    7.7767 C   0  0  0  0  0  0  0  0  0  0  0  0
   -8.2162   -2.2777    4.5171 C   0  0  0  0  0  0  0  0  0  0  0  0
   -8.4586   -2.6983    3.2008 C   0  0  0  0  0  0  0  0  0  0  0  0
  -10.3884   -5.9396    2.4858 H   0  0  0  0  0  0  0  0  0  0  0  0
  -11.9365   -5.6703    3.2878 H   0  0  0  0  0  0  0  0  0  0  0  0
  -11.6631   -5.0244    1.6694 H   0  0  0  0  0  0  0  0  0  0  0  0
  -11.4353   -3.1342    3.2143 H   0  0  0  0  0  0  0  0  0  0  0  0
  -10.4184   -4.0998    4.3042 H   0  0  0  0  0  0  0  0  0  0  0  0
   -9.8657   -3.9388    0.5446 H   0  0  0  0  0  0  0  0  0  0  0  0
   -5.7786   -1.3796    1.5847 H   0  0  0  0  0  0  0  0  0  0  0  0
   -5.3333   -0.5460    3.8767 H   0  0  0  0  0  0  0  0  0  0  0  0
   -7.2110   -1.6969    6.8727 H   0  0  0  0  0  0  0  0  0  0  0  0
   -7.1833    1.0538    5.8970 H   0  0  0  0  0  0  0  0  0  0  0  0
   -9.1688   -1.5101    7.7251 H   0  0  0  0  0  0  0  0  0  0  0  0
  -10.6375   -0.9263    9.5738 H   0  0  0  0  0  0  0  0  0  0  0  0
  -10.9252    1.4369   10.2660 H   0  0  0  0  0  0  0  0  0  0  0  0
   -9.6917    3.2255    9.0666 H   0  0  0  0  0  0  0  0  0  0  0  0
   -8.1918    2.6584    7.2057 H   0  0  0  0  0  0  0  0  0  0  0  0
   -4.3104   -2.2853    5.6624 H   0  0  0  0  0  0  0  0  0  0  0  0
   -5.2256   -2.7054    7.1163 H   0  0  0  0  0  0  0  0  0  0  0  0
   -2.5915   -1.3489    6.9431 H   0  0  0  0  0  0  0  0  0  0  0  0
   -3.2621   -2.2286    8.2633 H   0  0  0  0  0  0  0  0  0  0  0  0
   -3.7594   -0.1460    9.1978 H   0  0  0  0  0  0  0  0  0  0  0  0
   -3.3081    0.6594    7.7092 H   0  0  0  0  0  0  0  0  0  0  0  0
   -5.6128    1.0542    7.7059 H   0  0  0  0  0  0  0  0  0  0  0  0
   -5.9647   -0.4837    8.5459 H   0  0  0  0  0  0  0  0  0  0  0  0
   -8.9259   -2.4889    5.3120 H   0  0  0  0  0  0  0  0  0  0  0  0
  1  2  1  0
  2  3  1  0
  3  4  1  0
  4  5  2  0
  5  6  1  0
  6  7  2  0
  7  8  1  0
  8  9  2  0
  9 10  1  0
 10 11  1  0
 11 12  1  0
 12 13  2  0
 13 14  1  0
 14 15  2  0
 15 16  1  0
 16 17  2  0
 10 18  1  0
 18 19  1  0
 19 20  1  0
 20 21  1  0
 21 22  1  0
  9 23  1  0
 23 24  2  0
 24  3  1  0
 24  6  1  0
 17 12  1  0
 22 18  1  0
  1 25  1  0
  1 26  1  0
  1 27  1  0
  2 28  1  0
  2 29  1  0
  4 30  1  0
  7 31  1  0
  8 32  1  0
 10 33  1  0
 11 34  1  0
 13 35  1  0
 14 36  1  0
 15 37  1  0
 16 38  1  0
 17 39  1  0
 19 40  1  0
 19 41  1  0
 20 42  1  0
 20 43  1  0
 21 44  1  0
 21 45  1  0
 22 46  1  0
 22 47  1  0
 23 48  1  0
M  END
>  <Energy>  (979) 
-2.8043416810289283

>  <compound_id>  (979) 
1282

>  <target_id>  (979) 
1

>  <reference_id>  (979) 
179

>  <inspiration_ids>  (979) 
[91, 179]

>  <energy_score>  (979) 
-52.097215690333314

>  <distance_score>  (979) 
1.2899166022312243

>  <path>  (979) 
/opt/xchem-fragalysis-2/maxwin/BulkDock/SCRATCH/505733/C1282-P179/C1282-P179.minimised.mol

>  <scratch_subdir>  (979) 
/opt/xchem-fragalysis-2/maxwin/BulkDock/SCRATCH/505733/C1282-P179

>  <fragmenstein_runtime>  (979) 
4.6374053955078125

>  <fragmenstein_outcome>  (979) 
too moved

>  <fragmenstein_mode>  (979) 
expansion

>  <fragmenstein_error>  (979) 


$$$$
C1290-P93
     RDKit          3D

 41 41  0  0  0  0  0  0  0  0999 V2000
   18.1145   -2.1146   16.6373 C   0  0  0  0  0  0  0  0  0  0  0  0
   17.1787   -3.2995   16.4847 C   0  0  0  0  0  0  0  0  0  0  0  0
   16.5042   -3.5480   17.7563 N   0  0  0  0  0  0  0  0  0  0  0  0
   15.3504   -4.4211   17.5944 C   0  0  0  0  0  0  0  0  0  0  0  0
   13.9569   -3.9995   17.7961 N   0  0  0  0  0  0  0  0  0  0  0  0
   13.6133   -2.9009   16.9884 C   0  0  0  0  0  0  0  0  0  0  0  0
   12.6748   -2.9916   15.9575 C   0  0  0  0  0  0  0  0  0  0  0  0
   12.5571   -1.9541   15.0250 C   0  0  0  0  0  0  0  0  0  0  0  0
   13.3925   -0.8329   15.1138 C   0  0  0  0  0  0  0  0  0  0  0  0
   13.3945    0.2469   14.0668 C   0  0  0  0  0  0  0  0  0  0  0  0
   12.7799    1.5967   14.5041 C   0  0  0  0  0  0  0  0  0  0  0  0
   13.6032    2.2877   15.6195 C   0  0  0  0  0  0  0  0  0  0  0  0
   13.3112    3.7675   15.7979 C   0  0  0  0  0  0  0  0  0  0  0  0
   11.3009    1.4138   14.8801 C   0  0  0  0  0  0  0  0  0  0  0  0
   10.6134    2.6591   14.8263 O   0  0  0  0  0  0  0  0  0  0  0  0
   14.2658   -0.7268   16.1933 C   0  0  0  0  0  0  0  0  0  0  0  0
   14.3154   -1.7138   17.1543 C   0  0  0  0  0  0  0  0  0  0  0  0
   18.6270   -1.9149   15.6906 H   0  0  0  0  0  0  0  0  0  0  0  0
   17.5698   -1.2080   16.9216 H   0  0  0  0  0  0  0  0  0  0  0  0
   18.8788   -2.3073   17.3980 H   0  0  0  0  0  0  0  0  0  0  0  0
   16.4637   -3.0690   15.6866 H   0  0  0  0  0  0  0  0  0  0  0  0
   17.7448   -4.1862   16.1774 H   0  0  0  0  0  0  0  0  0  0  0  0
   17.1570   -3.9487   18.4248 H   0  0  0  0  0  0  0  0  0  0  0  0
   15.5194   -5.1970   18.3461 H   0  0  0  0  0  0  0  0  0  0  0  0
   15.4058   -4.9080   16.6147 H   0  0  0  0  0  0  0  0  0  0  0  0
   13.3108   -4.7622   17.6151 H   0  0  0  0  0  0  0  0  0  0  0  0
   12.0768   -3.8889   15.8337 H   0  0  0  0  0  0  0  0  0  0  0  0
   11.8548   -2.0581   14.1993 H   0  0  0  0  0  0  0  0  0  0  0  0
   12.8587   -0.1125   13.1783 H   0  0  0  0  0  0  0  0  0  0  0  0
   14.4280    0.4060   13.7308 H   0  0  0  0  0  0  0  0  0  0  0  0
   12.8222    2.2553   13.6250 H   0  0  0  0  0  0  0  0  0  0  0  0
   13.4307    1.8003   16.5849 H   0  0  0  0  0  0  0  0  0  0  0  0
   14.6701    2.1977   15.3822 H   0  0  0  0  0  0  0  0  0  0  0  0
   13.4000    4.3060   14.8493 H   0  0  0  0  0  0  0  0  0  0  0  0
   12.3092    3.9344   16.2020 H   0  0  0  0  0  0  0  0  0  0  0  0
   14.0238    4.2076   16.5034 H   0  0  0  0  0  0  0  0  0  0  0  0
   11.1976    1.0002   15.8886 H   0  0  0  0  0  0  0  0  0  0  0  0
   10.7973    0.7418   14.1772 H   0  0  0  0  0  0  0  0  0  0  0  0
    9.7954    2.5522   15.3400 H   0  0  0  0  0  0  0  0  0  0  0  0
   14.9487    0.1108   16.2947 H   0  0  0  0  0  0  0  0  0  0  0  0
   14.9952   -1.5921   17.9944 H   0  0  0  0  0  0  0  0  0  0  0  0
  1  2  1  0
  2  3  1  0
  3  4  1  0
  4  5  1  0
  5  6  1  0
  6  7  2  0
  7  8  1  0
  8  9  2  0
  9 10  1  0
 10 11  1  0
 11 12  1  0
 12 13  1  0
 11 14  1  0
 14 15  1  0
  9 16  1  0
 16 17  2  0
 17  6  1  0
  1 18  1  0
  1 19  1  0
  1 20  1  0
  2 21  1  0
  2 22  1  0
  3 23  1  0
  4 24  1  0
  4 25  1  0
  5 26  1  0
  7 27  1  0
  8 28  1  0
 10 29  1  0
 10 30  1  0
 11 31  1  0
 12 32  1  0
 12 33  1  0
 13 34  1  0
 13 35  1  0
 13 36  1  0
 14 37  1  0
 14 38  1  0
 15 39  1  0
 16 40  1  0
 17 41  1  0
M  END
>  <Energy>  (980) 
-15.363830835243462

>  <compound_id>  (980) 
1290

>  <target_id>  (980) 
1

>  <reference_id>  (980) 
93

>  <inspiration_ids>  (980) 
[93, 10]

>  <energy_score>  (980) 
-11.3414415260321

>  <distance_score>  (980) 
1.1790189768241917

>  <path>  (980) 
/opt/xchem-fragalysis-2/maxwin/BulkDock/SCRATCH/505733/C1290-P93/C1290-P93.minimised.mol

>  <scratch_subdir>  (980) 
/opt/xchem-fragalysis-2/maxwin/BulkDock/SCRATCH/505733/C1290-P93

>  <fragmenstein_runtime>  (980) 
1.690450668334961

>  <fragmenstein_outcome>  (980) 
too moved

>  <fragmenstein_mode>  (980) 
expansion

>  <fragmenstein_error>  (980) 


$$$$
C1290-P10
     RDKit          3D

 41 41  0  0  0  0  0  0  0  0999 V2000
   17.7610   -3.1955   16.3015 C   0  0  0  0  0  0  0  0  0  0  0  0
   16.7484   -4.2840   16.6563 C   0  0  0  0  0  0  0  0  0  0  0  0
   16.3541   -4.1480   18.0537 N   0  0  0  0  0  0  0  0  0  0  0  0
   14.9955   -4.5774   18.3668 C   0  0  0  0  0  0  0  0  0  0  0  0
   13.8041   -4.3358   17.5654 N   0  0  0  0  0  0  0  0  0  0  0  0
   13.5515   -3.1340   16.9116 C   0  0  0  0  0  0  0  0  0  0  0  0
   12.5291   -3.0695   15.9566 C   0  0  0  0  0  0  0  0  0  0  0  0
   12.4342   -1.9891   15.0686 C   0  0  0  0  0  0  0  0  0  0  0  0
   13.3686   -0.9514   15.1290 C   0  0  0  0  0  0  0  0  0  0  0  0
   13.4018    0.1580   14.1127 C   0  0  0  0  0  0  0  0  0  0  0  0
   12.8120    1.5070   14.5802 C   0  0  0  0  0  0  0  0  0  0  0  0
   13.6211    2.1227   15.7474 C   0  0  0  0  0  0  0  0  0  0  0  0
   13.3706    3.6036   15.9797 C   0  0  0  0  0  0  0  0  0  0  0  0
   11.3150    1.3479   14.8886 C   0  0  0  0  0  0  0  0  0  0  0  0
   10.6710    2.6139   14.9587 O   0  0  0  0  0  0  0  0  0  0  0  0
   14.3135   -0.9660   16.1499 C   0  0  0  0  0  0  0  0  0  0  0  0
   14.3623   -2.0153   17.0534 C   0  0  0  0  0  0  0  0  0  0  0  0
   18.0825   -3.3108   15.2613 H   0  0  0  0  0  0  0  0  0  0  0  0
   17.3352   -2.1935   16.4120 H   0  0  0  0  0  0  0  0  0  0  0  0
   18.6508   -3.2632   16.9367 H   0  0  0  0  0  0  0  0  0  0  0  0
   15.9103   -4.2053   15.9587 H   0  0  0  0  0  0  0  0  0  0  0  0
   17.2001   -5.2704   16.5060 H   0  0  0  0  0  0  0  0  0  0  0  0
   16.4862   -3.1958   18.3720 H   0  0  0  0  0  0  0  0  0  0  0  0
   14.7787   -4.1828   19.3686 H   0  0  0  0  0  0  0  0  0  0  0  0
   15.0570   -5.6567   18.5299 H   0  0  0  0  0  0  0  0  0  0  0  0
   12.9502   -4.6911   17.9941 H   0  0  0  0  0  0  0  0  0  0  0  0
   11.8486   -3.9089   15.8389 H   0  0  0  0  0  0  0  0  0  0  0  0
   11.6713   -2.0080   14.2919 H   0  0  0  0  0  0  0  0  0  0  0  0
   12.8717   -0.1693   13.2087 H   0  0  0  0  0  0  0  0  0  0  0  0
   14.4414    0.3067   13.7903 H   0  0  0  0  0  0  0  0  0  0  0  0
   12.9026    2.1994   13.7313 H   0  0  0  0  0  0  0  0  0  0  0  0
   13.4124    1.5920   16.6828 H   0  0  0  0  0  0  0  0  0  0  0  0
   14.6912    2.0106   15.5345 H   0  0  0  0  0  0  0  0  0  0  0  0
   13.4907    4.1762   15.0549 H   0  0  0  0  0  0  0  0  0  0  0  0
   12.3686    3.7856   16.3769 H   0  0  0  0  0  0  0  0  0  0  0  0
   14.0850    3.9931   16.7126 H   0  0  0  0  0  0  0  0  0  0  0  0
   11.1598    0.8296   15.8386 H   0  0  0  0  0  0  0  0  0  0  0  0
   10.8157    0.7767   14.0984 H   0  0  0  0  0  0  0  0  0  0  0  0
    9.7732    2.4513   15.2927 H   0  0  0  0  0  0  0  0  0  0  0  0
   15.0527   -0.1748   16.2411 H   0  0  0  0  0  0  0  0  0  0  0  0
   15.0949   -1.9409   17.8438 H   0  0  0  0  0  0  0  0  0  0  0  0
  1  2  1  0
  2  3  1  0
  3  4  1  0
  4  5  1  0
  5  6  1  0
  6  7  2  0
  7  8  1  0
  8  9  2  0
  9 10  1  0
 10 11  1  0
 11 12  1  0
 12 13  1  0
 11 14  1  0
 14 15  1  0
  9 16  1  0
 16 17  2  0
 17  6  1  0
  1 18  1  0
  1 19  1  0
  1 20  1  0
  2 21  1  0
  2 22  1  0
  3 23  1  0
  4 24  1  0
  4 25  1  0
  5 26  1  0
  7 27  1  0
  8 28  1  0
 10 29  1  0
 10 30  1  0
 11 31  1  0
 12 32  1  0
 12 33  1  0
 13 34  1  0
 13 35  1  0
 13 36  1  0
 14 37  1  0
 14 38  1  0
 15 39  1  0
 16 40  1  0
 17 41  1  0
M  END
>  <Energy>  (981) 
-17.016707840356364

>  <compound_id>  (981) 
1290

>  <target_id>  (981) 
1

>  <reference_id>  (981) 
10

>  <inspiration_ids>  (981) 
[93, 10]

>  <energy_score>  (981) 
-12.994318531143293

>  <distance_score>  (981) 
1.0516535154921556

>  <path>  (981) 
/opt/xchem-fragalysis-2/maxwin/BulkDock/SCRATCH/505733/C1290-P10/C1290-P10.minimised.mol

>  <scratch_subdir>  (981) 
/opt/xchem-fragalysis-2/maxwin/BulkDock/SCRATCH/505733/C1290-P10

>  <fragmenstein_runtime>  (981) 
1.486065149307251

>  <fragmenstein_outcome>  (981) 
too moved

>  <fragmenstein_mode>  (981) 
expansion

>  <fragmenstein_error>  (981) 


$$$$
C957-P93
     RDKit          3D

 35 37  0  0  0  0  0  0  0  0999 V2000
   15.2342    2.1251   16.9226 C   0  0  0  0  0  0  0  0  0  0  0  0
   13.9577    1.9337   16.1336 C   0  0  0  0  0  0  0  0  0  0  0  0
   13.8708    0.6198   15.5356 N   0  0  0  0  0  0  0  0  0  0  0  0
   13.3944   -0.8059   16.3798 C   0  0  0  0  0  0  0  0  0  0  0  0
   13.7246   -2.1979   15.5361 C   0  0  0  0  0  0  0  0  0  0  0  0
   14.3229   -3.1464   16.3797 C   0  0  0  0  0  0  0  0  0  0  0  0
   15.6388   -2.7772   16.5302 C   0  0  0  0  0  0  0  0  0  0  0  0
   15.9945   -1.5583   15.9351 C   0  0  0  0  0  0  0  0  0  0  0  0
   17.2097   -1.1470   16.4489 N   0  0  0  0  0  0  0  0  0  0  0  0
   17.6413   -2.1498   17.1802 C   0  0  0  0  0  0  0  0  0  0  0  0
   16.7368   -3.1756   17.2254 N   0  0  0  0  0  0  0  0  0  0  0  0
   16.9419   -4.4254   17.9210 C   0  0  0  0  0  0  0  0  0  0  0  0
   17.7811   -5.3942   17.1040 C   0  0  0  0  0  0  0  0  0  0  0  0
   15.0722   -0.8311   15.0281 C   0  0  0  0  0  0  0  0  0  0  0  0
   13.3640   -0.8887   14.0617 N   0  0  0  0  0  0  0  0  0  0  0  0
   11.9060   -0.5536   14.3432 C   0  0  0  0  0  0  0  0  0  0  0  0
   14.7606   -1.5167   14.0671 C   0  0  0  0  0  0  0  0  0  0  0  0
   14.8356    0.2284   14.0542 N   0  0  0  0  0  0  0  0  0  0  0  0
   15.2622    3.1261   17.3639 H   0  0  0  0  0  0  0  0  0  0  0  0
   15.3125    1.3930   17.7335 H   0  0  0  0  0  0  0  0  0  0  0  0
   16.1163    2.0101   16.2839 H   0  0  0  0  0  0  0  0  0  0  0  0
   13.8882    2.6559   15.3151 H   0  0  0  0  0  0  0  0  0  0  0  0
   13.0795    2.0493   16.7755 H   0  0  0  0  0  0  0  0  0  0  0  0
   13.2565   -0.5978   17.4273 H   0  0  0  0  0  0  0  0  0  0  0  0
   13.8144   -3.9386   16.9052 H   0  0  0  0  0  0  0  0  0  0  0  0
   18.5929   -2.1842   17.6948 H   0  0  0  0  0  0  0  0  0  0  0  0
   15.9620   -4.8552   18.1484 H   0  0  0  0  0  0  0  0  0  0  0  0
   17.4332   -4.2000   18.8741 H   0  0  0  0  0  0  0  0  0  0  0  0
   17.3133   -5.6030   16.1358 H   0  0  0  0  0  0  0  0  0  0  0  0
   18.7795   -4.9880   16.9102 H   0  0  0  0  0  0  0  0  0  0  0  0
   17.8973   -6.3410   17.6403 H   0  0  0  0  0  0  0  0  0  0  0  0
   13.6448   -0.1048   13.4030 H   0  0  0  0  0  0  0  0  0  0  0  0
   11.3890   -1.3426   14.9000 H   0  0  0  0  0  0  0  0  0  0  0  0
   11.4270   -0.5084   13.3622 H   0  0  0  0  0  0  0  0  0  0  0  0
   11.7193    0.4308   14.7835 H   0  0  0  0  0  0  0  0  0  0  0  0
  1  2  1  0
  2  3  1  0
  3  4  1  0
  4  5  2  0
  5  6  1  0
  6  7  2  0
  7  8  1  0
  8  9  1  0
  9 10  2  0
 10 11  1  0
 11 12  1  0
 12 13  1  0
  8 14  2  0
 14 15  1  0
 15 16  1  0
 14 17  1  0
 17 18  2  0
 18  3  1  0
 17  5  1  0
 11  7  1  0
  1 19  1  0
  1 20  1  0
  1 21  1  0
  2 22  1  0
  2 23  1  0
  4 24  1  0
  6 25  1  0
 10 26  1  0
 12 27  1  0
 12 28  1  0
 13 29  1  0
 13 30  1  0
 13 31  1  0
 15 32  1  0
 16 33  1  0
 16 34  1  0
 16 35  1  0
M  END
>  <Energy>  (982) 
1157.751841283603

>  <compound_id>  (982) 
957

>  <target_id>  (982) 
1

>  <reference_id>  (982) 
93

>  <inspiration_ids>  (982) 
[93, 23]

>  <energy_score>  (982) 
1062.9753531573972

>  <distance_score>  (982) 
1.9197159043310412

>  <path>  (982) 
/opt/xchem-fragalysis-2/maxwin/BulkDock/SCRATCH/505733/C957-P93/C957-P93.minimised.mol

>  <scratch_subdir>  (982) 
/opt/xchem-fragalysis-2/maxwin/BulkDock/SCRATCH/505733/C957-P93

>  <fragmenstein_runtime>  (982) 
4.513718128204346

>  <fragmenstein_outcome>  (982) 
too moved

>  <fragmenstein_mode>  (982) 
expansion

>  <fragmenstein_error>  (982) 


$$$$
C957-P23
     RDKit          3D

 35 37  0  0  0  0  0  0  0  0999 V2000
   13.4808    2.3043   14.5945 C   0  0  0  0  0  0  0  0  0  0  0  0
   12.9287    1.1673   13.7353 C   0  0  0  0  0  0  0  0  0  0  0  0
   13.4652   -0.1051   14.1604 N   0  0  0  0  0  0  0  0  0  0  0  0
   12.8893   -1.1151   14.8909 C   0  0  0  0  0  0  0  0  0  0  0  0
   13.9439   -1.8652   15.3399 C   0  0  0  0  0  0  0  0  0  0  0  0
   13.9934   -2.9417   16.2430 C   0  0  0  0  0  0  0  0  0  0  0  0
   15.2836   -3.5545   16.2825 C   0  0  0  0  0  0  0  0  0  0  0  0
   16.3602   -3.1630   15.4585 C   0  0  0  0  0  0  0  0  0  0  0  0
   17.3565   -4.1108   15.4763 N   0  0  0  0  0  0  0  0  0  0  0  0
   16.9187   -5.0489   16.2657 C   0  0  0  0  0  0  0  0  0  0  0  0
   15.8861   -4.5598   17.0176 N   0  0  0  0  0  0  0  0  0  0  0  0
   16.0448   -4.5719   18.4606 C   0  0  0  0  0  0  0  0  0  0  0  0
   17.4806   -4.2327   18.8866 C   0  0  0  0  0  0  0  0  0  0  0  0
   16.3251   -1.9733   14.7017 C   0  0  0  0  0  0  0  0  0  0  0  0
   17.3662   -1.3831   13.9741 N   0  0  0  0  0  0  0  0  0  0  0  0
   18.3346   -2.2794   13.3779 C   0  0  0  0  0  0  0  0  0  0  0  0
   15.0768   -1.3608   14.6399 C   0  0  0  0  0  0  0  0  0  0  0  0
   14.7562   -0.2928   13.9032 N   0  0  0  0  0  0  0  0  0  0  0  0
   12.9535    3.2361   14.3684 H   0  0  0  0  0  0  0  0  0  0  0  0
   13.3971    2.1025   15.6639 H   0  0  0  0  0  0  0  0  0  0  0  0
   14.5435    2.4676   14.3823 H   0  0  0  0  0  0  0  0  0  0  0  0
   13.2323    1.3154   12.6910 H   0  0  0  0  0  0  0  0  0  0  0  0
   11.8414    1.0995   13.7186 H   0  0  0  0  0  0  0  0  0  0  0  0
   11.8242   -1.1647   15.0509 H   0  0  0  0  0  0  0  0  0  0  0  0
   13.1564   -3.3074   16.8238 H   0  0  0  0  0  0  0  0  0  0  0  0
   17.4198   -5.9848   16.4764 H   0  0  0  0  0  0  0  0  0  0  0  0
   15.7592   -5.5680   18.8127 H   0  0  0  0  0  0  0  0  0  0  0  0
   15.3443   -3.8435   18.8834 H   0  0  0  0  0  0  0  0  0  0  0  0
   18.1941   -5.0096   18.5937 H   0  0  0  0  0  0  0  0  0  0  0  0
   17.8100   -3.2780   18.4629 H   0  0  0  0  0  0  0  0  0  0  0  0
   17.5255   -4.1488   19.9776 H   0  0  0  0  0  0  0  0  0  0  0  0
   16.9587   -0.7059   13.3248 H   0  0  0  0  0  0  0  0  0  0  0  0
   18.9903   -2.7224   14.1333 H   0  0  0  0  0  0  0  0  0  0  0  0
   18.9756   -1.7076   12.6988 H   0  0  0  0  0  0  0  0  0  0  0  0
   17.8537   -3.0673   12.7893 H   0  0  0  0  0  0  0  0  0  0  0  0
  1  2  1  0
  2  3  1  0
  3  4  1  0
  4  5  2  0
  5  6  1  0
  6  7  2  0
  7  8  1  0
  8  9  1  0
  9 10  2  0
 10 11  1  0
 11 12  1  0
 12 13  1  0
  8 14  2  0
 14 15  1  0
 15 16  1  0
 14 17  1  0
 17 18  2  0
 18  3  1  0
 17  5  1  0
 11  7  1  0
  1 19  1  0
  1 20  1  0
  1 21  1  0
  2 22  1  0
  2 23  1  0
  4 24  1  0
  6 25  1  0
 10 26  1  0
 12 27  1  0
 12 28  1  0
 13 29  1  0
 13 30  1  0
 13 31  1  0
 15 32  1  0
 16 33  1  0
 16 34  1  0
 16 35  1  0
M  END
>  <Energy>  (983) 
92.670311313893947

>  <compound_id>  (983) 
957

>  <target_id>  (983) 
1

>  <reference_id>  (983) 
23

>  <inspiration_ids>  (983) 
[93, 23]

>  <energy_score>  (983) 
-15.840303136446543

>  <distance_score>  (983) 
2.7315471659029056

>  <path>  (983) 
/opt/xchem-fragalysis-2/maxwin/BulkDock/SCRATCH/505733/C957-P23/C957-P23.minimised.mol

>  <scratch_subdir>  (983) 
/opt/xchem-fragalysis-2/maxwin/BulkDock/SCRATCH/505733/C957-P23

>  <fragmenstein_runtime>  (983) 
3.7716224193573

>  <fragmenstein_outcome>  (983) 
too moved

>  <fragmenstein_mode>  (983) 
expansion

>  <fragmenstein_error>  (983) 


$$$$
C1294-P93
     RDKit          3D

 30 30  0  0  0  0  0  0  0  0999 V2000
   13.9400    1.3201   16.3009 C   0  0  0  0  0  0  0  0  0  0  0  0
   13.2380    1.0504   14.9795 C   0  0  0  0  0  0  0  0  0  0  0  0
   13.5537   -0.2766   14.2600 C   0  0  0  0  0  0  0  0  0  0  0  0
   13.2234   -1.5583   15.0357 C   0  0  0  0  0  0  0  0  0  0  0  0
   14.1119   -1.9292   16.1773 C   0  0  0  0  0  0  0  0  0  0  0  0
   13.7918   -2.6800   17.2917 C   0  0  0  0  0  0  0  0  0  0  0  0
   14.9085   -2.6546   18.0800 N   0  0  0  0  0  0  0  0  0  0  0  0
   15.0071   -3.0811   19.4605 C   0  0  0  0  0  0  0  0  0  0  0  0
   14.8622   -4.5770   19.6465 C   0  0  0  0  0  0  0  0  0  0  0  0
   15.8826   -1.9989   17.3861 C   0  0  0  0  0  0  0  0  0  0  0  0
   15.4294   -1.5408   16.2412 N   0  0  0  0  0  0  0  0  0  0  0  0
   14.9131   -0.3684   13.6000 C   0  0  0  0  0  0  0  0  0  0  0  0
   15.2823   -1.2758   12.8684 O   0  0  0  0  0  0  0  0  0  0  0  0
   15.7211    0.6869   13.8030 O   0  0  0  0  0  0  0  0  0  0  0  0
   15.0268    1.2467   16.2143 H   0  0  0  0  0  0  0  0  0  0  0  0
   13.6009    0.6328   17.0804 H   0  0  0  0  0  0  0  0  0  0  0  0
   13.7038    2.3331   16.6443 H   0  0  0  0  0  0  0  0  0  0  0  0
   12.1561    1.0958   15.1600 H   0  0  0  0  0  0  0  0  0  0  0  0
   13.4627    1.8827   14.2999 H   0  0  0  0  0  0  0  0  0  0  0  0
   12.8668   -0.2674   13.3984 H   0  0  0  0  0  0  0  0  0  0  0  0
   13.2251   -2.4008   14.3348 H   0  0  0  0  0  0  0  0  0  0  0  0
   12.1925   -1.4820   15.4069 H   0  0  0  0  0  0  0  0  0  0  0  0
   12.8773   -3.1716   17.5931 H   0  0  0  0  0  0  0  0  0  0  0  0
   15.9777   -2.7512   19.8477 H   0  0  0  0  0  0  0  0  0  0  0  0
   14.2319   -2.5491   20.0213 H   0  0  0  0  0  0  0  0  0  0  0  0
   15.6181   -5.1174   19.0685 H   0  0  0  0  0  0  0  0  0  0  0  0
   14.9842   -4.8427   20.7012 H   0  0  0  0  0  0  0  0  0  0  0  0
   13.8715   -4.9160   19.3281 H   0  0  0  0  0  0  0  0  0  0  0  0
   16.8860   -1.8554   17.7651 H   0  0  0  0  0  0  0  0  0  0  0  0
   16.5620    0.3946   13.3952 H   0  0  0  0  0  0  0  0  0  0  0  0
  1  2  1  0
  2  3  1  0
  3  4  1  0
  4  5  1  0
  5  6  2  0
  6  7  1  0
  7  8  1  0
  8  9  1  0
  7 10  1  0
 10 11  2  0
  3 12  1  0
 12 13  2  0
 12 14  1  0
 11  5  1  0
  1 15  1  0
  1 16  1  0
  1 17  1  0
  2 18  1  0
  2 19  1  0
  3 20  1  0
  4 21  1  0
  4 22  1  0
  6 23  1  0
  8 24  1  0
  8 25  1  0
  9 26  1  0
  9 27  1  0
  9 28  1  0
 10 29  1  0
 14 30  1  0
M  END
>  <Energy>  (984) 
-26.652766532260593

>  <compound_id>  (984) 
1294

>  <target_id>  (984) 
1

>  <reference_id>  (984) 
93

>  <inspiration_ids>  (984) 
[93, 29]

>  <energy_score>  (984) 
-31.29272128885192

>  <distance_score>  (984) 
0.9171524149750242

>  <path>  (984) 
/opt/xchem-fragalysis-2/maxwin/BulkDock/SCRATCH/505733/C1294-P93/C1294-P93.minimised.mol

>  <scratch_subdir>  (984) 
/opt/xchem-fragalysis-2/maxwin/BulkDock/SCRATCH/505733/C1294-P93

>  <fragmenstein_runtime>  (984) 
1.3681297302246094

>  <fragmenstein_outcome>  (984) 
acceptable

>  <fragmenstein_mode>  (984) 
expansion

>  <fragmenstein_error>  (984) 


$$$$
C1294-P29
     RDKit          3D

 30 30  0  0  0  0  0  0  0  0999 V2000
   14.7585    1.4833   15.7859 C   0  0  0  0  0  0  0  0  0  0  0  0
   14.2516    1.1613   14.3916 C   0  0  0  0  0  0  0  0  0  0  0  0
   14.4154   -0.2865   13.8872 C   0  0  0  0  0  0  0  0  0  0  0  0
   13.6440   -1.3567   14.6713 C   0  0  0  0  0  0  0  0  0  0  0  0
   14.2570   -1.9185   15.9133 C   0  0  0  0  0  0  0  0  0  0  0  0
   13.7308   -2.9039   16.7276 C   0  0  0  0  0  0  0  0  0  0  0  0
   14.6727   -3.1217   17.6909 N   0  0  0  0  0  0  0  0  0  0  0  0
   14.5904   -4.0873   18.7662 C   0  0  0  0  0  0  0  0  0  0  0  0
   15.3430   -5.3658   18.4451 C   0  0  0  0  0  0  0  0  0  0  0  0
   15.7004   -2.2544   17.4650 C   0  0  0  0  0  0  0  0  0  0  0  0
   15.4765   -1.5123   16.4027 N   0  0  0  0  0  0  0  0  0  0  0  0
   15.8259   -0.7306   13.5653 C   0  0  0  0  0  0  0  0  0  0  0  0
   16.1310   -1.7977   13.0522 O   0  0  0  0  0  0  0  0  0  0  0  0
   16.7835    0.1828   13.8026 O   0  0  0  0  0  0  0  0  0  0  0  0
   15.8452    1.3813   15.8523 H   0  0  0  0  0  0  0  0  0  0  0  0
   14.3171    0.8383   16.5402 H   0  0  0  0  0  0  0  0  0  0  0  0
   14.5107    2.5182   16.0436 H   0  0  0  0  0  0  0  0  0  0  0  0
   13.1929    1.4287   14.3300 H   0  0  0  0  0  0  0  0  0  0  0  0
   14.7587    1.8369   13.6898 H   0  0  0  0  0  0  0  0  0  0  0  0
   13.9391   -0.2547   12.8935 H   0  0  0  0  0  0  0  0  0  0  0  0
   13.4764   -2.2067   13.9946 H   0  0  0  0  0  0  0  0  0  0  0  0
   12.6451   -0.9749   14.9138 H   0  0  0  0  0  0  0  0  0  0  0  0
   12.8086   -3.4681   16.6780 H   0  0  0  0  0  0  0  0  0  0  0  0
   14.9947   -3.6144   19.6679 H   0  0  0  0  0  0  0  0  0  0  0  0
   13.5316   -4.3024   18.9468 H   0  0  0  0  0  0  0  0  0  0  0  0
   16.4080   -5.1683   18.2829 H   0  0  0  0  0  0  0  0  0  0  0  0
   15.2509   -6.0784   19.2704 H   0  0  0  0  0  0  0  0  0  0  0  0
   14.9503   -5.8366   17.5377 H   0  0  0  0  0  0  0  0  0  0  0  0
   16.5809   -2.2072   18.0921 H   0  0  0  0  0  0  0  0  0  0  0  0
   17.6060   -0.3144   13.6170 H   0  0  0  0  0  0  0  0  0  0  0  0
  1  2  1  0
  2  3  1  0
  3  4  1  0
  4  5  1  0
  5  6  2  0
  6  7  1  0
  7  8  1  0
  8  9  1  0
  7 10  1  0
 10 11  2  0
  3 12  1  0
 12 13  2  0
 12 14  1  0
 11  5  1  0
  1 15  1  0
  1 16  1  0
  1 17  1  0
  2 18  1  0
  2 19  1  0
  3 20  1  0
  4 21  1  0
  4 22  1  0
  6 23  1  0
  8 24  1  0
  8 25  1  0
  9 26  1  0
  9 27  1  0
  9 28  1  0
 10 29  1  0
 14 30  1  0
M  END
>  <Energy>  (985) 
-26.611962692719196

>  <compound_id>  (985) 
1294

>  <target_id>  (985) 
1

>  <reference_id>  (985) 
29

>  <inspiration_ids>  (985) 
[93, 29]

>  <energy_score>  (985) 
-31.251917449310827

>  <distance_score>  (985) 
0.8094661215595141

>  <path>  (985) 
/opt/xchem-fragalysis-2/maxwin/BulkDock/SCRATCH/505733/C1294-P29/C1294-P29.minimised.mol

>  <scratch_subdir>  (985) 
/opt/xchem-fragalysis-2/maxwin/BulkDock/SCRATCH/505733/C1294-P29

>  <fragmenstein_runtime>  (985) 
1.305051326751709

>  <fragmenstein_outcome>  (985) 
acceptable

>  <fragmenstein_mode>  (985) 
expansion

>  <fragmenstein_error>  (985) 


$$$$
C740-P93
     RDKit          3D

 33 35  0  0  0  0  0  0  0  0999 V2000
   11.4119   -3.4255   15.5591 C   0  0  0  0  0  0  0  0  0  0  0  0
   11.1220   -1.9452   15.3638 C   0  0  0  0  0  0  0  0  0  0  0  0
   12.2445   -1.3485   14.6783 N   0  0  0  0  0  0  0  0  0  0  0  0
   12.6438   -1.8063   13.4544 C   0  0  0  0  0  0  0  0  0  0  0  0
   13.9444   -1.7967   13.3259 N   0  0  0  0  0  0  0  0  0  0  0  0
   14.3900   -1.3098   14.5102 C   0  0  0  0  0  0  0  0  0  0  0  0
   13.3594   -0.8812   15.3125 C   0  0  0  0  0  0  0  0  0  0  0  0
   13.4859   -0.3934   16.7053 C   0  0  0  0  0  0  0  0  0  0  0  0
   14.9356   -0.5219   17.2051 C   0  0  0  0  0  0  0  0  0  0  0  0
   15.6944   -1.7162   16.5550 C   0  0  0  0  0  0  0  0  0  0  0  0
   15.0530   -3.0779   16.8995 C   0  0  0  0  0  0  0  0  0  0  0  0
   15.7250   -3.4635   18.1433 N   0  0  0  0  0  0  0  0  0  0  0  0
   17.0959   -3.0656   17.8893 C   0  0  0  0  0  0  0  0  0  0  0  0
   17.0263   -1.7892   17.1991 N   0  0  0  0  0  0  0  0  0  0  0  0
   15.7686   -1.4773   15.0161 C   0  0  0  0  0  0  0  0  0  0  0  0
   10.8483   -3.9946   14.8203 H   0  0  0  0  0  0  0  0  0  0  0  0
   11.1507   -3.7834   16.5479 H   0  0  0  0  0  0  0  0  0  0  0  0
   12.4677   -3.6823   15.4411 H   0  0  0  0  0  0  0  0  0  0  0  0
   10.2075   -1.7648   14.8034 H   0  0  0  0  0  0  0  0  0  0  0  0
   11.0153   -1.4185   16.3045 H   0  0  0  0  0  0  0  0  0  0  0  0
   11.9500   -2.2806   12.7871 H   0  0  0  0  0  0  0  0  0  0  0  0
   12.8572   -1.0020   17.3498 H   0  0  0  0  0  0  0  0  0  0  0  0
   13.1474    0.6443   16.7872 H   0  0  0  0  0  0  0  0  0  0  0  0
   14.9268   -0.5942   18.3004 H   0  0  0  0  0  0  0  0  0  0  0  0
   15.4699    0.4095   16.9686 H   0  0  0  0  0  0  0  0  0  0  0  0
   15.2555   -3.8359   16.1328 H   0  0  0  0  0  0  0  0  0  0  0  0
   13.9759   -3.0429   17.0716 H   0  0  0  0  0  0  0  0  0  0  0  0
   15.3887   -2.8580   18.8918 H   0  0  0  0  0  0  0  0  0  0  0  0
   17.5941   -3.8165   17.2641 H   0  0  0  0  0  0  0  0  0  0  0  0
   17.6644   -2.9774   18.8200 H   0  0  0  0  0  0  0  0  0  0  0  0
   17.7667   -1.7593   16.5007 H   0  0  0  0  0  0  0  0  0  0  0  0
   16.2626   -2.3200   14.5182 H   0  0  0  0  0  0  0  0  0  0  0  0
   16.3516   -0.5754   14.7933 H   0  0  0  0  0  0  0  0  0  0  0  0
  1  2  1  0
  2  3  1  0
  3  4  1  0
  4  5  2  0
  5  6  1  0
  6  7  2  0
  7  8  1  0
  8  9  1  0
  9 10  1  0
 10 11  1  0
 11 12  1  0
 12 13  1  0
 13 14  1  0
 10 15  1  0
  7  3  1  0
 14 10  1  0
 15  6  1  0
  1 16  1  0
  1 17  1  0
  1 18  1  0
  2 19  1  0
  2 20  1  0
  4 21  1  0
  8 22  1  0
  8 23  1  0
  9 24  1  0
  9 25  1  0
 11 26  1  0
 11 27  1  0
 12 28  1  0
 13 29  1  0
 13 30  1  0
 14 31  1  0
 15 32  1  0
 15 33  1  0
M  END
>  <Energy>  (986) 
16.279572906871724

>  <compound_id>  (986) 
740

>  <target_id>  (986) 
1

>  <reference_id>  (986) 
93

>  <inspiration_ids>  (986) 
[93, 36]

>  <energy_score>  (986) 
-7.6606516245879135

>  <distance_score>  (986) 
2.091450099026905

>  <path>  (986) 
/opt/xchem-fragalysis-2/maxwin/BulkDock/SCRATCH/505733/C740-P93/C740-P93.minimised.mol

>  <scratch_subdir>  (986) 
/opt/xchem-fragalysis-2/maxwin/BulkDock/SCRATCH/505733/C740-P93

>  <fragmenstein_runtime>  (986) 
1.2946240901947021

>  <fragmenstein_outcome>  (986) 
too moved

>  <fragmenstein_mode>  (986) 
expansion

>  <fragmenstein_error>  (986) 


$$$$
C740-P36
     RDKit          3D

 33 35  0  0  0  0  0  0  0  0999 V2000
    9.5975    1.5089   15.9536 C   0  0  0  0  0  0  0  0  0  0  0  0
   11.0397    1.3298   15.5226 C   0  0  0  0  0  0  0  0  0  0  0  0
   11.5114   -0.0386   15.5705 N   0  0  0  0  0  0  0  0  0  0  0  0
   10.8531   -1.1454   15.1056 C   0  0  0  0  0  0  0  0  0  0  0  0
   11.6172   -2.2171   15.1159 N   0  0  0  0  0  0  0  0  0  0  0  0
   12.8172   -1.7774   15.5807 C   0  0  0  0  0  0  0  0  0  0  0  0
   12.7437   -0.4650   15.9737 C   0  0  0  0  0  0  0  0  0  0  0  0
   13.8136    0.3058   16.6493 C   0  0  0  0  0  0  0  0  0  0  0  0
   15.1483   -0.4542   16.5690 C   0  0  0  0  0  0  0  0  0  0  0  0
   15.0260   -1.9959   16.7206 C   0  0  0  0  0  0  0  0  0  0  0  0
   14.6122   -2.4495   18.1206 C   0  0  0  0  0  0  0  0  0  0  0  0
   15.2688   -3.7485   18.3148 N   0  0  0  0  0  0  0  0  0  0  0  0
   16.2687   -3.8788   17.2759 C   0  0  0  0  0  0  0  0  0  0  0  0
   16.3846   -2.5868   16.6292 N   0  0  0  0  0  0  0  0  0  0  0  0
   14.0588   -2.5809   15.6557 C   0  0  0  0  0  0  0  0  0  0  0  0
    9.4195    1.1149   16.9550 H   0  0  0  0  0  0  0  0  0  0  0  0
    8.9313    0.9779   15.2750 H   0  0  0  0  0  0  0  0  0  0  0  0
    9.3240    2.5681   15.9457 H   0  0  0  0  0  0  0  0  0  0  0  0
   11.1754    1.6728   14.4909 H   0  0  0  0  0  0  0  0  0  0  0  0
   11.6812    1.9374   16.1682 H   0  0  0  0  0  0  0  0  0  0  0  0
    9.8316   -1.1178   14.7532 H   0  0  0  0  0  0  0  0  0  0  0  0
   13.5450    0.4480   17.7017 H   0  0  0  0  0  0  0  0  0  0  0  0
   13.9361    1.2982   16.2028 H   0  0  0  0  0  0  0  0  0  0  0  0
   15.8336   -0.0385   17.3194 H   0  0  0  0  0  0  0  0  0  0  0  0
   15.6036   -0.2388   15.5912 H   0  0  0  0  0  0  0  0  0  0  0  0
   13.5346   -2.5784   18.2293 H   0  0  0  0  0  0  0  0  0  0  0  0
   14.9618   -1.7499   18.8894 H   0  0  0  0  0  0  0  0  0  0  0  0
   15.7136   -3.7648   19.2295 H   0  0  0  0  0  0  0  0  0  0  0  0
   15.9570   -4.6390   16.5515 H   0  0  0  0  0  0  0  0  0  0  0  0
   17.2325   -4.2001   17.6849 H   0  0  0  0  0  0  0  0  0  0  0  0
   17.0211   -2.0276   17.1933 H   0  0  0  0  0  0  0  0  0  0  0  0
   13.8108   -3.6265   15.8662 H   0  0  0  0  0  0  0  0  0  0  0  0
   14.5489   -2.5307   14.6761 H   0  0  0  0  0  0  0  0  0  0  0  0
  1  2  1  0
  2  3  1  0
  3  4  1  0
  4  5  2  0
  5  6  1  0
  6  7  2  0
  7  8  1  0
  8  9  1  0
  9 10  1  0
 10 11  1  0
 11 12  1  0
 12 13  1  0
 13 14  1  0
 10 15  1  0
  7  3  1  0
 14 10  1  0
 15  6  1  0
  1 16  1  0
  1 17  1  0
  1 18  1  0
  2 19  1  0
  2 20  1  0
  4 21  1  0
  8 22  1  0
  8 23  1  0
  9 24  1  0
  9 25  1  0
 11 26  1  0
 11 27  1  0
 12 28  1  0
 13 29  1  0
 13 30  1  0
 14 31  1  0
 15 32  1  0
 15 33  1  0
M  END
>  <Energy>  (987) 
3.1540027972233684

>  <compound_id>  (987) 
740

>  <target_id>  (987) 
1

>  <reference_id>  (987) 
36

>  <inspiration_ids>  (987) 
[93, 36]

>  <energy_score>  (987) 
-20.786221734236847

>  <distance_score>  (987) 
1.9495891314880665

>  <path>  (987) 
/opt/xchem-fragalysis-2/maxwin/BulkDock/SCRATCH/505733/C740-P36/C740-P36.minimised.mol

>  <scratch_subdir>  (987) 
/opt/xchem-fragalysis-2/maxwin/BulkDock/SCRATCH/505733/C740-P36

>  <fragmenstein_runtime>  (987) 
1.6661567687988281

>  <fragmenstein_outcome>  (987) 
too moved

>  <fragmenstein_mode>  (987) 
expansion

>  <fragmenstein_error>  (987) 


$$$$
C1298-P93
     RDKit          3D

 21 22  0  0  0  0  0  0  0  0999 V2000
   14.6687   -3.5472   20.4824 C   0  0  0  0  0  0  0  0  0  0  0  0
   14.5959   -4.2148   19.1185 C   0  0  0  0  0  0  0  0  0  0  0  0
   14.9009   -3.3000   18.0350 N   0  0  0  0  0  0  0  0  0  0  0  0
   16.0825   -2.6179   17.9179 C   0  0  0  0  0  0  0  0  0  0  0  0
   16.0072   -1.6677   17.0177 N   0  0  0  0  0  0  0  0  0  0  0  0
   14.7436   -1.7720   16.4981 C   0  0  0  0  0  0  0  0  0  0  0  0
   14.1121   -0.9424   15.5669 C   0  0  0  0  0  0  0  0  0  0  0  0
   12.7926   -1.2272   15.2151 C   0  0  0  0  0  0  0  0  0  0  0  0
   11.7799    0.1982   14.0898 I   0  0  0  0  0  0  0  0  0  0  0  0
   12.1470   -2.3741   15.6832 C   0  0  0  0  0  0  0  0  0  0  0  0
   12.7703   -3.2165   16.6189 C   0  0  0  0  0  0  0  0  0  0  0  0
   14.0523   -2.8490   17.0508 C   0  0  0  0  0  0  0  0  0  0  0  0
   15.6900   -3.2324   20.7206 H   0  0  0  0  0  0  0  0  0  0  0  0
   14.3432   -4.2434   21.2615 H   0  0  0  0  0  0  0  0  0  0  0  0
   14.0301   -2.6608   20.5232 H   0  0  0  0  0  0  0  0  0  0  0  0
   15.3209   -5.0326   19.0602 H   0  0  0  0  0  0  0  0  0  0  0  0
   13.5945   -4.6238   18.9564 H   0  0  0  0  0  0  0  0  0  0  0  0
   16.9440   -2.8243   18.5399 H   0  0  0  0  0  0  0  0  0  0  0  0
   14.6418   -0.0754   15.1894 H   0  0  0  0  0  0  0  0  0  0  0  0
   11.1378   -2.6074   15.3493 H   0  0  0  0  0  0  0  0  0  0  0  0
   12.2587   -4.0874   17.0154 H   0  0  0  0  0  0  0  0  0  0  0  0
  1  2  1  0
  2  3  1  0
  3  4  1  0
  4  5  2  0
  5  6  1  0
  6  7  2  0
  7  8  1  0
  8  9  1  0
  8 10  2  0
 10 11  1  0
 11 12  2  0
 12  3  1  0
 12  6  1  0
  1 13  1  0
  1 14  1  0
  1 15  1  0
  2 16  1  0
  2 17  1  0
  4 18  1  0
  7 19  1  0
 10 20  1  0
 11 21  1  0
M  END
>  <Energy>  (988) 
9.9952287626864482

>  <compound_id>  (988) 
1298

>  <target_id>  (988) 
1

>  <reference_id>  (988) 
93

>  <inspiration_ids>  (988) 
[93, 60]

>  <energy_score>  (988) 
-6.402686361665843

>  <distance_score>  (988) 
0.994691680395022

>  <path>  (988) 
/opt/xchem-fragalysis-2/maxwin/BulkDock/SCRATCH/505733/C1298-P93/C1298-P93.minimised.mol

>  <scratch_subdir>  (988) 
/opt/xchem-fragalysis-2/maxwin/BulkDock/SCRATCH/505733/C1298-P93

>  <fragmenstein_runtime>  (988) 
1.0884976387023926

>  <fragmenstein_outcome>  (988) 
acceptable

>  <fragmenstein_mode>  (988) 
expansion

>  <fragmenstein_error>  (988) 


$$$$
C1298-P60
     RDKit          3D

 21 22  0  0  0  0  0  0  0  0999 V2000
   14.5451   -3.6220   20.4170 C   0  0  0  0  0  0  0  0  0  0  0  0
   14.5463   -4.2720   19.0428 C   0  0  0  0  0  0  0  0  0  0  0  0
   14.8269   -3.3197   17.9855 N   0  0  0  0  0  0  0  0  0  0  0  0
   15.9985   -2.6204   17.8699 C   0  0  0  0  0  0  0  0  0  0  0  0
   15.9051   -1.6601   16.9813 N   0  0  0  0  0  0  0  0  0  0  0  0
   14.6367   -1.7692   16.4730 C   0  0  0  0  0  0  0  0  0  0  0  0
   13.9875   -0.9392   15.5527 C   0  0  0  0  0  0  0  0  0  0  0  0
   12.6671   -1.2359   15.2109 C   0  0  0  0  0  0  0  0  0  0  0  0
   11.6210    0.1662   14.0850 I   0  0  0  0  0  0  0  0  0  0  0  0
   12.0351   -2.3874   15.6847 C   0  0  0  0  0  0  0  0  0  0  0  0
   12.6741   -3.2268   16.6100 C   0  0  0  0  0  0  0  0  0  0  0  0
   13.9602   -2.8563   17.0239 C   0  0  0  0  0  0  0  0  0  0  0  0
   15.5291   -3.2148   20.6713 H   0  0  0  0  0  0  0  0  0  0  0  0
   14.2776   -4.3578   21.1818 H   0  0  0  0  0  0  0  0  0  0  0  0
   13.8213   -2.8025   20.4628 H   0  0  0  0  0  0  0  0  0  0  0  0
   15.3116   -5.0533   18.9852 H   0  0  0  0  0  0  0  0  0  0  0  0
   13.5744   -4.7324   18.8451 H   0  0  0  0  0  0  0  0  0  0  0  0
   16.8674   -2.8258   18.4819 H   0  0  0  0  0  0  0  0  0  0  0  0
   14.5059   -0.0662   15.1736 H   0  0  0  0  0  0  0  0  0  0  0  0
   11.0247   -2.6292   15.3614 H   0  0  0  0  0  0  0  0  0  0  0  0
   12.1720   -4.1020   17.0086 H   0  0  0  0  0  0  0  0  0  0  0  0
  1  2  1  0
  2  3  1  0
  3  4  1  0
  4  5  2  0
  5  6  1  0
  6  7  2  0
  7  8  1  0
  8  9  1  0
  8 10  2  0
 10 11  1  0
 11 12  2  0
 12  3  1  0
 12  6  1  0
  1 13  1  0
  1 14  1  0
  1 15  1  0
  2 16  1  0
  2 17  1  0
  4 18  1  0
  7 19  1  0
 10 20  1  0
 11 21  1  0
M  END
>  <Energy>  (989) 
9.2446672903553786

>  <compound_id>  (989) 
1298

>  <target_id>  (989) 
1

>  <reference_id>  (989) 
60

>  <inspiration_ids>  (989) 
[93, 60]

>  <energy_score>  (989) 
-7.153247833997597

>  <distance_score>  (989) 
0.9972278938103682

>  <path>  (989) 
/opt/xchem-fragalysis-2/maxwin/BulkDock/SCRATCH/505733/C1298-P60/C1298-P60.minimised.mol

>  <scratch_subdir>  (989) 
/opt/xchem-fragalysis-2/maxwin/BulkDock/SCRATCH/505733/C1298-P60

>  <fragmenstein_runtime>  (989) 
0.9817304611206055

>  <fragmenstein_outcome>  (989) 
acceptable

>  <fragmenstein_mode>  (989) 
expansion

>  <fragmenstein_error>  (989) 


$$$$
C1299-P93
     RDKit          3D

 35 37  0  0  0  0  0  0  0  0999 V2000
   15.3861    0.9260   12.1106 C   0  0  0  0  0  0  0  0  0  0  0  0
   15.6788    0.4893   13.5369 C   0  0  0  0  0  0  0  0  0  0  0  0
   14.4782    0.1413   14.2611 N   0  0  0  0  0  0  0  0  0  0  0  0
   13.4987    0.9897   14.7352 C   0  0  0  0  0  0  0  0  0  0  0  0
   13.7300    2.3235   14.8592 N   0  0  0  0  0  0  0  0  0  0  0  0
   12.9332    2.9178   15.8604 N   0  0  0  0  0  0  0  0  0  0  0  0
   12.4312    0.2928   15.0952 N   0  0  0  0  0  0  0  0  0  0  0  0
   12.8225   -1.0219   15.0500 C   0  0  0  0  0  0  0  0  0  0  0  0
   14.1564   -1.0944   14.7329 C   0  0  0  0  0  0  0  0  0  0  0  0
   15.0719   -2.1583   15.2139 C   0  0  0  0  0  0  0  0  0  0  0  0
   14.4815   -2.6507   16.5700 C   0  0  0  0  0  0  0  0  0  0  0  0
   13.0083   -3.1248   16.4198 C   0  0  0  0  0  0  0  0  0  0  0  0
   12.0754   -2.1421   15.6666 C   0  0  0  0  0  0  0  0  0  0  0  0
   15.3060   -3.6959   17.1872 N   0  0  0  0  0  0  0  0  0  0  0  0
   15.3336   -3.2926   18.5782 C   0  0  0  0  0  0  0  0  0  0  0  0
   15.3749   -1.8513   18.5722 N   0  0  0  0  0  0  0  0  0  0  0  0
   14.5172   -1.4989   17.4503 O   0  0  0  0  0  0  0  0  0  0  0  0
   16.3189    1.1496   11.5837 H   0  0  0  0  0  0  0  0  0  0  0  0
   14.7602    1.8239   12.0869 H   0  0  0  0  0  0  0  0  0  0  0  0
   14.8612    0.1387   11.5586 H   0  0  0  0  0  0  0  0  0  0  0  0
   16.3388   -0.3839   13.5142 H   0  0  0  0  0  0  0  0  0  0  0  0
   16.1991    1.2760   14.0922 H   0  0  0  0  0  0  0  0  0  0  0  0
   14.6853    2.6744   14.8085 H   0  0  0  0  0  0  0  0  0  0  0  0
   11.9526    2.6870   15.6565 H   0  0  0  0  0  0  0  0  0  0  0  0
   13.0995    2.4497   16.7580 H   0  0  0  0  0  0  0  0  0  0  0  0
   16.0713   -1.7388   15.3843 H   0  0  0  0  0  0  0  0  0  0  0  0
   15.1705   -2.9592   14.4833 H   0  0  0  0  0  0  0  0  0  0  0  0
   12.9888   -4.0852   15.8938 H   0  0  0  0  0  0  0  0  0  0  0  0
   12.5753   -3.3177   17.4077 H   0  0  0  0  0  0  0  0  0  0  0  0
   11.3339   -1.7290   16.3482 H   0  0  0  0  0  0  0  0  0  0  0  0
   11.5194   -2.6857   14.8938 H   0  0  0  0  0  0  0  0  0  0  0  0
   16.2539   -3.5925   16.8365 H   0  0  0  0  0  0  0  0  0  0  0  0
   16.2010   -3.7142   19.0957 H   0  0  0  0  0  0  0  0  0  0  0  0
   14.4388   -3.6477   19.1024 H   0  0  0  0  0  0  0  0  0  0  0  0
   16.2842   -1.5205   18.2580 H   0  0  0  0  0  0  0  0  0  0  0  0
  1  2  1  0
  2  3  1  0
  3  4  1  0
  4  5  1  0
  5  6  1  0
  4  7  2  0
  7  8  1  0
  8  9  2  0
  9 10  1  0
 10 11  1  0
 11 12  1  0
 12 13  1  0
 11 14  1  0
 14 15  1  0
 15 16  1  0
 16 17  1  0
  9  3  1  0
 17 11  1  0
 13  8  1  0
  1 18  1  0
  1 19  1  0
  1 20  1  0
  2 21  1  0
  2 22  1  0
  5 23  1  0
  6 24  1  0
  6 25  1  0
 10 26  1  0
 10 27  1  0
 12 28  1  0
 12 29  1  0
 13 30  1  0
 13 31  1  0
 14 32  1  0
 15 33  1  0
 15 34  1  0
 16 35  1  0
M  END
>  <Energy>  (990) 
42.401861661285388

>  <compound_id>  (990) 
1299

>  <target_id>  (990) 
1

>  <reference_id>  (990) 
93

>  <inspiration_ids>  (990) 
[93, 61]

>  <energy_score>  (990) 
-37.58204304289464

>  <distance_score>  (990) 
1.5768270712925763

>  <path>  (990) 
/opt/xchem-fragalysis-2/maxwin/BulkDock/SCRATCH/505733/C1299-P93/C1299-P93.minimised.mol

>  <scratch_subdir>  (990) 
/opt/xchem-fragalysis-2/maxwin/BulkDock/SCRATCH/505733/C1299-P93

>  <fragmenstein_runtime>  (990) 
1.4144678115844727

>  <fragmenstein_outcome>  (990) 
too moved

>  <fragmenstein_mode>  (990) 
expansion

>  <fragmenstein_error>  (990) 


$$$$
C1299-P61
     RDKit          3D

 35 37  0  0  0  0  0  0  0  0999 V2000
   15.3554    0.8355   12.0725 C   0  0  0  0  0  0  0  0  0  0  0  0
   15.6607    0.4537   13.5118 C   0  0  0  0  0  0  0  0  0  0  0  0
   14.4642    0.1528   14.2636 N   0  0  0  0  0  0  0  0  0  0  0  0
   13.5079    1.0365   14.7201 C   0  0  0  0  0  0  0  0  0  0  0  0
   13.7664    2.3677   14.8053 N   0  0  0  0  0  0  0  0  0  0  0  0
   12.9882    3.0049   15.7961 N   0  0  0  0  0  0  0  0  0  0  0  0
   12.4302    0.3746   15.1094 N   0  0  0  0  0  0  0  0  0  0  0  0
   12.8004   -0.9465   15.1260 C   0  0  0  0  0  0  0  0  0  0  0  0
   14.1265   -1.0594   14.7853 C   0  0  0  0  0  0  0  0  0  0  0  0
   15.0336   -2.1327   15.2621 C   0  0  0  0  0  0  0  0  0  0  0  0
   14.4395   -2.6480   16.6067 C   0  0  0  0  0  0  0  0  0  0  0  0
   12.9609   -3.0879   16.4369 C   0  0  0  0  0  0  0  0  0  0  0  0
   12.0393   -2.0031   15.8331 C   0  0  0  0  0  0  0  0  0  0  0  0
   15.2416   -3.7312   17.1860 N   0  0  0  0  0  0  0  0  0  0  0  0
   15.2899   -3.3652   18.5874 C   0  0  0  0  0  0  0  0  0  0  0  0
   15.3666   -1.9253   18.6183 N   0  0  0  0  0  0  0  0  0  0  0  0
   14.5030   -1.5242   17.5175 O   0  0  0  0  0  0  0  0  0  0  0  0
   16.2841    1.0256   11.5255 H   0  0  0  0  0  0  0  0  0  0  0  0
   14.7400    1.7395   12.0199 H   0  0  0  0  0  0  0  0  0  0  0  0
   14.8141    0.0330   11.5597 H   0  0  0  0  0  0  0  0  0  0  0  0
   16.3087   -0.4287   13.5176 H   0  0  0  0  0  0  0  0  0  0  0  0
   16.1985    1.2554   14.0276 H   0  0  0  0  0  0  0  0  0  0  0  0
   14.7292    2.6955   14.7450 H   0  0  0  0  0  0  0  0  0  0  0  0
   12.0002    2.7907   15.6095 H   0  0  0  0  0  0  0  0  0  0  0  0
   13.1461    2.5587   16.7068 H   0  0  0  0  0  0  0  0  0  0  0  0
   16.0335   -1.7184   15.4433 H   0  0  0  0  0  0  0  0  0  0  0  0
   15.1346   -2.9224   14.5200 H   0  0  0  0  0  0  0  0  0  0  0  0
   12.9227   -3.9726   15.7935 H   0  0  0  0  0  0  0  0  0  0  0  0
   12.5402   -3.3946   17.4011 H   0  0  0  0  0  0  0  0  0  0  0  0
   11.4820   -1.5173   16.6333 H   0  0  0  0  0  0  0  0  0  0  0  0
   11.3058   -2.4634   15.1624 H   0  0  0  0  0  0  0  0  0  0  0  0
   16.1898   -3.6431   16.8319 H   0  0  0  0  0  0  0  0  0  0  0  0
   16.1508   -3.8210   19.0863 H   0  0  0  0  0  0  0  0  0  0  0  0
   14.3906   -3.7120   19.1096 H   0  0  0  0  0  0  0  0  0  0  0  0
   16.2795   -1.6078   18.3012 H   0  0  0  0  0  0  0  0  0  0  0  0
  1  2  1  0
  2  3  1  0
  3  4  1  0
  4  5  1  0
  5  6  1  0
  4  7  2  0
  7  8  1  0
  8  9  2  0
  9 10  1  0
 10 11  1  0
 11 12  1  0
 12 13  1  0
 11 14  1  0
 14 15  1  0
 15 16  1  0
 16 17  1  0
  9  3  1  0
 17 11  1  0
 13  8  1  0
  1 18  1  0
  1 19  1  0
  1 20  1  0
  2 21  1  0
  2 22  1  0
  5 23  1  0
  6 24  1  0
  6 25  1  0
 10 26  1  0
 10 27  1  0
 12 28  1  0
 12 29  1  0
 13 30  1  0
 13 31  1  0
 14 32  1  0
 15 33  1  0
 15 34  1  0
 16 35  1  0
M  END
>  <Energy>  (991) 
40.115613185535551

>  <compound_id>  (991) 
1299

>  <target_id>  (991) 
1

>  <reference_id>  (991) 
61

>  <inspiration_ids>  (991) 
[93, 61]

>  <energy_score>  (991) 
-39.86829151864475

>  <distance_score>  (991) 
1.5962060793650221

>  <path>  (991) 
/opt/xchem-fragalysis-2/maxwin/BulkDock/SCRATCH/505733/C1299-P61/C1299-P61.minimised.mol

>  <scratch_subdir>  (991) 
/opt/xchem-fragalysis-2/maxwin/BulkDock/SCRATCH/505733/C1299-P61

>  <fragmenstein_runtime>  (991) 
1.67478346824646

>  <fragmenstein_outcome>  (991) 
too moved

>  <fragmenstein_mode>  (991) 
expansion

>  <fragmenstein_error>  (991) 


$$$$
C1303-P93
     RDKit          3D

 63 65  0  0  0  0  0  0  0  0999 V2000
   17.5613    0.2892   13.0702 C   0  0  0  0  0  0  0  0  0  0  0  0
   16.4037    0.7200   13.7868 O   0  0  0  0  0  0  0  0  0  0  0  0
   16.6108    0.9203   15.1219 C   0  0  0  0  0  0  0  0  0  0  0  0
   17.7037    0.7965   15.6643 O   0  0  0  0  0  0  0  0  0  0  0  0
   15.3202    1.3934   15.8451 C   0  0  0  0  0  0  0  0  0  0  0  0
   15.6117    1.5563   17.3386 C   0  0  0  0  0  0  0  0  0  0  0  0
   14.9954    2.8075   15.2928 C   0  0  0  0  0  0  0  0  0  0  0  0
   13.9370    2.5843   14.2399 C   0  0  0  0  0  0  0  0  0  0  0  0
   13.1492    1.4280   14.8108 C   0  0  0  0  0  0  0  0  0  0  0  0
   14.1422    0.5657   15.4619 N   0  0  0  0  0  0  0  0  0  0  0  0
   13.6439   -0.6106   16.1928 C   0  0  0  0  0  0  0  0  0  0  0  0
   13.3082   -0.2070   17.5035 O   0  0  0  0  0  0  0  0  0  0  0  0
   12.3420   -1.1750   15.5269 C   0  0  0  0  0  0  0  0  0  0  0  0
   12.6300   -1.8760   14.1896 C   0  0  0  0  0  0  0  0  0  0  0  0
   14.1097   -1.8619   13.7730 C   0  0  0  0  0  0  0  0  0  0  0  0
   15.0965   -2.2482   14.8972 C   0  0  0  0  0  0  0  0  0  0  0  0
   14.5212   -1.9466   16.2799 C   0  0  0  0  0  0  0  0  0  0  0  0
   15.2672   -2.2068   17.5282 N   0  0  0  0  0  0  0  0  0  0  0  0
   16.6825   -2.0648   17.4909 C   0  0  0  0  0  0  0  0  0  0  0  0
   17.1346   -2.0686   18.8130 O   0  0  0  0  0  0  0  0  0  0  0  0
   17.3558   -3.0931   16.7547 N   0  0  0  0  0  0  0  0  0  0  0  0
   17.0309   -4.4959   17.0305 C   0  0  0  0  0  0  0  0  0  0  0  0
   17.6900   -5.3412   15.9129 C   0  0  0  0  0  0  0  0  0  0  0  0
   18.9485   -6.0419   16.4086 C   0  0  0  0  0  0  0  0  0  0  0  0
   18.6301   -6.9630   17.5898 C   0  0  0  0  0  0  0  0  0  0  0  0
   17.6268   -6.4447   18.5243 N   0  0  0  0  0  0  0  0  0  0  0  0
   17.4849   -4.9886   18.4320 C   0  0  0  0  0  0  0  0  0  0  0  0
   17.9610   -0.6365   13.4962 H   0  0  0  0  0  0  0  0  0  0  0  0
   17.2645    0.0926   12.0364 H   0  0  0  0  0  0  0  0  0  0  0  0
   18.3215    1.0763   13.0699 H   0  0  0  0  0  0  0  0  0  0  0  0
   16.4791    2.2080   17.5018 H   0  0  0  0  0  0  0  0  0  0  0  0
   14.7721    2.0150   17.8726 H   0  0  0  0  0  0  0  0  0  0  0  0
   15.8365    0.6091   17.8288 H   0  0  0  0  0  0  0  0  0  0  0  0
   15.8656    3.3238   14.8721 H   0  0  0  0  0  0  0  0  0  0  0  0
   14.5737    3.4528   16.0746 H   0  0  0  0  0  0  0  0  0  0  0  0
   13.3183    3.4724   14.0798 H   0  0  0  0  0  0  0  0  0  0  0  0
   14.3917    2.3110   13.2811 H   0  0  0  0  0  0  0  0  0  0  0  0
   12.4244    1.8052   15.5425 H   0  0  0  0  0  0  0  0  0  0  0  0
   12.6100    0.9362   13.9965 H   0  0  0  0  0  0  0  0  0  0  0  0
   13.1402    0.7438   17.4120 H   0  0  0  0  0  0  0  0  0  0  0  0
   11.5613   -0.4131   15.4159 H   0  0  0  0  0  0  0  0  0  0  0  0
   11.8613   -1.8927   16.2072 H   0  0  0  0  0  0  0  0  0  0  0  0
   12.0382   -1.4021   13.4012 H   0  0  0  0  0  0  0  0  0  0  0  0
   12.2751   -2.9109   14.2529 H   0  0  0  0  0  0  0  0  0  0  0  0
   14.3577   -0.8636   13.3983 H   0  0  0  0  0  0  0  0  0  0  0  0
   14.2644   -2.4986   12.8953 H   0  0  0  0  0  0  0  0  0  0  0  0
   15.3361   -3.3126   14.8323 H   0  0  0  0  0  0  0  0  0  0  0  0
   16.0408   -1.7259   14.7304 H   0  0  0  0  0  0  0  0  0  0  0  0
   13.7860   -2.7554   16.4137 H   0  0  0  0  0  0  0  0  0  0  0  0
   14.9045   -1.5199   18.1938 H   0  0  0  0  0  0  0  0  0  0  0  0
   16.9683   -1.1034   17.0703 H   0  0  0  0  0  0  0  0  0  0  0  0
   16.4334   -2.5532   19.2752 H   0  0  0  0  0  0  0  0  0  0  0  0
   18.3501   -2.9428   16.9129 H   0  0  0  0  0  0  0  0  0  0  0  0
   15.9493   -4.6445   16.9322 H   0  0  0  0  0  0  0  0  0  0  0  0
   17.9228   -4.7348   15.0282 H   0  0  0  0  0  0  0  0  0  0  0  0
   16.9771   -6.0981   15.5633 H   0  0  0  0  0  0  0  0  0  0  0  0
   19.3962   -6.6275   15.5976 H   0  0  0  0  0  0  0  0  0  0  0  0
   19.6922   -5.2925   16.7073 H   0  0  0  0  0  0  0  0  0  0  0  0
   19.5553   -7.1712   18.1390 H   0  0  0  0  0  0  0  0  0  0  0  0
   18.2761   -7.9293   17.2105 H   0  0  0  0  0  0  0  0  0  0  0  0
   16.7286   -6.8942   18.3396 H   0  0  0  0  0  0  0  0  0  0  0  0
   16.7509   -4.6775   19.1829 H   0  0  0  0  0  0  0  0  0  0  0  0
   18.4361   -4.5239   18.7227 H   0  0  0  0  0  0  0  0  0  0  0  0
  1  2  1  0
  2  3  1  0
  3  4  2  0
  3  5  1  0
  5  6  1  0
  5  7  1  0
  7  8  1  0
  8  9  1  0
  9 10  1  0
 10 11  1  0
 11 12  1  0
 11 13  1  0
 13 14  1  0
 14 15  1  0
 15 16  1  0
 16 17  1  0
 17 18  1  0
 18 19  1  0
 19 20  1  0
 19 21  1  0
 21 22  1  0
 22 23  1  0
 23 24  1  0
 24 25  1  0
 25 26  1  0
 26 27  1  0
 10  5  1  0
 17 11  1  0
 27 22  1  0
  1 28  1  0
  1 29  1  0
  1 30  1  0
  6 31  1  0
  6 32  1  0
  6 33  1  0
  7 34  1  0
  7 35  1  0
  8 36  1  0
  8 37  1  0
  9 38  1  0
  9 39  1  0
 12 40  1  0
 13 41  1  0
 13 42  1  0
 14 43  1  0
 14 44  1  0
 15 45  1  0
 15 46  1  0
 16 47  1  0
 16 48  1  0
 17 49  1  0
 18 50  1  0
 19 51  1  0
 20 52  1  0
 21 53  1  0
 22 54  1  0
 23 55  1  0
 23 56  1  0
 24 57  1  0
 24 58  1  0
 25 59  1  0
 25 60  1  0
 26 61  1  0
 27 62  1  0
 27 63  1  0
M  END
>  <Energy>  (992) 
-31.584869478873738

>  <compound_id>  (992) 
1303

>  <target_id>  (992) 
1

>  <reference_id>  (992) 
93

>  <inspiration_ids>  (992) 
[93, 76]

>  <energy_score>  (992) 
-52.4370415350802

>  <distance_score>  (992) 
1.5731726067276655

>  <path>  (992) 
/opt/xchem-fragalysis-2/maxwin/BulkDock/SCRATCH/505733/C1303-P93/C1303-P93.minimised.mol

>  <scratch_subdir>  (992) 
/opt/xchem-fragalysis-2/maxwin/BulkDock/SCRATCH/505733/C1303-P93

>  <fragmenstein_runtime>  (992) 
4.909870862960815

>  <fragmenstein_outcome>  (992) 
too moved

>  <fragmenstein_mode>  (992) 
expansion

>  <fragmenstein_error>  (992) 


$$$$
C1303-P76
     RDKit          3D

 63 65  0  0  0  0  0  0  0  0999 V2000
   18.5773    0.8272   13.9027 C   0  0  0  0  0  0  0  0  0  0  0  0
   17.2660    0.9397   14.4563 O   0  0  0  0  0  0  0  0  0  0  0  0
   17.2197    0.8718   15.8174 C   0  0  0  0  0  0  0  0  0  0  0  0
   18.2169    0.7581   16.5246 O   0  0  0  0  0  0  0  0  0  0  0  0
   15.7760    1.0169   16.3696 C   0  0  0  0  0  0  0  0  0  0  0  0
   15.8183    1.0303   17.8975 C   0  0  0  0  0  0  0  0  0  0  0  0
   15.2435    2.4221   15.9845 C   0  0  0  0  0  0  0  0  0  0  0  0
   14.5786    2.2668   14.6441 C   0  0  0  0  0  0  0  0  0  0  0  0
   14.2911    0.7816   14.5270 C   0  0  0  0  0  0  0  0  0  0  0  0
   14.7964    0.1113   15.7307 N   0  0  0  0  0  0  0  0  0  0  0  0
   14.5223   -1.3216   15.9761 C   0  0  0  0  0  0  0  0  0  0  0  0
   14.2744   -1.5329   17.3726 O   0  0  0  0  0  0  0  0  0  0  0  0
   13.2325   -1.7809   15.1964 C   0  0  0  0  0  0  0  0  0  0  0  0
   13.4330   -1.9335   13.6841 C   0  0  0  0  0  0  0  0  0  0  0  0
   14.8835   -2.0989   13.1831 C   0  0  0  0  0  0  0  0  0  0  0  0
   16.0079   -2.3414   14.2145 C   0  0  0  0  0  0  0  0  0  0  0  0
   15.4867   -2.5137   15.6245 C   0  0  0  0  0  0  0  0  0  0  0  0
   16.3035   -3.1154   16.7036 N   0  0  0  0  0  0  0  0  0  0  0  0
   17.4593   -2.4072   17.1170 C   0  0  0  0  0  0  0  0  0  0  0  0
   17.9135   -3.0109   18.2888 O   0  0  0  0  0  0  0  0  0  0  0  0
   18.4760   -2.4034   16.1100 N   0  0  0  0  0  0  0  0  0  0  0  0
   19.0645   -3.6943   15.7289 C   0  0  0  0  0  0  0  0  0  0  0  0
   19.6400   -3.5420   14.3011 C   0  0  0  0  0  0  0  0  0  0  0  0
   21.1346   -3.2476   14.3335 C   0  0  0  0  0  0  0  0  0  0  0  0
   21.8997   -4.3797   15.0279 C   0  0  0  0  0  0  0  0  0  0  0  0
   21.1503   -5.0640   16.0879 N   0  0  0  0  0  0  0  0  0  0  0  0
   20.1760   -4.1631   16.7145 C   0  0  0  0  0  0  0  0  0  0  0  0
   19.0441   -0.1176   14.1958 H   0  0  0  0  0  0  0  0  0  0  0  0
   18.4861    0.8426   12.8132 H   0  0  0  0  0  0  0  0  0  0  0  0
   19.1941    1.6767   14.2114 H   0  0  0  0  0  0  0  0  0  0  0  0
   16.3573    1.9139   18.2644 H   0  0  0  0  0  0  0  0  0  0  0  0
   14.8160    1.0670   18.3352 H   0  0  0  0  0  0  0  0  0  0  0  0
   16.3344    0.1737   18.3314 H   0  0  0  0  0  0  0  0  0  0  0  0
   16.0340    3.1807   15.9455 H   0  0  0  0  0  0  0  0  0  0  0  0
   14.4904    2.7719   16.7033 H   0  0  0  0  0  0  0  0  0  0  0  0
   13.6653    2.8685   14.5849 H   0  0  0  0  0  0  0  0  0  0  0  0
   15.2440    2.5985   13.8390 H   0  0  0  0  0  0  0  0  0  0  0  0
   13.2191    0.6672   14.3868 H   0  0  0  0  0  0  0  0  0  0  0  0
   14.7994    0.4384   13.6286 H   0  0  0  0  0  0  0  0  0  0  0  0
   15.0974   -1.3074   17.8250 H   0  0  0  0  0  0  0  0  0  0  0  0
   12.3839   -1.1218   15.3575 H   0  0  0  0  0  0  0  0  0  0  0  0
   12.8686   -2.7316   15.6150 H   0  0  0  0  0  0  0  0  0  0  0  0
   12.9886   -1.0799   13.1603 H   0  0  0  0  0  0  0  0  0  0  0  0
   12.8153   -2.7695   13.3374 H   0  0  0  0  0  0  0  0  0  0  0  0
   15.1614   -1.2369   12.5654 H   0  0  0  0  0  0  0  0  0  0  0  0
   14.8986   -2.9102   12.4451 H   0  0  0  0  0  0  0  0  0  0  0  0
   16.5747   -3.2279   13.9153 H   0  0  0  0  0  0  0  0  0  0  0  0
   16.7181   -1.5137   14.1639 H   0  0  0  0  0  0  0  0  0  0  0  0
   14.8325   -3.3878   15.5282 H   0  0  0  0  0  0  0  0  0  0  0  0
   15.6887   -3.2069   17.5123 H   0  0  0  0  0  0  0  0  0  0  0  0
   17.2151   -1.3855   17.3754 H   0  0  0  0  0  0  0  0  0  0  0  0
   17.7122   -3.9471   18.1323 H   0  0  0  0  0  0  0  0  0  0  0  0
   19.2099   -1.7749   16.4348 H   0  0  0  0  0  0  0  0  0  0  0  0
   18.2873   -4.4666   15.6671 H   0  0  0  0  0  0  0  0  0  0  0  0
   19.1142   -2.7649   13.7331 H   0  0  0  0  0  0  0  0  0  0  0  0
   19.4722   -4.4767   13.7489 H   0  0  0  0  0  0  0  0  0  0  0  0
   21.5154   -3.1183   13.3141 H   0  0  0  0  0  0  0  0  0  0  0  0
   21.3089   -2.3015   14.8612 H   0  0  0  0  0  0  0  0  0  0  0  0
   22.8306   -3.9790   15.4454 H   0  0  0  0  0  0  0  0  0  0  0  0
   22.1973   -5.1288   14.2846 H   0  0  0  0  0  0  0  0  0  0  0  0
   20.6449   -5.8514   15.6805 H   0  0  0  0  0  0  0  0  0  0  0  0
   19.7195   -4.6937   17.5567 H   0  0  0  0  0  0  0  0  0  0  0  0
   20.7102   -3.3083   17.1496 H   0  0  0  0  0  0  0  0  0  0  0  0
  1  2  1  0
  2  3  1  0
  3  4  2  0
  3  5  1  0
  5  6  1  0
  5  7  1  0
  7  8  1  0
  8  9  1  0
  9 10  1  0
 10 11  1  0
 11 12  1  0
 11 13  1  0
 13 14  1  0
 14 15  1  0
 15 16  1  0
 16 17  1  0
 17 18  1  0
 18 19  1  0
 19 20  1  0
 19 21  1  0
 21 22  1  0
 22 23  1  0
 23 24  1  0
 24 25  1  0
 25 26  1  0
 26 27  1  0
 10  5  1  0
 17 11  1  0
 27 22  1  0
  1 28  1  0
  1 29  1  0
  1 30  1  0
  6 31  1  0
  6 32  1  0
  6 33  1  0
  7 34  1  0
  7 35  1  0
  8 36  1  0
  8 37  1  0
  9 38  1  0
  9 39  1  0
 12 40  1  0
 13 41  1  0
 13 42  1  0
 14 43  1  0
 14 44  1  0
 15 45  1  0
 15 46  1  0
 16 47  1  0
 16 48  1  0
 17 49  1  0
 18 50  1  0
 19 51  1  0
 20 52  1  0
 21 53  1  0
 22 54  1  0
 23 55  1  0
 23 56  1  0
 24 57  1  0
 24 58  1  0
 25 59  1  0
 25 60  1  0
 26 61  1  0
 27 62  1  0
 27 63  1  0
M  END
>  <Energy>  (993) 
-14.552806744831546

>  <compound_id>  (993) 
1303

>  <target_id>  (993) 
1

>  <reference_id>  (993) 
76

>  <inspiration_ids>  (993) 
[93, 76]

>  <energy_score>  (993) 
-35.404978801037686

>  <distance_score>  (993) 
2.0900200933303026

>  <path>  (993) 
/opt/xchem-fragalysis-2/maxwin/BulkDock/SCRATCH/505733/C1303-P76/C1303-P76.minimised.mol

>  <scratch_subdir>  (993) 
/opt/xchem-fragalysis-2/maxwin/BulkDock/SCRATCH/505733/C1303-P76

>  <fragmenstein_runtime>  (993) 
5.266401290893555

>  <fragmenstein_outcome>  (993) 
too moved

>  <fragmenstein_mode>  (993) 
expansion

>  <fragmenstein_error>  (993) 


$$$$
C1306-P93
     RDKit          3D

 39 40  0  0  0  0  0  0  0  0999 V2000
   17.5271   -2.0324   13.4985 C   0  0  0  0  0  0  0  0  0  0  0  0
   16.4330   -1.6313   14.3232 O   0  0  0  0  0  0  0  0  0  0  0  0
   15.2123   -1.7417   13.7298 C   0  0  0  0  0  0  0  0  0  0  0  0
   15.0420   -2.0301   12.5512 O   0  0  0  0  0  0  0  0  0  0  0  0
   14.0857   -1.3542   14.6891 C   0  0  0  0  0  0  0  0  0  0  0  0
   14.1247    0.1989   14.5966 C   0  0  0  0  0  0  0  0  0  0  0  0
   13.1025    0.8533   15.4170 N   0  0  0  0  0  0  0  0  0  0  0  0
   13.4611    2.1944   16.3221 S   0  0  0  0  0  0  0  0  0  0  0  0
   13.7695    3.2654   15.0970 N   0  0  0  0  0  0  0  0  0  0  0  0
   12.2475    2.6381   16.9514 O   0  0  0  0  0  0  0  0  0  0  0  0
   14.7115    2.0178   17.0117 O   0  0  0  0  0  0  0  0  0  0  0  0
   12.7118   -1.8776   14.1633 C   0  0  0  0  0  0  0  0  0  0  0  0
   12.0131   -2.5884   15.3145 C   0  0  0  0  0  0  0  0  0  0  0  0
   12.7626   -2.1506   16.5557 C   0  0  0  0  0  0  0  0  0  0  0  0
   14.2396   -2.0035   16.1284 C   0  0  0  0  0  0  0  0  0  0  0  0
   14.8199   -3.3785   16.0877 N   0  0  0  0  0  0  0  0  0  0  0  0
   15.4031   -3.6912   17.3810 C   0  0  0  0  0  0  0  0  0  0  0  0
   16.2247   -2.2290   17.9697 S   0  0  0  0  0  0  0  0  0  0  0  0
   15.0948   -1.1360   17.1028 C   0  0  0  0  0  0  0  0  0  0  0  0
   14.3001   -0.4528   18.0562 O   0  0  0  0  0  0  0  0  0  0  0  0
   18.4464   -1.9221   14.0801 H   0  0  0  0  0  0  0  0  0  0  0  0
   17.5971   -1.3899   12.6154 H   0  0  0  0  0  0  0  0  0  0  0  0
   17.4258   -3.0819   13.2093 H   0  0  0  0  0  0  0  0  0  0  0  0
   13.9515    0.5102   13.5566 H   0  0  0  0  0  0  0  0  0  0  0  0
   15.1200    0.5822   14.8451 H   0  0  0  0  0  0  0  0  0  0  0  0
   12.1761    0.9307   14.9967 H   0  0  0  0  0  0  0  0  0  0  0  0
   14.7592    3.2222   14.8526 H   0  0  0  0  0  0  0  0  0  0  0  0
   13.5321    4.2045   15.4238 H   0  0  0  0  0  0  0  0  0  0  0  0
   12.0799   -1.0533   13.8127 H   0  0  0  0  0  0  0  0  0  0  0  0
   12.7969   -2.5584   13.3119 H   0  0  0  0  0  0  0  0  0  0  0  0
   12.0693   -3.6717   15.1937 H   0  0  0  0  0  0  0  0  0  0  0  0
   10.9519   -2.3261   15.3664 H   0  0  0  0  0  0  0  0  0  0  0  0
   12.6243   -2.8617   17.3754 H   0  0  0  0  0  0  0  0  0  0  0  0
   12.3499   -1.1900   16.8752 H   0  0  0  0  0  0  0  0  0  0  0  0
   14.1221   -4.0864   15.8649 H   0  0  0  0  0  0  0  0  0  0  0  0
   14.6328   -3.9923   18.0985 H   0  0  0  0  0  0  0  0  0  0  0  0
   16.1167   -4.5142   17.2877 H   0  0  0  0  0  0  0  0  0  0  0  0
   15.7308   -0.4206   16.5805 H   0  0  0  0  0  0  0  0  0  0  0  0
   14.8593    0.2816   18.3762 H   0  0  0  0  0  0  0  0  0  0  0  0
  1  2  1  0
  2  3  1  0
  3  4  2  0
  3  5  1  0
  5  6  1  0
  6  7  1  0
  7  8  1  0
  8  9  1  0
  8 10  2  0
  8 11  2  0
  5 12  1  0
 12 13  1  0
 13 14  1  0
 14 15  1  0
 15 16  1  0
 16 17  1  0
 17 18  1  0
 18 19  1  0
 19 20  1  0
 15  5  1  0
 19 15  1  0
  1 21  1  0
  1 22  1  0
  1 23  1  0
  6 24  1  0
  6 25  1  0
  7 26  1  0
  9 27  1  0
  9 28  1  0
 12 29  1  0
 12 30  1  0
 13 31  1  0
 13 32  1  0
 14 33  1  0
 14 34  1  0
 16 35  1  0
 17 36  1  0
 17 37  1  0
 19 38  1  0
 20 39  1  0
M  END
>  <Energy>  (994) 
-207.85618602255869

>  <compound_id>  (994) 
1306

>  <target_id>  (994) 
1

>  <reference_id>  (994) 
93

>  <inspiration_ids>  (994) 
[93, 83]

>  <energy_score>  (994) 
-63.935427378146926

>  <distance_score>  (994) 
1.644493306252679

>  <path>  (994) 
/opt/xchem-fragalysis-2/maxwin/BulkDock/SCRATCH/505733/C1306-P93/C1306-P93.minimised.mol

>  <scratch_subdir>  (994) 
/opt/xchem-fragalysis-2/maxwin/BulkDock/SCRATCH/505733/C1306-P93

>  <fragmenstein_runtime>  (994) 
1.6228291988372803

>  <fragmenstein_outcome>  (994) 
too moved

>  <fragmenstein_mode>  (994) 
expansion

>  <fragmenstein_error>  (994) 


$$$$
C1306-P83
     RDKit          3D

 39 40  0  0  0  0  0  0  0  0999 V2000
   17.0289   -3.0233   12.2363 C   0  0  0  0  0  0  0  0  0  0  0  0
   16.2952   -2.4571   13.3238 O   0  0  0  0  0  0  0  0  0  0  0  0
   14.9389   -2.5472   13.1900 C   0  0  0  0  0  0  0  0  0  0  0  0
   14.3867   -2.9995   12.1975 O   0  0  0  0  0  0  0  0  0  0  0  0
   14.2147   -1.9236   14.3914 C   0  0  0  0  0  0  0  0  0  0  0  0
   14.7703   -0.4642   14.4178 C   0  0  0  0  0  0  0  0  0  0  0  0
   13.8883    0.4952   15.0910 N   0  0  0  0  0  0  0  0  0  0  0  0
   13.4140    1.9184   14.3982 S   0  0  0  0  0  0  0  0  0  0  0  0
   14.5111    2.9339   15.1645 N   0  0  0  0  0  0  0  0  0  0  0  0
   13.7631    1.9511   13.0044 O   0  0  0  0  0  0  0  0  0  0  0  0
   12.1245    2.2895   14.9109 O   0  0  0  0  0  0  0  0  0  0  0  0
   12.6712   -1.9204   14.1247 C   0  0  0  0  0  0  0  0  0  0  0  0
   12.0899   -3.1915   14.7446 C   0  0  0  0  0  0  0  0  0  0  0  0
   13.2654   -3.9521   15.3265 C   0  0  0  0  0  0  0  0  0  0  0  0
   14.3285   -2.8810   15.6533 C   0  0  0  0  0  0  0  0  0  0  0  0
   15.5985   -3.6022   15.9229 N   0  0  0  0  0  0  0  0  0  0  0  0
   16.5253   -2.7229   16.6144 C   0  0  0  0  0  0  0  0  0  0  0  0
   15.5786   -1.5940   17.6242 S   0  0  0  0  0  0  0  0  0  0  0  0
   13.9937   -2.1480   16.9635 C   0  0  0  0  0  0  0  0  0  0  0  0
   13.3542   -2.9565   17.9342 O   0  0  0  0  0  0  0  0  0  0  0  0
   18.0945   -2.9275   12.4617 H   0  0  0  0  0  0  0  0  0  0  0  0
   16.8198   -2.4787   11.3102 H   0  0  0  0  0  0  0  0  0  0  0  0
   16.7937   -4.0842   12.1243 H   0  0  0  0  0  0  0  0  0  0  0  0
   14.9319   -0.1309   13.3855 H   0  0  0  0  0  0  0  0  0  0  0  0
   15.7549   -0.4224   14.8929 H   0  0  0  0  0  0  0  0  0  0  0  0
   13.9817    0.5945   16.1050 H   0  0  0  0  0  0  0  0  0  0  0  0
   14.1836    3.8913   14.9947 H   0  0  0  0  0  0  0  0  0  0  0  0
   15.4134    2.8144   14.6960 H   0  0  0  0  0  0  0  0  0  0  0  0
   12.1612   -1.0740   14.5953 H   0  0  0  0  0  0  0  0  0  0  0  0
   12.4263   -1.8583   13.0603 H   0  0  0  0  0  0  0  0  0  0  0  0
   11.5550   -3.7935   14.0042 H   0  0  0  0  0  0  0  0  0  0  0  0
   11.3746   -2.9297   15.5328 H   0  0  0  0  0  0  0  0  0  0  0  0
   13.6556   -4.6386   14.5698 H   0  0  0  0  0  0  0  0  0  0  0  0
   12.9645   -4.5746   16.1755 H   0  0  0  0  0  0  0  0  0  0  0  0
   15.3965   -4.3966   16.5340 H   0  0  0  0  0  0  0  0  0  0  0  0
   17.2176   -3.3017   17.2330 H   0  0  0  0  0  0  0  0  0  0  0  0
   17.1249   -2.1547   15.8979 H   0  0  0  0  0  0  0  0  0  0  0  0
   13.3320   -1.3150   16.7642 H   0  0  0  0  0  0  0  0  0  0  0  0
   14.0254   -3.5748   18.2700 H   0  0  0  0  0  0  0  0  0  0  0  0
  1  2  1  0
  2  3  1  0
  3  4  2  0
  3  5  1  0
  5  6  1  0
  6  7  1  0
  7  8  1  0
  8  9  1  0
  8 10  2  0
  8 11  2  0
  5 12  1  0
 12 13  1  0
 13 14  1  0
 14 15  1  0
 15 16  1  0
 16 17  1  0
 17 18  1  0
 18 19  1  0
 19 20  1  0
 15  5  1  0
 19 15  1  0
  1 21  1  0
  1 22  1  0
  1 23  1  0
  6 24  1  0
  6 25  1  0
  7 26  1  0
  9 27  1  0
  9 28  1  0
 12 29  1  0
 12 30  1  0
 13 31  1  0
 13 32  1  0
 14 33  1  0
 14 34  1  0
 16 35  1  0
 17 36  1  0
 17 37  1  0
 19 38  1  0
 20 39  1  0
M  END
>  <Energy>  (995) 
-199.86554097381028

>  <compound_id>  (995) 
1306

>  <target_id>  (995) 
1

>  <reference_id>  (995) 
83

>  <inspiration_ids>  (995) 
[93, 83]

>  <energy_score>  (995) 
-55.94478232939832

>  <distance_score>  (995) 
1.5103465011172807

>  <path>  (995) 
/opt/xchem-fragalysis-2/maxwin/BulkDock/SCRATCH/505733/C1306-P83/C1306-P83.minimised.mol

>  <scratch_subdir>  (995) 
/opt/xchem-fragalysis-2/maxwin/BulkDock/SCRATCH/505733/C1306-P83

>  <fragmenstein_runtime>  (995) 
1.9268546104431152

>  <fragmenstein_outcome>  (995) 
too moved

>  <fragmenstein_mode>  (995) 
expansion

>  <fragmenstein_error>  (995) 


$$$$
C1307-P93
     RDKit          3D

 41 42  0  0  0  0  0  0  0  0999 V2000
   11.3558    3.0981   13.4989 C   0  0  0  0  0  0  0  0  0  0  0  0
   11.8287    1.7569   13.6169 O   0  0  0  0  0  0  0  0  0  0  0  0
   13.1573    1.6576   13.9168 C   0  0  0  0  0  0  0  0  0  0  0  0
   13.8977    2.6362   13.9787 O   0  0  0  0  0  0  0  0  0  0  0  0
   13.6202    0.1689   14.0546 C   0  0  0  0  0  0  0  0  0  0  0  0
   14.0738   -0.1460   12.6067 C   0  0  0  0  0  0  0  0  0  0  0  0
   12.4380   -0.7717   14.4687 C   0  0  0  0  0  0  0  0  0  0  0  0
   11.7479   -0.3403   15.6400 O   0  0  0  0  0  0  0  0  0  0  0  0
   12.8701   -2.2156   14.7235 C   0  0  0  0  0  0  0  0  0  0  0  0
   14.0432   -2.2868   15.7174 C   0  0  0  0  0  0  0  0  0  0  0  0
   13.6095   -2.1517   17.2090 C   0  0  0  0  0  0  0  0  0  0  0  0
   14.6178   -3.2418   17.5754 C   0  0  0  0  0  0  0  0  0  0  0  0
   14.4554   -3.7509   16.1419 C   0  0  0  0  0  0  0  0  0  0  0  0
   15.2157   -1.3547   15.3180 C   0  0  0  0  0  0  0  0  0  0  0  0
   16.0770   -1.9682   14.2036 C   0  0  0  0  0  0  0  0  0  0  0  0
   14.7988    0.0223   14.9758 N   0  0  0  0  0  0  0  0  0  0  0  0
   14.8669    0.9444   16.0998 C   0  0  0  0  0  0  0  0  0  0  0  0
   13.6253    1.0634   16.7706 O   0  0  0  0  0  0  0  0  0  0  0  0
   11.5892    3.6760   14.3989 H   0  0  0  0  0  0  0  0  0  0  0  0
   11.7823    3.5722   12.6098 H   0  0  0  0  0  0  0  0  0  0  0  0
   10.2694    3.0668   13.3884 H   0  0  0  0  0  0  0  0  0  0  0  0
   14.1267   -1.2127   12.3863 H   0  0  0  0  0  0  0  0  0  0  0  0
   13.3837    0.2865   11.8731 H   0  0  0  0  0  0  0  0  0  0  0  0
   15.0543    0.2975   12.3932 H   0  0  0  0  0  0  0  0  0  0  0  0
   11.6890   -0.7821   13.6701 H   0  0  0  0  0  0  0  0  0  0  0  0
   12.4209    0.1159   16.1934 H   0  0  0  0  0  0  0  0  0  0  0  0
   13.1510   -2.6428   13.7614 H   0  0  0  0  0  0  0  0  0  0  0  0
   12.0206   -2.8020   15.0961 H   0  0  0  0  0  0  0  0  0  0  0  0
   12.5767   -2.4668   17.3779 H   0  0  0  0  0  0  0  0  0  0  0  0
   13.7887   -1.1988   17.7045 H   0  0  0  0  0  0  0  0  0  0  0  0
   14.3032   -3.9318   18.3628 H   0  0  0  0  0  0  0  0  0  0  0  0
   15.6211   -2.8727   17.8135 H   0  0  0  0  0  0  0  0  0  0  0  0
   13.6458   -4.4866   16.0669 H   0  0  0  0  0  0  0  0  0  0  0  0
   15.3592   -4.1812   15.7069 H   0  0  0  0  0  0  0  0  0  0  0  0
   15.9161   -1.2928   16.1612 H   0  0  0  0  0  0  0  0  0  0  0  0
   16.7096   -2.7659   14.6090 H   0  0  0  0  0  0  0  0  0  0  0  0
   15.4915   -2.4168   13.4000 H   0  0  0  0  0  0  0  0  0  0  0  0
   16.7581   -1.2256   13.7731 H   0  0  0  0  0  0  0  0  0  0  0  0
   15.6217    0.6474   16.8370 H   0  0  0  0  0  0  0  0  0  0  0  0
   15.1880    1.9357   15.7673 H   0  0  0  0  0  0  0  0  0  0  0  0
   13.7326    1.8265   17.3697 H   0  0  0  0  0  0  0  0  0  0  0  0
  1  2  1  0
  2  3  1  0
  3  4  2  0
  3  5  1  0
  5  6  1  0
  5  7  1  0
  7  8  1  0
  7  9  1  0
  9 10  1  0
 10 11  1  0
 11 12  1  0
 12 13  1  0
 10 14  1  0
 14 15  1  0
 14 16  1  0
 16 17  1  0
 17 18  1  0
 16  5  1  0
 13 10  1  0
  1 19  1  0
  1 20  1  0
  1 21  1  0
  6 22  1  0
  6 23  1  0
  6 24  1  0
  7 25  1  0
  8 26  1  0
  9 27  1  0
  9 28  1  0
 11 29  1  0
 11 30  1  0
 12 31  1  0
 12 32  1  0
 13 33  1  0
 13 34  1  0
 14 35  1  0
 15 36  1  0
 15 37  1  0
 15 38  1  0
 17 39  1  0
 17 40  1  0
 18 41  1  0
M  END
>  <Energy>  (996) 
55.913886850796814

>  <compound_id>  (996) 
1307

>  <target_id>  (996) 
1

>  <reference_id>  (996) 
93

>  <inspiration_ids>  (996) 
[93, 86]

>  <energy_score>  (996) 
-62.69934304489334

>  <distance_score>  (996) 
2.368142277372983

>  <path>  (996) 
/opt/xchem-fragalysis-2/maxwin/BulkDock/SCRATCH/505733/C1307-P93/C1307-P93.minimised.mol

>  <scratch_subdir>  (996) 
/opt/xchem-fragalysis-2/maxwin/BulkDock/SCRATCH/505733/C1307-P93

>  <fragmenstein_runtime>  (996) 
1.9751505851745605

>  <fragmenstein_outcome>  (996) 
too moved

>  <fragmenstein_mode>  (996) 
expansion

>  <fragmenstein_error>  (996) 


$$$$
C1307-P86
     RDKit          3D

 41 42  0  0  0  0  0  0  0  0999 V2000
   12.9432    2.5793   11.2023 C   0  0  0  0  0  0  0  0  0  0  0  0
   12.9140    1.9655   12.4930 O   0  0  0  0  0  0  0  0  0  0  0  0
   14.0645    1.3413   12.8750 C   0  0  0  0  0  0  0  0  0  0  0  0
   15.0453    1.2270   12.1460 O   0  0  0  0  0  0  0  0  0  0  0  0
   14.0152    0.9007   14.3621 C   0  0  0  0  0  0  0  0  0  0  0  0
   14.6050    2.1288   15.1156 C   0  0  0  0  0  0  0  0  0  0  0  0
   12.5559    0.6811   14.8896 C   0  0  0  0  0  0  0  0  0  0  0  0
   12.5132    0.7751   16.3135 O   0  0  0  0  0  0  0  0  0  0  0  0
   11.9211   -0.6560   14.5688 C   0  0  0  0  0  0  0  0  0  0  0  0
   12.8639   -1.7781   14.9892 C   0  0  0  0  0  0  0  0  0  0  0  0
   13.0708   -2.0931   16.5192 C   0  0  0  0  0  0  0  0  0  0  0  0
   12.8781   -3.5735   16.1808 C   0  0  0  0  0  0  0  0  0  0  0  0
   12.0378   -3.0958   14.9763 C   0  0  0  0  0  0  0  0  0  0  0  0
   14.2295   -1.6194   14.2686 C   0  0  0  0  0  0  0  0  0  0  0  0
   14.1120   -1.8226   12.7523 C   0  0  0  0  0  0  0  0  0  0  0  0
   14.8366   -0.3209   14.6674 N   0  0  0  0  0  0  0  0  0  0  0  0
   16.2495   -0.2479   14.3246 C   0  0  0  0  0  0  0  0  0  0  0  0
   16.9691   -1.2104   15.0796 O   0  0  0  0  0  0  0  0  0  0  0  0
   13.3609    3.5859   11.2935 H   0  0  0  0  0  0  0  0  0  0  0  0
   13.5169    1.9990   10.4746 H   0  0  0  0  0  0  0  0  0  0  0  0
   11.9132    2.6585   10.8433 H   0  0  0  0  0  0  0  0  0  0  0  0
   13.8858    2.9573   15.1284 H   0  0  0  0  0  0  0  0  0  0  0  0
   14.8569    1.8930   16.1557 H   0  0  0  0  0  0  0  0  0  0  0  0
   15.5101    2.5189   14.6357 H   0  0  0  0  0  0  0  0  0  0  0  0
   11.8873    1.4714   14.5328 H   0  0  0  0  0  0  0  0  0  0  0  0
   13.3335    0.3541   16.6374 H   0  0  0  0  0  0  0  0  0  0  0  0
   11.7006   -0.7128   13.4989 H   0  0  0  0  0  0  0  0  0  0  0  0
   10.9624   -0.7344   15.0983 H   0  0  0  0  0  0  0  0  0  0  0  0
   12.2796   -1.6917   17.1512 H   0  0  0  0  0  0  0  0  0  0  0  0
   14.0373   -1.8435   16.9651 H   0  0  0  0  0  0  0  0  0  0  0  0
   12.3394   -4.1644   16.9254 H   0  0  0  0  0  0  0  0  0  0  0  0
   13.8111   -4.0896   15.9385 H   0  0  0  0  0  0  0  0  0  0  0  0
   12.0418   -3.6327   14.0333 H   0  0  0  0  0  0  0  0  0  0  0  0
   10.9786   -2.9804   15.2467 H   0  0  0  0  0  0  0  0  0  0  0  0
   14.8814   -2.4231   14.6328 H   0  0  0  0  0  0  0  0  0  0  0  0
   13.5316   -2.7118   12.5072 H   0  0  0  0  0  0  0  0  0  0  0  0
   13.6064   -0.9997   12.2519 H   0  0  0  0  0  0  0  0  0  0  0  0
   15.0967   -1.9381   12.2889 H   0  0  0  0  0  0  0  0  0  0  0  0
   16.4473   -0.4297   13.2648 H   0  0  0  0  0  0  0  0  0  0  0  0
   16.6896    0.7170   14.5855 H   0  0  0  0  0  0  0  0  0  0  0  0
   17.8903   -1.1592   14.7782 H   0  0  0  0  0  0  0  0  0  0  0  0
  1  2  1  0
  2  3  1  0
  3  4  2  0
  3  5  1  0
  5  6  1  0
  5  7  1  0
  7  8  1  0
  7  9  1  0
  9 10  1  0
 10 11  1  0
 11 12  1  0
 12 13  1  0
 10 14  1  0
 14 15  1  0
 14 16  1  0
 16 17  1  0
 17 18  1  0
 16  5  1  0
 13 10  1  0
  1 19  1  0
  1 20  1  0
  1 21  1  0
  6 22  1  0
  6 23  1  0
  6 24  1  0
  7 25  1  0
  8 26  1  0
  9 27  1  0
  9 28  1  0
 11 29  1  0
 11 30  1  0
 12 31  1  0
 12 32  1  0
 13 33  1  0
 13 34  1  0
 14 35  1  0
 15 36  1  0
 15 37  1  0
 15 38  1  0
 17 39  1  0
 17 40  1  0
 18 41  1  0
M  END
>  <Energy>  (997) 
56.55657220894652

>  <compound_id>  (997) 
1307

>  <target_id>  (997) 
1

>  <reference_id>  (997) 
86

>  <inspiration_ids>  (997) 
[93, 86]

>  <energy_score>  (997) 
-62.056657686742994

>  <distance_score>  (997) 
3.157348599042799

>  <path>  (997) 
/opt/xchem-fragalysis-2/maxwin/BulkDock/SCRATCH/505733/C1307-P86/C1307-P86.minimised.mol

>  <scratch_subdir>  (997) 
/opt/xchem-fragalysis-2/maxwin/BulkDock/SCRATCH/505733/C1307-P86

>  <fragmenstein_runtime>  (997) 
2.7066452503204346

>  <fragmenstein_outcome>  (997) 
too moved

>  <fragmenstein_mode>  (997) 
expansion

>  <fragmenstein_error>  (997) 


$$$$
C1308-P93
     RDKit          3D

 36 37  0  0  0  0  0  0  0  0999 V2000
   11.4494   -3.1596   15.0480 C   0  0  0  0  0  0  0  0  0  0  0  0
   12.7738   -2.7708   15.6411 C   0  0  0  0  0  0  0  0  0  0  0  0
   13.6843   -3.4642   16.9218 S   0  0  0  0  0  0  0  0  0  0  0  0
   12.9899   -4.6555   17.8089 N   0  0  0  0  0  0  0  0  0  0  0  0
   14.9006   -4.1963   16.1199 O   0  0  0  0  0  0  0  0  0  0  0  0
   14.5380   -2.2882   17.8253 C   0  0  0  0  0  0  0  0  0  0  0  0
   14.7271   -0.9391   17.1146 C   0  0  0  0  0  0  0  0  0  0  0  0
   16.1766   -0.5226   17.3859 C   0  0  0  0  0  0  0  0  0  0  0  0
   16.9598   -1.3522   16.3664 C   0  0  0  0  0  0  0  0  0  0  0  0
   15.9572   -1.7230   15.3360 N   0  0  0  0  0  0  0  0  0  0  0  0
   16.4633   -2.2246   13.8327 S   0  0  0  0  0  0  0  0  0  0  0  0
   17.4053   -3.6882   14.2254 C   0  0  0  0  0  0  0  0  0  0  0  0
   15.2909   -2.5226   13.0453 O   0  0  0  0  0  0  0  0  0  0  0  0
   17.4218   -1.2464   13.3695 O   0  0  0  0  0  0  0  0  0  0  0  0
   14.6969   -0.9887   15.5570 C   0  0  0  0  0  0  0  0  0  0  0  0
   14.8336    0.4204   14.9303 C   0  0  0  0  0  0  0  0  0  0  0  0
   13.3593   -1.5194   15.0477 C   0  0  0  0  0  0  0  0  0  0  0  0
   12.6304   -0.9151   14.2622 O   0  0  0  0  0  0  0  0  0  0  0  0
   10.7128   -2.3751   15.2374 H   0  0  0  0  0  0  0  0  0  0  0  0
   11.5509   -3.3223   13.9728 H   0  0  0  0  0  0  0  0  0  0  0  0
   11.1155   -4.0772   15.5253 H   0  0  0  0  0  0  0  0  0  0  0  0
   12.7451   -5.3978   17.1551 H   0  0  0  0  0  0  0  0  0  0  0  0
   12.1436   -4.3810   18.3117 H   0  0  0  0  0  0  0  0  0  0  0  0
   15.4880   -2.7617   18.1015 H   0  0  0  0  0  0  0  0  0  0  0  0
   14.0365   -2.1414   18.7802 H   0  0  0  0  0  0  0  0  0  0  0  0
   14.0125   -0.2079   17.5091 H   0  0  0  0  0  0  0  0  0  0  0  0
   16.3193    0.5489   17.2086 H   0  0  0  0  0  0  0  0  0  0  0  0
   16.5084   -0.7123   18.4125 H   0  0  0  0  0  0  0  0  0  0  0  0
   17.7831   -0.7644   15.9510 H   0  0  0  0  0  0  0  0  0  0  0  0
   17.3636   -2.2571   16.8301 H   0  0  0  0  0  0  0  0  0  0  0  0
   16.7616   -4.4632   14.6307 H   0  0  0  0  0  0  0  0  0  0  0  0
   18.1844   -3.4270   14.9442 H   0  0  0  0  0  0  0  0  0  0  0  0
   17.8984   -4.0230   13.3109 H   0  0  0  0  0  0  0  0  0  0  0  0
   14.0431    1.0901   15.2890 H   0  0  0  0  0  0  0  0  0  0  0  0
   14.7589    0.3766   13.8364 H   0  0  0  0  0  0  0  0  0  0  0  0
   15.7946    0.9003   15.1402 H   0  0  0  0  0  0  0  0  0  0  0  0
  1  2  1  0
  2  3  2  0
  3  4  1  0
  3  5  2  0
  3  6  1  0
  6  7  1  0
  7  8  1  0
  8  9  1  0
  9 10  1  0
 10 11  1  0
 11 12  1  0
 11 13  2  0
 11 14  2  0
 10 15  1  0
 15 16  1  0
 15 17  1  0
 17 18  2  0
 17  2  1  0
 15  7  1  0
  1 19  1  0
  1 20  1  0
  1 21  1  0
  4 22  1  0
  4 23  1  0
  6 24  1  0
  6 25  1  0
  7 26  1  0
  8 27  1  0
  8 28  1  0
  9 29  1  0
  9 30  1  0
 12 31  1  0
 12 32  1  0
 12 33  1  0
 16 34  1  0
 16 35  1  0
 16 36  1  0
M  END
>  <Energy>  (998) 
-33.691504680306466

>  <compound_id>  (998) 
1308

>  <target_id>  (998) 
1

>  <reference_id>  (998) 
93

>  <inspiration_ids>  (998) 
[93, 97]

>  <energy_score>  (998) 
-73.48288120978849

>  <distance_score>  (998) 
1.4959889976382479

>  <path>  (998) 
/opt/xchem-fragalysis-2/maxwin/BulkDock/SCRATCH/505733/C1308-P93/C1308-P93.minimised.mol

>  <scratch_subdir>  (998) 
/opt/xchem-fragalysis-2/maxwin/BulkDock/SCRATCH/505733/C1308-P93

>  <fragmenstein_runtime>  (998) 
1.1213736534118652

>  <fragmenstein_outcome>  (998) 
too moved

>  <fragmenstein_mode>  (998) 
expansion

>  <fragmenstein_error>  (998) 


$$$$
C1308-P97
     RDKit          3D

 36 37  0  0  0  0  0  0  0  0999 V2000
   11.4278   -3.1036   15.0778 C   0  0  0  0  0  0  0  0  0  0  0  0
   12.7799   -2.7631   15.6435 C   0  0  0  0  0  0  0  0  0  0  0  0
   13.6914   -3.4937   16.9058 S   0  0  0  0  0  0  0  0  0  0  0  0
   12.9636   -4.6926   17.7556 N   0  0  0  0  0  0  0  0  0  0  0  0
   14.8952   -4.2301   16.0922 O   0  0  0  0  0  0  0  0  0  0  0  0
   14.5849   -2.3511   17.8131 C   0  0  0  0  0  0  0  0  0  0  0  0
   14.7620   -0.9891   17.1217 C   0  0  0  0  0  0  0  0  0  0  0  0
   16.2101   -0.5691   17.3967 C   0  0  0  0  0  0  0  0  0  0  0  0
   16.9964   -1.3726   16.3575 C   0  0  0  0  0  0  0  0  0  0  0  0
   15.9909   -1.7417   15.3291 N   0  0  0  0  0  0  0  0  0  0  0  0
   16.4908   -2.2344   13.8202 S   0  0  0  0  0  0  0  0  0  0  0  0
   17.4524   -3.6871   14.2030 C   0  0  0  0  0  0  0  0  0  0  0  0
   15.3188   -2.5491   13.0385 O   0  0  0  0  0  0  0  0  0  0  0  0
   17.4335   -1.2435   13.3520 O   0  0  0  0  0  0  0  0  0  0  0  0
   14.7298   -1.0133   15.5622 C   0  0  0  0  0  0  0  0  0  0  0  0
   14.8623    0.4074   14.9601 C   0  0  0  0  0  0  0  0  0  0  0  0
   13.3993   -1.5392   15.0305 C   0  0  0  0  0  0  0  0  0  0  0  0
   12.7062   -0.9542   14.1995 O   0  0  0  0  0  0  0  0  0  0  0  0
   10.7337   -2.2766   15.2471 H   0  0  0  0  0  0  0  0  0  0  0  0
   11.5091   -3.3091   14.0080 H   0  0  0  0  0  0  0  0  0  0  0  0
   11.0491   -3.9854   15.5878 H   0  0  0  0  0  0  0  0  0  0  0  0
   12.5253   -5.3120   17.0762 H   0  0  0  0  0  0  0  0  0  0  0  0
   12.2098   -4.3692   18.3722 H   0  0  0  0  0  0  0  0  0  0  0  0
   15.5414   -2.8396   18.0366 H   0  0  0  0  0  0  0  0  0  0  0  0
   14.1331   -2.2235   18.7949 H   0  0  0  0  0  0  0  0  0  0  0  0
   14.0432   -0.2691   17.5274 H   0  0  0  0  0  0  0  0  0  0  0  0
   16.3459    0.5067   17.2423 H   0  0  0  0  0  0  0  0  0  0  0  0
   16.5462   -0.7788   18.4181 H   0  0  0  0  0  0  0  0  0  0  0  0
   17.8076   -0.7671   15.9437 H   0  0  0  0  0  0  0  0  0  0  0  0
   17.4170   -2.2784   16.8043 H   0  0  0  0  0  0  0  0  0  0  0  0
   16.8249   -4.4576   14.6416 H   0  0  0  0  0  0  0  0  0  0  0  0
   17.9169   -4.0337   13.2780 H   0  0  0  0  0  0  0  0  0  0  0  0
   18.2520   -3.4112   14.8934 H   0  0  0  0  0  0  0  0  0  0  0  0
   14.0608    1.0637   15.3195 H   0  0  0  0  0  0  0  0  0  0  0  0
   14.8031    0.3816   13.8647 H   0  0  0  0  0  0  0  0  0  0  0  0
   15.8159    0.8928   15.1896 H   0  0  0  0  0  0  0  0  0  0  0  0
  1  2  1  0
  2  3  2  0
  3  4  1  0
  3  5  2  0
  3  6  1  0
  6  7  1  0
  7  8  1  0
  8  9  1  0
  9 10  1  0
 10 11  1  0
 11 12  1  0
 11 13  2  0
 11 14  2  0
 10 15  1  0
 15 16  1  0
 15 17  1  0
 17 18  2  0
 17  2  1  0
 15  7  1  0
  1 19  1  0
  1 20  1  0
  1 21  1  0
  4 22  1  0
  4 23  1  0
  6 24  1  0
  6 25  1  0
  7 26  1  0
  8 27  1  0
  8 28  1  0
  9 29  1  0
  9 30  1  0
 12 31  1  0
 12 32  1  0
 12 33  1  0
 16 34  1  0
 16 35  1  0
 16 36  1  0
M  END
>  <Energy>  (999) 
-32.566039054119052

>  <compound_id>  (999) 
1308

>  <target_id>  (999) 
1

>  <reference_id>  (999) 
97

>  <inspiration_ids>  (999) 
[93, 97]

>  <energy_score>  (999) 
-72.3574155836018

>  <distance_score>  (999) 
1.4993417575203911

>  <path>  (999) 
/opt/xchem-fragalysis-2/maxwin/BulkDock/SCRATCH/505733/C1308-P97/C1308-P97.minimised.mol

>  <scratch_subdir>  (999) 
/opt/xchem-fragalysis-2/maxwin/BulkDock/SCRATCH/505733/C1308-P97

>  <fragmenstein_runtime>  (999) 
1.097876787185669

>  <fragmenstein_outcome>  (999) 
too moved

>  <fragmenstein_mode>  (999) 
expansion

>  <fragmenstein_error>  (999) 


$$$$
C1309-P93
     RDKit          3D

 32 34  0  0  0  0  0  0  0  0999 V2000
   15.0661    1.5235   14.2459 C   0  0  0  0  0  0  0  0  0  0  0  0
   14.5507    0.1948   14.1701 O   0  0  0  0  0  0  0  0  0  0  0  0
   13.7898   -0.1757   15.2366 C   0  0  0  0  0  0  0  0  0  0  0  0
   13.4502    0.5753   16.1470 O   0  0  0  0  0  0  0  0  0  0  0  0
   13.4378   -1.6821   15.1868 C   0  0  0  0  0  0  0  0  0  0  0  0
   12.9468   -2.0519   13.7795 C   0  0  0  0  0  0  0  0  0  0  0  0
   12.3211   -2.0052   16.1919 C   0  0  0  0  0  0  0  0  0  0  0  0
   12.5249   -3.4712   16.5155 C   0  0  0  0  0  0  0  0  0  0  0  0
   14.0258   -3.6622   16.4859 C   0  0  0  0  0  0  0  0  0  0  0  0
   14.7389   -3.5479   17.8537 C   0  0  0  0  0  0  0  0  0  0  0  0
   15.3193   -2.1554   17.8928 C   0  0  0  0  0  0  0  0  0  0  0  0
   16.6576   -1.9404   18.3116 N   0  0  0  0  0  0  0  0  0  0  0  0
   17.3599   -1.3035   17.3123 C   0  0  0  0  0  0  0  0  0  0  0  0
   18.4132   -0.7179   17.5005 O   0  0  0  0  0  0  0  0  0  0  0  0
   16.6900   -1.4312   16.1241 N   0  0  0  0  0  0  0  0  0  0  0  0
   15.5728   -1.9829   16.4269 C   0  0  0  0  0  0  0  0  0  0  0  0
   14.5762   -2.5571   15.6560 N   0  0  0  0  0  0  0  0  0  0  0  0
   14.2490    2.2504   14.2081 H   0  0  0  0  0  0  0  0  0  0  0  0
   15.7154    1.6854   13.3812 H   0  0  0  0  0  0  0  0  0  0  0  0
   15.6612    1.6554   15.1551 H   0  0  0  0  0  0  0  0  0  0  0  0
   12.3887   -2.9908   13.7527 H   0  0  0  0  0  0  0  0  0  0  0  0
   12.2709   -1.2778   13.3989 H   0  0  0  0  0  0  0  0  0  0  0  0
   13.7832   -2.1301   13.0762 H   0  0  0  0  0  0  0  0  0  0  0  0
   12.4535   -1.4134   17.0982 H   0  0  0  0  0  0  0  0  0  0  0  0
   11.3180   -1.7969   15.8051 H   0  0  0  0  0  0  0  0  0  0  0  0
   12.1056   -3.7787   17.4688 H   0  0  0  0  0  0  0  0  0  0  0  0
   12.0426   -4.0811   15.7484 H   0  0  0  0  0  0  0  0  0  0  0  0
   14.2741   -4.6325   16.0492 H   0  0  0  0  0  0  0  0  0  0  0  0
   15.5417   -4.2955   17.9068 H   0  0  0  0  0  0  0  0  0  0  0  0
   14.0746   -3.7435   18.7016 H   0  0  0  0  0  0  0  0  0  0  0  0
   14.6481   -1.3775   18.2660 H   0  0  0  0  0  0  0  0  0  0  0  0
   16.9323   -1.7128   19.2571 H   0  0  0  0  0  0  0  0  0  0  0  0
  1  2  1  0
  2  3  1  0
  3  4  2  0
  3  5  1  0
  5  6  1  0
  5  7  1  0
  7  8  1  0
  8  9  1  0
  9 10  1  0
 10 11  1  0
 11 12  1  0
 12 13  1  0
 13 14  2  0
 13 15  1  0
 15 16  2  0
 16 17  1  0
 17  5  1  0
 17  9  1  0
 16 11  1  0
  1 18  1  0
  1 19  1  0
  1 20  1  0
  6 21  1  0
  6 22  1  0
  6 23  1  0
  7 24  1  0
  7 25  1  0
  8 26  1  0
  8 27  1  0
  9 28  1  0
 10 29  1  0
 10 30  1  0
 11 31  1  0
 12 32  1  0
M  END
>  <Energy>  (1000) 
9.9689193467903969

>  <compound_id>  (1000) 
1309

>  <target_id>  (1000) 
1

>  <reference_id>  (1000) 
93

>  <inspiration_ids>  (1000) 
[93, 98]

>  <energy_score>  (1000) 
-49.24111864329214

>  <distance_score>  (1000) 
1.8163812813452618

>  <path>  (1000) 
/opt/xchem-fragalysis-2/maxwin/BulkDock/SCRATCH/505733/C1309-P93/C1309-P93.minimised.mol

>  <scratch_subdir>  (1000) 
/opt/xchem-fragalysis-2/maxwin/BulkDock/SCRATCH/505733/C1309-P93

>  <fragmenstein_runtime>  (1000) 
1.4646499156951904

>  <fragmenstein_outcome>  (1000) 
too moved

>  <fragmenstein_mode>  (1000) 
expansion

>  <fragmenstein_error>  (1000) 


$$$$
C1309-P98
     RDKit          3D

 32 34  0  0  0  0  0  0  0  0999 V2000
   14.3787    1.7481   16.3938 C   0  0  0  0  0  0  0  0  0  0  0  0
   13.9125    0.3993   16.3415 O   0  0  0  0  0  0  0  0  0  0  0  0
   13.8373   -0.1122   15.0733 C   0  0  0  0  0  0  0  0  0  0  0  0
   14.0025    0.5548   14.0568 O   0  0  0  0  0  0  0  0  0  0  0  0
   13.4788   -1.6206   15.0919 C   0  0  0  0  0  0  0  0  0  0  0  0
   13.0197   -2.0401   13.6817 C   0  0  0  0  0  0  0  0  0  0  0  0
   12.3226   -1.9134   16.0695 C   0  0  0  0  0  0  0  0  0  0  0  0
   12.5248   -3.3660   16.4641 C   0  0  0  0  0  0  0  0  0  0  0  0
   14.0205   -3.5414   16.5038 C   0  0  0  0  0  0  0  0  0  0  0  0
   14.6921   -3.2202   17.8520 C   0  0  0  0  0  0  0  0  0  0  0  0
   16.0937   -2.8737   17.4022 C   0  0  0  0  0  0  0  0  0  0  0  0
   16.8522   -1.8755   18.0623 N   0  0  0  0  0  0  0  0  0  0  0  0
   17.2576   -0.9352   17.1413 C   0  0  0  0  0  0  0  0  0  0  0  0
   18.1714   -0.1517   17.3390 O   0  0  0  0  0  0  0  0  0  0  0  0
   16.4728   -1.0175   16.0206 N   0  0  0  0  0  0  0  0  0  0  0  0
   15.7272   -2.0430   16.2010 C   0  0  0  0  0  0  0  0  0  0  0  0
   14.5788   -2.5200   15.5924 N   0  0  0  0  0  0  0  0  0  0  0  0
   15.3460    1.8475   15.8913 H   0  0  0  0  0  0  0  0  0  0  0  0
   14.5074    2.0196   17.4452 H   0  0  0  0  0  0  0  0  0  0  0  0
   13.6388    2.4209   15.9498 H   0  0  0  0  0  0  0  0  0  0  0  0
   12.3141   -1.3104   13.2669 H   0  0  0  0  0  0  0  0  0  0  0  0
   13.8726   -2.0966   12.9960 H   0  0  0  0  0  0  0  0  0  0  0  0
   12.5072   -3.0048   13.6687 H   0  0  0  0  0  0  0  0  0  0  0  0
   12.3988   -1.2831   16.9551 H   0  0  0  0  0  0  0  0  0  0  0  0
   11.3335   -1.7362   15.6334 H   0  0  0  0  0  0  0  0  0  0  0  0
   12.0899   -3.6346   17.4177 H   0  0  0  0  0  0  0  0  0  0  0  0
   12.0702   -4.0084   15.7092 H   0  0  0  0  0  0  0  0  0  0  0  0
   14.3148   -4.5468   16.1854 H   0  0  0  0  0  0  0  0  0  0  0  0
   14.6698   -4.0715   18.5388 H   0  0  0  0  0  0  0  0  0  0  0  0
   14.2161   -2.3705   18.3552 H   0  0  0  0  0  0  0  0  0  0  0  0
   16.7136   -3.7258   17.1062 H   0  0  0  0  0  0  0  0  0  0  0  0
   17.4943   -2.0552   18.8211 H   0  0  0  0  0  0  0  0  0  0  0  0
  1  2  1  0
  2  3  1  0
  3  4  2  0
  3  5  1  0
  5  6  1  0
  5  7  1  0
  7  8  1  0
  8  9  1  0
  9 10  1  0
 10 11  1  0
 11 12  1  0
 12 13  1  0
 13 14  2  0
 13 15  1  0
 15 16  2  0
 16 17  1  0
 17  5  1  0
 17  9  1  0
 16 11  1  0
  1 18  1  0
  1 19  1  0
  1 20  1  0
  6 21  1  0
  6 22  1  0
  6 23  1  0
  7 24  1  0
  7 25  1  0
  8 26  1  0
  8 27  1  0
  9 28  1  0
 10 29  1  0
 10 30  1  0
 11 31  1  0
 12 32  1  0
M  END
>  <Energy>  (1001) 
3.6000979866001543

>  <compound_id>  (1001) 
1309

>  <target_id>  (1001) 
1

>  <reference_id>  (1001) 
98

>  <inspiration_ids>  (1001) 
[93, 98]

>  <energy_score>  (1001) 
-55.6099400034839

>  <distance_score>  (1001) 
1.799944296187938

>  <path>  (1001) 
/opt/xchem-fragalysis-2/maxwin/BulkDock/SCRATCH/505733/C1309-P98/C1309-P98.minimised.mol

>  <scratch_subdir>  (1001) 
/opt/xchem-fragalysis-2/maxwin/BulkDock/SCRATCH/505733/C1309-P98

>  <fragmenstein_runtime>  (1001) 
1.3706378936767578

>  <fragmenstein_outcome>  (1001) 
too moved

>  <fragmenstein_mode>  (1001) 
expansion

>  <fragmenstein_error>  (1001) 


$$$$
C1314-P93
     RDKit          3D

 60 63  0  0  0  0  0  0  0  0999 V2000
   19.2581    2.6849   15.8675 C   0  0  0  0  0  0  0  0  0  0  0  0
   17.9853    2.0858   15.6199 O   0  0  0  0  0  0  0  0  0  0  0  0
   17.7309    1.8039   14.3142 C   0  0  0  0  0  0  0  0  0  0  0  0
   18.5111    2.0416   13.3971 O   0  0  0  0  0  0  0  0  0  0  0  0
   16.3750    1.1167   14.1396 C   0  0  0  0  0  0  0  0  0  0  0  0
   15.3218    1.9126   14.9685 C   0  0  0  0  0  0  0  0  0  0  0  0
   15.9115    1.1671   12.6565 C   0  0  0  0  0  0  0  0  0  0  0  0
   15.1180   -0.1100   12.3963 C   0  0  0  0  0  0  0  0  0  0  0  0
   15.0818   -0.8357   13.7325 C   0  0  0  0  0  0  0  0  0  0  0  0
   16.3991   -0.4275   14.4730 C   0  0  0  0  0  0  0  0  0  0  0  0
   16.3466   -0.7099   16.0142 C   0  0  0  0  0  0  0  0  0  0  0  0
   16.8054   -2.1092   16.4936 C   0  0  0  0  0  0  0  0  0  0  0  0
   16.1817   -2.6893   17.6990 N   0  0  0  0  0  0  0  0  0  0  0  0
   14.8728   -2.1452   18.5489 S   0  0  0  0  0  0  0  0  0  0  0  0
   14.9253   -0.7102   18.6613 O   0  0  0  0  0  0  0  0  0  0  0  0
   14.8400   -2.9889   19.7190 O   0  0  0  0  0  0  0  0  0  0  0  0
   13.5969   -2.5917   17.5590 N   0  0  0  0  0  0  0  0  0  0  0  0
   13.2881   -1.7521   16.3949 C   0  0  0  0  0  0  0  0  0  0  0  0
   11.9496   -2.0802   15.7369 C   0  0  0  0  0  0  0  0  0  0  0  0
   11.7962   -3.4940   15.4170 N   0  0  0  0  0  0  0  0  0  0  0  0
   12.1939   -4.3540   16.5423 C   0  0  0  0  0  0  0  0  0  0  0  0
   13.5078   -4.0314   17.2496 C   0  0  0  0  0  0  0  0  0  0  0  0
   16.8592   -3.1852   15.3990 C   0  0  0  0  0  0  0  0  0  0  0  0
   17.5987   -2.6070   14.2526 C   0  0  0  0  0  0  0  0  0  0  0  0
   17.4686   -1.3283   13.8866 C   0  0  0  0  0  0  0  0  0  0  0  0
   18.5760   -1.0313   12.9625 C   0  0  0  0  0  0  0  0  0  0  0  0
   19.5801   -0.3751   13.7217 O   0  0  0  0  0  0  0  0  0  0  0  0
   19.0425   -2.4469   12.5979 C   0  0  0  0  0  0  0  0  0  0  0  0
   18.6230   -3.3294   13.6636 O   0  0  0  0  0  0  0  0  0  0  0  0
   19.3400    3.6414   15.3420 H   0  0  0  0  0  0  0  0  0  0  0  0
   19.3414    2.8710   16.9417 H   0  0  0  0  0  0  0  0  0  0  0  0
   20.0640    2.0074   15.5692 H   0  0  0  0  0  0  0  0  0  0  0  0
   15.5057    1.8516   16.0458 H   0  0  0  0  0  0  0  0  0  0  0  0
   14.2951    1.5825   14.7870 H   0  0  0  0  0  0  0  0  0  0  0  0
   15.3641    2.9779   14.7083 H   0  0  0  0  0  0  0  0  0  0  0  0
   16.7466    1.2196   11.9501 H   0  0  0  0  0  0  0  0  0  0  0  0
   15.2953    2.0510   12.4517 H   0  0  0  0  0  0  0  0  0  0  0  0
   15.6207   -0.7190   11.6363 H   0  0  0  0  0  0  0  0  0  0  0  0
   14.1092    0.1039   12.0288 H   0  0  0  0  0  0  0  0  0  0  0  0
   14.9542   -1.9120   13.5787 H   0  0  0  0  0  0  0  0  0  0  0  0
   14.1985   -0.4785   14.2666 H   0  0  0  0  0  0  0  0  0  0  0  0
   15.3644   -0.4360   16.3748 H   0  0  0  0  0  0  0  0  0  0  0  0
   17.0127   -0.0012   16.5229 H   0  0  0  0  0  0  0  0  0  0  0  0
   17.8536   -1.9541   16.8028 H   0  0  0  0  0  0  0  0  0  0  0  0
   16.8788   -2.9937   18.3831 H   0  0  0  0  0  0  0  0  0  0  0  0
   14.0564   -1.9666   15.6612 H   0  0  0  0  0  0  0  0  0  0  0  0
   13.2783   -0.6930   16.6653 H   0  0  0  0  0  0  0  0  0  0  0  0
   11.8583   -1.5039   14.8084 H   0  0  0  0  0  0  0  0  0  0  0  0
   11.1196   -1.7535   16.3543 H   0  0  0  0  0  0  0  0  0  0  0  0
   12.3858   -3.6892   14.6160 H   0  0  0  0  0  0  0  0  0  0  0  0
   12.2257   -5.4000   16.2383 H   0  0  0  0  0  0  0  0  0  0  0  0
   11.3999   -4.3278   17.2678 H   0  0  0  0  0  0  0  0  0  0  0  0
   14.3419   -4.3345   16.6107 H   0  0  0  0  0  0  0  0  0  0  0  0
   13.5484   -4.6089   18.1779 H   0  0  0  0  0  0  0  0  0  0  0  0
   17.3754   -4.0753   15.7787 H   0  0  0  0  0  0  0  0  0  0  0  0
   15.8606   -3.5037   15.0894 H   0  0  0  0  0  0  0  0  0  0  0  0
   18.3224   -0.4592   12.0678 H   0  0  0  0  0  0  0  0  0  0  0  0
   19.6204    0.5442   13.3871 H   0  0  0  0  0  0  0  0  0  0  0  0
   20.1298   -2.5192   12.4927 H   0  0  0  0  0  0  0  0  0  0  0  0
   18.5656   -2.7968   11.6739 H   0  0  0  0  0  0  0  0  0  0  0  0
  1  2  1  0
  2  3  1  0
  3  4  2  0
  3  5  1  0
  5  6  1  0
  5  7  1  0
  7  8  1  0
  8  9  1  0
  9 10  1  0
 10 11  1  0
 11 12  1  0
 12 13  1  0
 13 14  1  0
 14 15  2  0
 14 16  2  0
 14 17  1  0
 17 18  1  0
 18 19  1  0
 19 20  1  0
 20 21  1  0
 21 22  1  0
 12 23  1  0
 23 24  1  0
 24 25  2  0
 25 26  1  0
 26 27  1  0
 26 28  1  0
 28 29  1  0
 10  5  1  0
 22 17  1  0
 29 24  1  0
 25 10  1  0
  1 30  1  0
  1 31  1  0
  1 32  1  0
  6 33  1  0
  6 34  1  0
  6 35  1  0
  7 36  1  0
  7 37  1  0
  8 38  1  0
  8 39  1  0
  9 40  1  0
  9 41  1  0
 11 42  1  0
 11 43  1  0
 12 44  1  0
 13 45  1  0
 18 46  1  0
 18 47  1  0
 19 48  1  0
 19 49  1  0
 20 50  1  0
 21 51  1  0
 21 52  1  0
 22 53  1  0
 22 54  1  0
 23 55  1  0
 23 56  1  0
 26 57  1  0
 27 58  1  0
 28 59  1  0
 28 60  1  0
M  END
>  <Energy>  (1002) 
-42.589092246543011

>  <compound_id>  (1002) 
1314

>  <target_id>  (1002) 
1

>  <reference_id>  (1002) 
93

>  <inspiration_ids>  (1002) 
[93, 114]

>  <energy_score>  (1002) 
-79.1331602522106

>  <distance_score>  (1002) 
4.625968038263746

>  <path>  (1002) 
/opt/xchem-fragalysis-2/maxwin/BulkDock/SCRATCH/505733/C1314-P93/C1314-P93.minimised.mol

>  <scratch_subdir>  (1002) 
/opt/xchem-fragalysis-2/maxwin/BulkDock/SCRATCH/505733/C1314-P93

>  <fragmenstein_runtime>  (1002) 
13.85517930984497

>  <fragmenstein_outcome>  (1002) 
too moved

>  <fragmenstein_mode>  (1002) 
expansion

>  <fragmenstein_error>  (1002) 


$$$$
C1314-P114
     RDKit          3D

 60 63  0  0  0  0  0  0  0  0999 V2000
   19.6752   -0.9324   18.3369 C   0  0  0  0  0  0  0  0  0  0  0  0
   18.3919   -0.7397   17.7427 O   0  0  0  0  0  0  0  0  0  0  0  0
   18.0928   -1.6179   16.7458 C   0  0  0  0  0  0  0  0  0  0  0  0
   18.8810   -2.4637   16.3353 O   0  0  0  0  0  0  0  0  0  0  0  0
   16.6694   -1.3981   16.1696 C   0  0  0  0  0  0  0  0  0  0  0  0
   16.0294   -0.1478   16.7925 C   0  0  0  0  0  0  0  0  0  0  0  0
   16.8293   -1.1899   14.6304 C   0  0  0  0  0  0  0  0  0  0  0  0
   16.5635   -2.5456   13.9565 C   0  0  0  0  0  0  0  0  0  0  0  0
   16.3764   -3.5227   15.1053 C   0  0  0  0  0  0  0  0  0  0  0  0
   15.7656   -2.6768   16.2224 C   0  0  0  0  0  0  0  0  0  0  0  0
   14.3416   -2.3581   15.7328 C   0  0  0  0  0  0  0  0  0  0  0  0
   13.4446   -1.9227   16.8725 C   0  0  0  0  0  0  0  0  0  0  0  0
   12.3057   -1.1981   16.2666 N   0  0  0  0  0  0  0  0  0  0  0  0
   12.6476    0.4018   15.7164 S   0  0  0  0  0  0  0  0  0  0  0  0
   13.5318    0.3041   14.5804 O   0  0  0  0  0  0  0  0  0  0  0  0
   12.9417    1.2360   16.8499 O   0  0  0  0  0  0  0  0  0  0  0  0
   11.1964    0.7954   15.0630 N   0  0  0  0  0  0  0  0  0  0  0  0
   10.2629    1.7424   15.6750 C   0  0  0  0  0  0  0  0  0  0  0  0
    9.0266    1.0231   16.2341 C   0  0  0  0  0  0  0  0  0  0  0  0
    8.5190   -0.1496   15.4847 N   0  0  0  0  0  0  0  0  0  0  0  0
    9.6160   -1.0369   15.1325 C   0  0  0  0  0  0  0  0  0  0  0  0
   10.5719   -0.2260   14.2241 C   0  0  0  0  0  0  0  0  0  0  0  0
   13.1244   -3.2406   17.6036 C   0  0  0  0  0  0  0  0  0  0  0  0
   14.4298   -3.8544   18.0016 C   0  0  0  0  0  0  0  0  0  0  0  0
   15.6019   -3.4992   17.4646 C   0  0  0  0  0  0  0  0  0  0  0  0
   16.6531   -3.9917   18.3631 C   0  0  0  0  0  0  0  0  0  0  0  0
   16.9865   -2.8910   19.1874 O   0  0  0  0  0  0  0  0  0  0  0  0
   15.8889   -5.0436   19.1711 C   0  0  0  0  0  0  0  0  0  0  0  0
   14.4915   -4.6577   19.1330 O   0  0  0  0  0  0  0  0  0  0  0  0
   19.7676   -1.9449   18.7425 H   0  0  0  0  0  0  0  0  0  0  0  0
   20.4656   -0.7334   17.6067 H   0  0  0  0  0  0  0  0  0  0  0  0
   19.7772   -0.2205   19.1606 H   0  0  0  0  0  0  0  0  0  0  0  0
   16.7203    0.7039   16.7422 H   0  0  0  0  0  0  0  0  0  0  0  0
   15.7934   -0.2967   17.8507 H   0  0  0  0  0  0  0  0  0  0  0  0
   15.1574    0.1852   16.2605 H   0  0  0  0  0  0  0  0  0  0  0  0
   17.8352   -0.8354   14.3738 H   0  0  0  0  0  0  0  0  0  0  0  0
   16.1367   -0.4404   14.2321 H   0  0  0  0  0  0  0  0  0  0  0  0
   17.4031   -2.8434   13.3197 H   0  0  0  0  0  0  0  0  0  0  0  0
   15.6785   -2.4934   13.3134 H   0  0  0  0  0  0  0  0  0  0  0  0
   15.7843   -4.3947   14.8480 H   0  0  0  0  0  0  0  0  0  0  0  0
   17.3455   -3.9448   15.3928 H   0  0  0  0  0  0  0  0  0  0  0  0
   13.8792   -3.2409   15.2753 H   0  0  0  0  0  0  0  0  0  0  0  0
   14.3599   -1.6573   14.9082 H   0  0  0  0  0  0  0  0  0  0  0  0
   13.9080   -1.2474   17.5945 H   0  0  0  0  0  0  0  0  0  0  0  0
   12.0385   -1.7403   15.4460 H   0  0  0  0  0  0  0  0  0  0  0  0
   10.7361    2.3432   16.4567 H   0  0  0  0  0  0  0  0  0  0  0  0
    9.9564    2.4489   14.8948 H   0  0  0  0  0  0  0  0  0  0  0  0
    8.2267    1.7582   16.3617 H   0  0  0  0  0  0  0  0  0  0  0  0
    9.2665    0.6640   17.2237 H   0  0  0  0  0  0  0  0  0  0  0  0
    8.2791    0.1483   14.5342 H   0  0  0  0  0  0  0  0  0  0  0  0
    9.1956   -1.9296   14.6722 H   0  0  0  0  0  0  0  0  0  0  0  0
   10.0747   -1.4036   16.0400 H   0  0  0  0  0  0  0  0  0  0  0  0
   11.3250   -0.8664   13.7528 H   0  0  0  0  0  0  0  0  0  0  0  0
   10.0547    0.2929   13.4068 H   0  0  0  0  0  0  0  0  0  0  0  0
   12.5839   -3.0553   18.5171 H   0  0  0  0  0  0  0  0  0  0  0  0
   12.5318   -3.9296   16.9916 H   0  0  0  0  0  0  0  0  0  0  0  0
   17.5448   -4.4004   17.8843 H   0  0  0  0  0  0  0  0  0  0  0  0
   16.1947   -2.6512   19.7038 H   0  0  0  0  0  0  0  0  0  0  0  0
   16.2068   -5.0857   20.2177 H   0  0  0  0  0  0  0  0  0  0  0  0
   15.9800   -6.0401   18.7260 H   0  0  0  0  0  0  0  0  0  0  0  0
  1  2  1  0
  2  3  1  0
  3  4  2  0
  3  5  1  0
  5  6  1  0
  5  7  1  0
  7  8  1  0
  8  9  1  0
  9 10  1  0
 10 11  1  0
 11 12  1  0
 12 13  1  0
 13 14  1  0
 14 15  2  0
 14 16  2  0
 14 17  1  0
 17 18  1  0
 18 19  1  0
 19 20  1  0
 20 21  1  0
 21 22  1  0
 12 23  1  0
 23 24  1  0
 24 25  2  0
 25 26  1  0
 26 27  1  0
 26 28  1  0
 28 29  1  0
 10  5  1  0
 22 17  1  0
 29 24  1  0
 25 10  1  0
  1 30  1  0
  1 31  1  0
  1 32  1  0
  6 33  1  0
  6 34  1  0
  6 35  1  0
  7 36  1  0
  7 37  1  0
  8 38  1  0
  8 39  1  0
  9 40  1  0
  9 41  1  0
 11 42  1  0
 11 43  1  0
 12 44  1  0
 13 45  1  0
 18 46  1  0
 18 47  1  0
 19 48  1  0
 19 49  1  0
 20 50  1  0
 21 51  1  0
 21 52  1  0
 22 53  1  0
 22 54  1  0
 23 55  1  0
 23 56  1  0
 26 57  1  0
 27 58  1  0
 28 59  1  0
 28 60  1  0
M  END
>  <Energy>  (1003) 
-22.788410150748742

>  <compound_id>  (1003) 
1314

>  <target_id>  (1003) 
1

>  <reference_id>  (1003) 
114

>  <inspiration_ids>  (1003) 
[93, 114]

>  <energy_score>  (1003) 
-63.458118013074255

>  <distance_score>  (1003) 
3.992869520374048

>  <path>  (1003) 
/opt/xchem-fragalysis-2/maxwin/BulkDock/SCRATCH/505733/C1314-P114/C1314-P114.minimised.mol

>  <scratch_subdir>  (1003) 
/opt/xchem-fragalysis-2/maxwin/BulkDock/SCRATCH/505733/C1314-P114

>  <fragmenstein_runtime>  (1003) 
19.91737461090088

>  <fragmenstein_outcome>  (1003) 
too moved

>  <fragmenstein_mode>  (1003) 
expansion

>  <fragmenstein_error>  (1003) 


$$$$
C1316-P93
     RDKit          3D

 50 55  0  0  0  0  0  0  0  0999 V2000
   19.3880   -1.8384   15.2739 C   0  0  0  0  0  0  0  0  0  0  0  0
   18.0807   -1.3793   15.6197 O   0  0  0  0  0  0  0  0  0  0  0  0
   17.8197   -1.3459   16.9564 C   0  0  0  0  0  0  0  0  0  0  0  0
   18.6310   -1.6764   17.8180 O   0  0  0  0  0  0  0  0  0  0  0  0
   16.3820   -0.9070   17.2707 C   0  0  0  0  0  0  0  0  0  0  0  0
   16.3148    0.0701   18.4474 C   0  0  0  0  0  0  0  0  0  0  0  0
   16.4257    1.4382   17.7826 C   0  0  0  0  0  0  0  0  0  0  0  0
   15.5276    1.3196   16.5546 C   0  0  0  0  0  0  0  0  0  0  0  0
   15.7385   -0.0523   16.0815 N   0  0  0  0  0  0  0  0  0  0  0  0
   14.5801   -0.7577   15.7772 C   0  0  0  0  0  0  0  0  0  0  0  0
   13.5066   -0.5911   14.9321 C   0  0  0  0  0  0  0  0  0  0  0  0
   13.4373    0.5690   13.9974 C   0  0  0  0  0  0  0  0  0  0  0  0
   12.4678   -1.5554   14.9745 C   0  0  0  0  0  0  0  0  0  0  0  0
   12.5092   -2.7104   15.8244 C   0  0  0  0  0  0  0  0  0  0  0  0
   11.4394   -3.6099   15.7863 N   0  0  0  0  0  0  0  0  0  0  0  0
   11.7034   -4.8190   16.4202 O   0  0  0  0  0  0  0  0  0  0  0  0
   13.6111   -2.8452   16.6953 C   0  0  0  0  0  0  0  0  0  0  0  0
   14.0723   -3.6779   17.7384 N   0  0  0  0  0  0  0  0  0  0  0  0
   15.1934   -3.1123   18.1930 C   0  0  0  0  0  0  0  0  0  0  0  0
   16.0552   -3.4050   19.6600 S   0  0  0  0  0  0  0  0  0  0  0  0
   16.2861   -5.1183   19.5992 C   0  0  0  0  0  0  0  0  0  0  0  0
   15.6577   -5.9126   20.4924 C   0  0  0  0  0  0  0  0  0  0  0  0
   15.9456   -7.3401   20.5217 C   0  0  0  0  0  0  0  0  0  0  0  0
   16.8435   -7.8936   19.6857 C   0  0  0  0  0  0  0  0  0  0  0  0
   17.5299   -7.0705   18.7546 C   0  0  0  0  0  0  0  0  0  0  0  0
   18.4465   -7.3321   17.8474 N   0  0  0  0  0  0  0  0  0  0  0  0
   18.7763   -6.1508   17.2281 N   0  0  0  0  0  0  0  0  0  0  0  0
   18.0558   -5.2000   17.7774 C   0  0  0  0  0  0  0  0  0  0  0  0
   17.2283   -5.7121   18.7420 N   0  0  0  0  0  0  0  0  0  0  0  0
   15.5198   -2.0643   17.4259 N   0  0  0  0  0  0  0  0  0  0  0  0
   14.5254   -1.8728   16.5462 C   0  0  0  0  0  0  0  0  0  0  0  0
   19.5329   -2.8693   15.6110 H   0  0  0  0  0  0  0  0  0  0  0  0
   19.4786   -1.8139   14.1846 H   0  0  0  0  0  0  0  0  0  0  0  0
   20.1504   -1.1793   15.7006 H   0  0  0  0  0  0  0  0  0  0  0  0
   15.3546    0.0010   18.9751 H   0  0  0  0  0  0  0  0  0  0  0  0
   17.1082   -0.0776   19.1867 H   0  0  0  0  0  0  0  0  0  0  0  0
   16.1129    2.2507   18.4447 H   0  0  0  0  0  0  0  0  0  0  0  0
   17.4623    1.6259   17.4778 H   0  0  0  0  0  0  0  0  0  0  0  0
   15.8074    2.0445   15.7841 H   0  0  0  0  0  0  0  0  0  0  0  0
   14.4857    1.5046   16.8466 H   0  0  0  0  0  0  0  0  0  0  0  0
   12.7564    0.3653   13.1640 H   0  0  0  0  0  0  0  0  0  0  0  0
   14.4199    0.7822   13.5635 H   0  0  0  0  0  0  0  0  0  0  0  0
   13.0787    1.4583   14.5250 H   0  0  0  0  0  0  0  0  0  0  0  0
   11.6067   -1.4281   14.3171 H   0  0  0  0  0  0  0  0  0  0  0  0
   11.1386   -3.7372   14.8179 H   0  0  0  0  0  0  0  0  0  0  0  0
   10.9682   -5.3898   16.1339 H   0  0  0  0  0  0  0  0  0  0  0  0
   14.9461   -5.5250   21.2163 H   0  0  0  0  0  0  0  0  0  0  0  0
   15.4035   -7.9555   21.2335 H   0  0  0  0  0  0  0  0  0  0  0  0
   17.0473   -8.9588   19.6882 H   0  0  0  0  0  0  0  0  0  0  0  0
   18.1001   -4.1568   17.5187 H   0  0  0  0  0  0  0  0  0  0  0  0
  1  2  1  0
  2  3  1  0
  3  4  2  0
  3  5  1  0
  5  6  1  0
  6  7  1  0
  7  8  1  0
  8  9  1  0
  9 10  1  0
 10 11  2  0
 11 12  1  0
 11 13  1  0
 13 14  2  0
 14 15  1  0
 15 16  1  0
 14 17  1  0
 17 18  1  0
 18 19  2  0
 19 20  1  0
 20 21  1  0
 21 22  2  0
 22 23  1  0
 23 24  2  0
 24 25  1  0
 25 26  2  0
 26 27  1  0
 27 28  2  0
 28 29  1  0
 19 30  1  0
 30 31  1  0
  9  5  1  0
 31 10  1  0
 30  5  1  0
 31 17  2  0
 29 21  1  0
 29 25  1  0
  1 32  1  0
  1 33  1  0
  1 34  1  0
  6 35  1  0
  6 36  1  0
  7 37  1  0
  7 38  1  0
  8 39  1  0
  8 40  1  0
 12 41  1  0
 12 42  1  0
 12 43  1  0
 13 44  1  0
 15 45  1  0
 16 46  1  0
 22 47  1  0
 23 48  1  0
 24 49  1  0
 28 50  1  0
M  END
>  <Energy>  (1004) 
165.69520324647101

>  <compound_id>  (1004) 
1316

>  <target_id>  (1004) 
1

>  <reference_id>  (1004) 
93

>  <inspiration_ids>  (1004) 
[93, 118]

>  <energy_score>  (1004) 
-85.32847165007166

>  <distance_score>  (1004) 
1.6014695659811218

>  <path>  (1004) 
/opt/xchem-fragalysis-2/maxwin/BulkDock/SCRATCH/505733/C1316-P93/C1316-P93.minimised.mol

>  <scratch_subdir>  (1004) 
/opt/xchem-fragalysis-2/maxwin/BulkDock/SCRATCH/505733/C1316-P93

>  <fragmenstein_runtime>  (1004) 
5.0334954261779785

>  <fragmenstein_outcome>  (1004) 
too moved

>  <fragmenstein_mode>  (1004) 
expansion

>  <fragmenstein_error>  (1004) 


$$$$
C1316-P118
     RDKit          3D

 50 55  0  0  0  0  0  0  0  0999 V2000
   18.1814    1.3805   19.2587 C   0  0  0  0  0  0  0  0  0  0  0  0
   17.7497    0.6181   18.1310 O   0  0  0  0  0  0  0  0  0  0  0  0
   17.0211   -0.4953   18.4467 C   0  0  0  0  0  0  0  0  0  0  0  0
   16.8003   -0.8561   19.5989 O   0  0  0  0  0  0  0  0  0  0  0  0
   16.5663   -1.2512   17.1843 C   0  0  0  0  0  0  0  0  0  0  0  0
   17.7221   -1.8991   16.4187 C   0  0  0  0  0  0  0  0  0  0  0  0
   18.1071   -0.8630   15.3669 C   0  0  0  0  0  0  0  0  0  0  0  0
   16.7750   -0.2870   14.8951 C   0  0  0  0  0  0  0  0  0  0  0  0
   15.9377   -0.2352   16.1031 N   0  0  0  0  0  0  0  0  0  0  0  0
   14.6461   -0.7203   15.9195 C   0  0  0  0  0  0  0  0  0  0  0  0
   13.5819   -0.4644   15.0745 C   0  0  0  0  0  0  0  0  0  0  0  0
   13.6372    0.6487   14.0808 C   0  0  0  0  0  0  0  0  0  0  0  0
   12.4600   -1.3411   15.1022 C   0  0  0  0  0  0  0  0  0  0  0  0
   12.4130   -2.4909   15.9399 C   0  0  0  0  0  0  0  0  0  0  0  0
   11.3254   -3.3563   15.9255 N   0  0  0  0  0  0  0  0  0  0  0  0
   11.5173   -4.5421   16.6328 O   0  0  0  0  0  0  0  0  0  0  0  0
   13.5003   -2.7117   16.8004 C   0  0  0  0  0  0  0  0  0  0  0  0
   13.9163   -3.6964   17.7088 N   0  0  0  0  0  0  0  0  0  0  0  0
   15.1612   -3.3561   18.0534 C   0  0  0  0  0  0  0  0  0  0  0  0
   16.3083   -4.2963   18.9374 S   0  0  0  0  0  0  0  0  0  0  0  0
   15.4251   -4.5395   20.4125 C   0  0  0  0  0  0  0  0  0  0  0  0
   14.9539   -3.5095   21.1475 C   0  0  0  0  0  0  0  0  0  0  0  0
   14.2714   -3.7691   22.4066 C   0  0  0  0  0  0  0  0  0  0  0  0
   14.0881   -5.0187   22.8662 C   0  0  0  0  0  0  0  0  0  0  0  0
   14.5913   -6.1124   22.1178 C   0  0  0  0  0  0  0  0  0  0  0  0
   14.5685   -7.4098   22.3300 N   0  0  0  0  0  0  0  0  0  0  0  0
   15.2471   -8.0135   21.2991 N   0  0  0  0  0  0  0  0  0  0  0  0
   15.6573   -7.0707   20.4791 C   0  0  0  0  0  0  0  0  0  0  0  0
   15.2556   -5.8373   20.9264 N   0  0  0  0  0  0  0  0  0  0  0  0
   15.4957   -2.1843   17.4932 N   0  0  0  0  0  0  0  0  0  0  0  0
   14.4693   -1.7926   16.7236 C   0  0  0  0  0  0  0  0  0  0  0  0
   18.7199    2.2572   18.8885 H   0  0  0  0  0  0  0  0  0  0  0  0
   17.3217    1.7233   19.8430 H   0  0  0  0  0  0  0  0  0  0  0  0
   18.8634    0.7910   19.8791 H   0  0  0  0  0  0  0  0  0  0  0  0
   18.5723   -2.1474   17.0624 H   0  0  0  0  0  0  0  0  0  0  0  0
   17.4068   -2.8214   15.9142 H   0  0  0  0  0  0  0  0  0  0  0  0
   18.7244   -0.0758   15.8141 H   0  0  0  0  0  0  0  0  0  0  0  0
   18.6772   -1.3029   14.5432 H   0  0  0  0  0  0  0  0  0  0  0  0
   16.3534   -0.9433   14.1224 H   0  0  0  0  0  0  0  0  0  0  0  0
   16.9023    0.7130   14.4692 H   0  0  0  0  0  0  0  0  0  0  0  0
   12.6310    1.0065   13.8377 H   0  0  0  0  0  0  0  0  0  0  0  0
   14.1185    0.3084   13.1587 H   0  0  0  0  0  0  0  0  0  0  0  0
   14.1934    1.5040   14.4785 H   0  0  0  0  0  0  0  0  0  0  0  0
   11.6215   -1.1541   14.4296 H   0  0  0  0  0  0  0  0  0  0  0  0
   11.0090   -3.5527   14.9735 H   0  0  0  0  0  0  0  0  0  0  0  0
   11.8766   -4.2810   17.5091 H   0  0  0  0  0  0  0  0  0  0  0  0
   15.0594   -2.4697   20.8529 H   0  0  0  0  0  0  0  0  0  0  0  0
   13.8956   -2.9125   22.9596 H   0  0  0  0  0  0  0  0  0  0  0  0
   13.5715   -5.2120   23.7989 H   0  0  0  0  0  0  0  0  0  0  0  0
   16.2158   -7.2298   19.5679 H   0  0  0  0  0  0  0  0  0  0  0  0
  1  2  1  0
  2  3  1  0
  3  4  2  0
  3  5  1  0
  5  6  1  0
  6  7  1  0
  7  8  1  0
  8  9  1  0
  9 10  1  0
 10 11  2  0
 11 12  1  0
 11 13  1  0
 13 14  2  0
 14 15  1  0
 15 16  1  0
 14 17  1  0
 17 18  1  0
 18 19  2  0
 19 20  1  0
 20 21  1  0
 21 22  2  0
 22 23  1  0
 23 24  2  0
 24 25  1  0
 25 26  2  0
 26 27  1  0
 27 28  2  0
 28 29  1  0
 19 30  1  0
 30 31  1  0
  9  5  1  0
 31 10  1  0
 30  5  1  0
 31 17  2  0
 29 21  1  0
 29 25  1  0
  1 32  1  0
  1 33  1  0
  1 34  1  0
  6 35  1  0
  6 36  1  0
  7 37  1  0
  7 38  1  0
  8 39  1  0
  8 40  1  0
 12 41  1  0
 12 42  1  0
 12 43  1  0
 13 44  1  0
 15 45  1  0
 16 46  1  0
 22 47  1  0
 23 48  1  0
 24 49  1  0
 28 50  1  0
M  END
>  <Energy>  (1005) 
156.51144436809739

>  <compound_id>  (1005) 
1316

>  <target_id>  (1005) 
1

>  <reference_id>  (1005) 
118

>  <inspiration_ids>  (1005) 
[93, 118]

>  <energy_score>  (1005) 
-94.51223052844517

>  <distance_score>  (1005) 
1.712828605550215

>  <path>  (1005) 
/opt/xchem-fragalysis-2/maxwin/BulkDock/SCRATCH/505733/C1316-P118/C1316-P118.minimised.mol

>  <scratch_subdir>  (1005) 
/opt/xchem-fragalysis-2/maxwin/BulkDock/SCRATCH/505733/C1316-P118

>  <fragmenstein_runtime>  (1005) 
4.835269451141357

>  <fragmenstein_outcome>  (1005) 
too moved

>  <fragmenstein_mode>  (1005) 
expansion

>  <fragmenstein_error>  (1005) 


$$$$
C1317-P93
     RDKit          3D

 56 60  0  0  0  0  0  0  0  0999 V2000
   15.1633    3.7312   10.7919 C   0  0  0  0  0  0  0  0  0  0  0  0
   14.9629    4.0444   12.1643 O   0  0  0  0  0  0  0  0  0  0  0  0
   14.3313    2.9689   12.8653 C   0  0  0  0  0  0  0  0  0  0  0  0
   14.0629    3.3673   14.3322 C   0  0  0  0  0  0  0  0  0  0  0  0
   13.0481    4.5204   14.4056 C   0  0  0  0  0  0  0  0  0  0  0  0
   15.3803    3.7768   15.0316 C   0  0  0  0  0  0  0  0  0  0  0  0
   15.1265    3.4632   16.4981 C   0  0  0  0  0  0  0  0  0  0  0  0
   14.3534    2.1524   16.4402 C   0  0  0  0  0  0  0  0  0  0  0  0
   13.5923    2.2377   15.1875 N   0  0  0  0  0  0  0  0  0  0  0  0
   12.4092    1.1431   14.7654 S   0  0  0  0  0  0  0  0  0  0  0  0
   11.7457    0.7306   15.9856 O   0  0  0  0  0  0  0  0  0  0  0  0
   11.6404    1.7455   13.6958 O   0  0  0  0  0  0  0  0  0  0  0  0
   13.3235   -0.2415   14.0480 C   0  0  0  0  0  0  0  0  0  0  0  0
   13.4975   -1.3531   15.0463 C   0  0  0  0  0  0  0  0  0  0  0  0
   12.4738   -2.2980   15.2440 C   0  0  0  0  0  0  0  0  0  0  0  0
   12.6043   -3.3215   16.1950 C   0  0  0  0  0  0  0  0  0  0  0  0
   13.7715   -3.3709   16.9707 C   0  0  0  0  0  0  0  0  0  0  0  0
   14.1442   -4.2204   17.9853 N   0  0  0  0  0  0  0  0  0  0  0  0
   15.3079   -3.7850   18.4015 C   0  0  0  0  0  0  0  0  0  0  0  0
   16.1779   -4.3628   19.7830 S   0  0  0  0  0  0  0  0  0  0  0  0
   17.6067   -4.9296   18.9807 C   0  0  0  0  0  0  0  0  0  0  0  0
   17.6855   -6.1865   18.4967 C   0  0  0  0  0  0  0  0  0  0  0  0
   18.8915   -6.6215   17.8064 C   0  0  0  0  0  0  0  0  0  0  0  0
   19.9416   -5.7959   17.6390 C   0  0  0  0  0  0  0  0  0  0  0  0
   19.8810   -4.4764   18.1605 C   0  0  0  0  0  0  0  0  0  0  0  0
   20.7250   -3.4680   18.1305 N   0  0  0  0  0  0  0  0  0  0  0  0
   20.1613   -2.4243   18.8275 N   0  0  0  0  0  0  0  0  0  0  0  0
   18.9921   -2.8251   19.2710 C   0  0  0  0  0  0  0  0  0  0  0  0
   18.7287   -4.0997   18.8392 N   0  0  0  0  0  0  0  0  0  0  0  0
   15.7371   -2.7215   17.6714 N   0  0  0  0  0  0  0  0  0  0  0  0
   14.7670   -2.4292   16.7494 C   0  0  0  0  0  0  0  0  0  0  0  0
   14.6858   -1.4307   15.7859 C   0  0  0  0  0  0  0  0  0  0  0  0
   15.6587    4.5805   10.3140 H   0  0  0  0  0  0  0  0  0  0  0  0
   15.8035    2.8496   10.6897 H   0  0  0  0  0  0  0  0  0  0  0  0
   14.2040    3.5608   10.2938 H   0  0  0  0  0  0  0  0  0  0  0  0
   13.4034    2.7140   12.3450 H   0  0  0  0  0  0  0  0  0  0  0  0
   14.9933    2.0964   12.8266 H   0  0  0  0  0  0  0  0  0  0  0  0
   13.4481    5.4307   13.9456 H   0  0  0  0  0  0  0  0  0  0  0  0
   12.1190    4.2722   13.8827 H   0  0  0  0  0  0  0  0  0  0  0  0
   12.7760    4.7608   15.4391 H   0  0  0  0  0  0  0  0  0  0  0  0
   15.6466    4.8267   14.8736 H   0  0  0  0  0  0  0  0  0  0  0  0
   16.2165    3.1612   14.6751 H   0  0  0  0  0  0  0  0  0  0  0  0
   14.5155    4.2481   16.9584 H   0  0  0  0  0  0  0  0  0  0  0  0
   16.0508    3.3742   17.0760 H   0  0  0  0  0  0  0  0  0  0  0  0
   13.7024    2.0463   17.3117 H   0  0  0  0  0  0  0  0  0  0  0  0
   15.0518    1.3155   16.3987 H   0  0  0  0  0  0  0  0  0  0  0  0
   12.7443   -0.5953   13.1893 H   0  0  0  0  0  0  0  0  0  0  0  0
   14.2791    0.1204   13.6621 H   0  0  0  0  0  0  0  0  0  0  0  0
   11.5555   -2.2451   14.6565 H   0  0  0  0  0  0  0  0  0  0  0  0
   11.8215   -4.0574   16.3423 H   0  0  0  0  0  0  0  0  0  0  0  0
   16.8790   -6.9067   18.6008 H   0  0  0  0  0  0  0  0  0  0  0  0
   18.9154   -7.6385   17.4233 H   0  0  0  0  0  0  0  0  0  0  0  0
   20.8405   -6.1132   17.1218 H   0  0  0  0  0  0  0  0  0  0  0  0
   18.3205   -2.2470   19.8891 H   0  0  0  0  0  0  0  0  0  0  0  0
   16.5859   -2.1988   17.8191 H   0  0  0  0  0  0  0  0  0  0  0  0
   15.5029   -0.7349   15.6300 H   0  0  0  0  0  0  0  0  0  0  0  0
  1  2  1  0
  2  3  1  0
  3  4  1  0
  4  5  1  0
  4  6  1  0
  6  7  1  0
  7  8  1  0
  8  9  1  0
  9 10  1  0
 10 11  2  0
 10 12  2  0
 10 13  1  0
 13 14  1  0
 14 15  2  0
 15 16  1  0
 16 17  2  0
 17 18  1  0
 18 19  2  0
 19 20  1  0
 20 21  1  0
 21 22  2  0
 22 23  1  0
 23 24  2  0
 24 25  1  0
 25 26  2  0
 26 27  1  0
 27 28  2  0
 28 29  1  0
 19 30  1  0
 30 31  1  0
 31 32  2  0
  9  4  1  0
 32 14  1  0
 31 17  1  0
 29 21  1  0
 29 25  1  0
  1 33  1  0
  1 34  1  0
  1 35  1  0
  3 36  1  0
  3 37  1  0
  5 38  1  0
  5 39  1  0
  5 40  1  0
  6 41  1  0
  6 42  1  0
  7 43  1  0
  7 44  1  0
  8 45  1  0
  8 46  1  0
 13 47  1  0
 13 48  1  0
 15 49  1  0
 16 50  1  0
 22 51  1  0
 23 52  1  0
 24 53  1  0
 28 54  1  0
 30 55  1  0
 32 56  1  0
M  END
>  <Energy>  (1006) 
58.920420398037272

>  <compound_id>  (1006) 
1317

>  <target_id>  (1006) 
1

>  <reference_id>  (1006) 
93

>  <inspiration_ids>  (1006) 
[93, 120]

>  <energy_score>  (1006) 
-55.554150709126986

>  <distance_score>  (1006) 
1.257572308546954

>  <path>  (1006) 
/opt/xchem-fragalysis-2/maxwin/BulkDock/SCRATCH/505733/C1317-P93/C1317-P93.minimised.mol

>  <scratch_subdir>  (1006) 
/opt/xchem-fragalysis-2/maxwin/BulkDock/SCRATCH/505733/C1317-P93

>  <fragmenstein_runtime>  (1006) 
4.382990837097168

>  <fragmenstein_outcome>  (1006) 
too moved

>  <fragmenstein_mode>  (1006) 
expansion

>  <fragmenstein_error>  (1006) 


$$$$
C1317-P120
     RDKit          3D

 56 60  0  0  0  0  0  0  0  0999 V2000
   15.2263    2.8967   10.9590 C   0  0  0  0  0  0  0  0  0  0  0  0
   14.9505    3.2620   12.3050 O   0  0  0  0  0  0  0  0  0  0  0  0
   14.0905    2.3111   12.9440 C   0  0  0  0  0  0  0  0  0  0  0  0
   13.7657    2.7587   14.3832 C   0  0  0  0  0  0  0  0  0  0  0  0
   12.9540    4.0651   14.3715 C   0  0  0  0  0  0  0  0  0  0  0  0
   15.0702    2.9476   15.1905 C   0  0  0  0  0  0  0  0  0  0  0  0
   14.6394    2.7377   16.6318 C   0  0  0  0  0  0  0  0  0  0  0  0
   13.6349    1.5968   16.5346 C   0  0  0  0  0  0  0  0  0  0  0  0
   13.0415    1.7352   15.1941 N   0  0  0  0  0  0  0  0  0  0  0  0
   11.7475    0.8188   14.6823 S   0  0  0  0  0  0  0  0  0  0  0  0
   10.9709    0.4448   15.8511 O   0  0  0  0  0  0  0  0  0  0  0  0
   11.1225    1.5530   13.6016 O   0  0  0  0  0  0  0  0  0  0  0  0
   12.4609   -0.6777   13.9694 C   0  0  0  0  0  0  0  0  0  0  0  0
   13.3281   -1.4277   14.9489 C   0  0  0  0  0  0  0  0  0  0  0  0
   14.7204   -1.4342   14.7745 C   0  0  0  0  0  0  0  0  0  0  0  0
   15.5641   -2.0747   15.6894 C   0  0  0  0  0  0  0  0  0  0  0  0
   14.9976   -2.7112   16.7987 C   0  0  0  0  0  0  0  0  0  0  0  0
   15.6116   -3.3343   17.8543 N   0  0  0  0  0  0  0  0  0  0  0  0
   14.6300   -3.7214   18.6300 C   0  0  0  0  0  0  0  0  0  0  0  0
   14.7346   -4.5303   20.1531 S   0  0  0  0  0  0  0  0  0  0  0  0
   16.4189   -4.9508   20.0921 C   0  0  0  0  0  0  0  0  0  0  0  0
   16.8027   -6.2096   19.7901 C   0  0  0  0  0  0  0  0  0  0  0  0
   18.2195   -6.5428   19.7503 C   0  0  0  0  0  0  0  0  0  0  0  0
   19.1647   -5.6260   20.0286 C   0  0  0  0  0  0  0  0  0  0  0  0
   18.7767   -4.3025   20.3678 C   0  0  0  0  0  0  0  0  0  0  0  0
   19.4696   -3.2355   20.7031 N   0  0  0  0  0  0  0  0  0  0  0  0
   18.5796   -2.2117   20.9332 N   0  0  0  0  0  0  0  0  0  0  0  0
   17.3682   -2.6808   20.7297 C   0  0  0  0  0  0  0  0  0  0  0  0
   17.4183   -4.0057   20.3789 N   0  0  0  0  0  0  0  0  0  0  0  0
   13.4063   -3.4457   18.0927 N   0  0  0  0  0  0  0  0  0  0  0  0
   13.6144   -2.7422   16.9321 C   0  0  0  0  0  0  0  0  0  0  0  0
   12.7484   -2.1333   16.0214 C   0  0  0  0  0  0  0  0  0  0  0  0
   15.8908    3.6498   10.5273 H   0  0  0  0  0  0  0  0  0  0  0  0
   15.7272    1.9246   10.9210 H   0  0  0  0  0  0  0  0  0  0  0  0
   14.3027    2.8682   10.3729 H   0  0  0  0  0  0  0  0  0  0  0  0
   13.1783    2.2079   12.3475 H   0  0  0  0  0  0  0  0  0  0  0  0
   14.5985    1.3403   12.9580 H   0  0  0  0  0  0  0  0  0  0  0  0
   12.0481    3.9681   13.7644 H   0  0  0  0  0  0  0  0  0  0  0  0
   12.6318    4.3573   15.3768 H   0  0  0  0  0  0  0  0  0  0  0  0
   13.5392    4.8924   13.9551 H   0  0  0  0  0  0  0  0  0  0  0  0
   15.5365    3.9260   15.0372 H   0  0  0  0  0  0  0  0  0  0  0  0
   15.8066    2.1786   14.9228 H   0  0  0  0  0  0  0  0  0  0  0  0
   14.1559    3.6400   17.0235 H   0  0  0  0  0  0  0  0  0  0  0  0
   15.4778    2.4956   17.2913 H   0  0  0  0  0  0  0  0  0  0  0  0
   12.8830    1.6924   17.3202 H   0  0  0  0  0  0  0  0  0  0  0  0
   14.1485    0.6407   16.6376 H   0  0  0  0  0  0  0  0  0  0  0  0
   11.6288   -1.3125   13.6553 H   0  0  0  0  0  0  0  0  0  0  0  0
   13.0154   -0.3880   13.0735 H   0  0  0  0  0  0  0  0  0  0  0  0
   15.1755   -0.9240   13.9276 H   0  0  0  0  0  0  0  0  0  0  0  0
   16.6417   -2.0584   15.5635 H   0  0  0  0  0  0  0  0  0  0  0  0
   16.0968   -7.0015   19.5564 H   0  0  0  0  0  0  0  0  0  0  0  0
   18.4924   -7.5596   19.4821 H   0  0  0  0  0  0  0  0  0  0  0  0
   20.2212   -5.8674   19.9991 H   0  0  0  0  0  0  0  0  0  0  0  0
   16.4498   -2.1205   20.8200 H   0  0  0  0  0  0  0  0  0  0  0  0
   12.5156   -3.6760   18.5174 H   0  0  0  0  0  0  0  0  0  0  0  0
   11.6714   -2.1728   16.1509 H   0  0  0  0  0  0  0  0  0  0  0  0
  1  2  1  0
  2  3  1  0
  3  4  1  0
  4  5  1  0
  4  6  1  0
  6  7  1  0
  7  8  1  0
  8  9  1  0
  9 10  1  0
 10 11  2  0
 10 12  2  0
 10 13  1  0
 13 14  1  0
 14 15  2  0
 15 16  1  0
 16 17  2  0
 17 18  1  0
 18 19  2  0
 19 20  1  0
 20 21  1  0
 21 22  2  0
 22 23  1  0
 23 24  2  0
 24 25  1  0
 25 26  2  0
 26 27  1  0
 27 28  2  0
 28 29  1  0
 19 30  1  0
 30 31  1  0
 31 32  2  0
  9  4  1  0
 32 14  1  0
 31 17  1  0
 29 21  1  0
 29 25  1  0
  1 33  1  0
  1 34  1  0
  1 35  1  0
  3 36  1  0
  3 37  1  0
  5 38  1  0
  5 39  1  0
  5 40  1  0
  6 41  1  0
  6 42  1  0
  7 43  1  0
  7 44  1  0
  8 45  1  0
  8 46  1  0
 13 47  1  0
 13 48  1  0
 15 49  1  0
 16 50  1  0
 22 51  1  0
 23 52  1  0
 24 53  1  0
 28 54  1  0
 30 55  1  0
 32 56  1  0
M  END
>  <Energy>  (1007) 
46.958029912567454

>  <compound_id>  (1007) 
1317

>  <target_id>  (1007) 
1

>  <reference_id>  (1007) 
120

>  <inspiration_ids>  (1007) 
[93, 120]

>  <energy_score>  (1007) 
-120.54628113877624

>  <distance_score>  (1007) 
2.15959196977883

>  <path>  (1007) 
/opt/xchem-fragalysis-2/maxwin/BulkDock/SCRATCH/505733/C1317-P120/C1317-P120.minimised.mol

>  <scratch_subdir>  (1007) 
/opt/xchem-fragalysis-2/maxwin/BulkDock/SCRATCH/505733/C1317-P120

>  <fragmenstein_runtime>  (1007) 
6.2152628898620605

>  <fragmenstein_outcome>  (1007) 
too moved

>  <fragmenstein_mode>  (1007) 
expansion

>  <fragmenstein_error>  (1007) 


$$$$
C1326-P94
     RDKit          3D

 36 37  0  0  0  0  0  0  0  0999 V2000
  -10.3836  -25.3910   33.4893 C   0  0  0  0  0  0  0  0  0  0  0  0
  -11.6135  -24.6914   33.8499 N   0  0  0  0  0  0  0  0  0  0  0  0
  -11.6674  -23.3599   33.2294 C   0  0  0  0  0  0  0  0  0  0  0  0
  -12.7593  -22.5146   33.9119 C   0  0  0  0  0  0  0  0  0  0  0  0
  -13.8336  -23.4027   34.2855 N   0  0  0  0  0  0  0  0  0  0  0  0
  -12.6667  -21.3192   33.9928 O   0  0  0  0  0  0  0  0  0  0  0  0
  -11.9654  -23.4608   31.8020 C   0  0  0  0  0  0  0  0  0  0  0  0
  -11.6881  -24.4386   30.8721 C   0  0  0  0  0  0  0  0  0  0  0  0
  -11.9540  -23.9101   29.5823 C   0  0  0  0  0  0  0  0  0  0  0  0
  -11.5509  -24.4553   28.2661 C   0  0  0  0  0  0  0  0  0  0  0  0
  -12.1205  -25.6908   27.9869 C   0  0  0  0  0  0  0  0  0  0  0  0
  -11.4951  -26.7797   28.5503 C   0  0  0  0  0  0  0  0  0  0  0  0
  -10.2346  -26.5658   29.0884 C   0  0  0  0  0  0  0  0  0  0  0  0
   -9.5292  -25.4292   28.7551 C   0  0  0  0  0  0  0  0  0  0  0  0
  -10.1852  -24.3933   28.1391 C   0  0  0  0  0  0  0  0  0  0  0  0
  -12.1701  -22.5889   29.8409 C   0  0  0  0  0  0  0  0  0  0  0  0
  -11.8050  -21.4634   29.0403 C   0  0  0  0  0  0  0  0  0  0  0  0
  -12.6635  -22.5065   31.1109 N   0  0  0  0  0  0  0  0  0  0  0  0
  -13.9591  -21.8502   31.5232 C   0  0  0  0  0  0  0  0  0  0  0  0
  -14.9652  -21.3209   31.7825 N   0  0  0  0  0  0  0  0  0  0  0  0
   -9.7052  -24.8316   32.8353 H   0  0  0  0  0  0  0  0  0  0  0  0
  -10.6409  -26.3337   33.0051 H   0  0  0  0  0  0  0  0  0  0  0  0
   -9.8216  -25.6068   34.3919 H   0  0  0  0  0  0  0  0  0  0  0  0
  -11.6394  -24.5719   34.8748 H   0  0  0  0  0  0  0  0  0  0  0  0
  -10.7205  -22.8527   33.3227 H   0  0  0  0  0  0  0  0  0  0  0  0
  -13.5100  -24.3928   34.1773 H   0  0  0  0  0  0  0  0  0  0  0  0
  -13.6046  -24.3691   33.9586 H   0  0  0  0  0  0  0  0  0  0  0  0
  -11.2764  -25.4081   31.0950 H   0  0  0  0  0  0  0  0  0  0  0  0
  -13.1483  -25.7587   27.6501 H   0  0  0  0  0  0  0  0  0  0  0  0
  -12.0204  -27.7170   28.6743 H   0  0  0  0  0  0  0  0  0  0  0  0
   -9.7816  -27.2420   29.7984 H   0  0  0  0  0  0  0  0  0  0  0  0
   -8.5284  -25.2928   29.1150 H   0  0  0  0  0  0  0  0  0  0  0  0
   -9.6851  -23.4396   28.0475 H   0  0  0  0  0  0  0  0  0  0  0  0
  -10.8443  -21.1138   29.4199 H   0  0  0  0  0  0  0  0  0  0  0  0
  -11.6800  -21.7446   27.9923 H   0  0  0  0  0  0  0  0  0  0  0  0
  -12.5204  -20.6658   29.1140 H   0  0  0  0  0  0  0  0  0  0  0  0
  1  2  1  0
  2  3  1  0
  3  4  1  0
  4  5  1  0
  4  6  2  0
  3  7  1  0
  7  8  2  0
  8  9  1  0
  9 10  1  0
 10 11  2  0
 11 12  1  0
 12 13  2  0
 13 14  1  0
 14 15  2  0
  9 16  2  0
 16 17  1  0
 16 18  1  0
 18 19  1  0
 19 20  3  0
 18  7  1  0
 15 10  1  0
  1 21  1  0
  1 22  1  0
  1 23  1  0
  2 24  1  0
  3 25  1  0
  5 26  1  0
  5 27  1  0
  8 28  1  0
 11 29  1  0
 12 30  1  0
 13 31  1  0
 14 32  1  0
 15 33  1  0
 17 34  1  0
 17 35  1  0
 17 36  1  0
M  END
>  <Energy>  (1008) 
339.90401054067422

>  <compound_id>  (1008) 
1326

>  <target_id>  (1008) 
1

>  <reference_id>  (1008) 
94

>  <inspiration_ids>  (1008) 
[94, 34]

>  <energy_score>  (1008) 
233.72799233649567

>  <distance_score>  (1008) 
3.647750623340699

>  <path>  (1008) 
/opt/xchem-fragalysis-2/maxwin/BulkDock/SCRATCH/505733/C1326-P94/C1326-P94.minimised.mol

>  <scratch_subdir>  (1008) 
/opt/xchem-fragalysis-2/maxwin/BulkDock/SCRATCH/505733/C1326-P94

>  <fragmenstein_runtime>  (1008) 
12.802255153656006

>  <fragmenstein_outcome>  (1008) 
too moved

>  <fragmenstein_mode>  (1008) 
expansion

>  <fragmenstein_error>  (1008) 


$$$$
C1326-P34
     RDKit          3D

 36 37  0  0  0  0  0  0  0  0999 V2000
   -8.6099  -25.3469   33.4327 C   0  0  0  0  0  0  0  0  0  0  0  0
   -9.1059  -24.1873   34.2358 N   0  0  0  0  0  0  0  0  0  0  0  0
   -9.9239  -23.2534   33.3723 C   0  0  0  0  0  0  0  0  0  0  0  0
   -9.1416  -22.0923   32.8703 C   0  0  0  0  0  0  0  0  0  0  0  0
   -7.7737  -22.3473   33.1796 N   0  0  0  0  0  0  0  0  0  0  0  0
   -9.6575  -21.1678   32.3099 O   0  0  0  0  0  0  0  0  0  0  0  0
  -11.2499  -22.7782   33.8748 C   0  0  0  0  0  0  0  0  0  0  0  0
  -12.3945  -23.4720   33.5371 C   0  0  0  0  0  0  0  0  0  0  0  0
  -12.6071  -22.9187   32.2098 C   0  0  0  0  0  0  0  0  0  0  0  0
  -11.7594  -23.0763   30.9571 C   0  0  0  0  0  0  0  0  0  0  0  0
  -11.1870  -24.3216   30.6045 C   0  0  0  0  0  0  0  0  0  0  0  0
  -10.4835  -24.5391   29.4159 C   0  0  0  0  0  0  0  0  0  0  0  0
  -10.3372  -23.4965   28.5228 C   0  0  0  0  0  0  0  0  0  0  0  0
  -10.8550  -22.2494   28.8526 C   0  0  0  0  0  0  0  0  0  0  0  0
  -11.5314  -22.0354   30.0611 C   0  0  0  0  0  0  0  0  0  0  0  0
  -12.9019  -21.6725   32.7414 C   0  0  0  0  0  0  0  0  0  0  0  0
  -14.2220  -20.9919   32.8195 C   0  0  0  0  0  0  0  0  0  0  0  0
  -11.8349  -21.4813   33.6449 N   0  0  0  0  0  0  0  0  0  0  0  0
  -11.6424  -20.2029   34.3663 C   0  0  0  0  0  0  0  0  0  0  0  0
  -11.6616  -19.1670   34.8979 N   0  0  0  0  0  0  0  0  0  0  0  0
   -7.7554  -25.0859   32.7997 H   0  0  0  0  0  0  0  0  0  0  0  0
   -9.3591  -25.7853   32.7675 H   0  0  0  0  0  0  0  0  0  0  0  0
   -8.2737  -26.1253   34.1155 H   0  0  0  0  0  0  0  0  0  0  0  0
   -9.7653  -24.5146   34.9504 H   0  0  0  0  0  0  0  0  0  0  0  0
  -10.0658  -23.8398   32.4852 H   0  0  0  0  0  0  0  0  0  0  0  0
   -7.6892  -23.3060   33.5689 H   0  0  0  0  0  0  0  0  0  0  0  0
   -7.7155  -23.1998   33.7802 H   0  0  0  0  0  0  0  0  0  0  0  0
  -13.2015  -23.4583   34.2810 H   0  0  0  0  0  0  0  0  0  0  0  0
  -11.2721  -25.1604   31.2813 H   0  0  0  0  0  0  0  0  0  0  0  0
  -10.0721  -25.5176   29.1930 H   0  0  0  0  0  0  0  0  0  0  0  0
   -9.8151  -23.6395   27.5836 H   0  0  0  0  0  0  0  0  0  0  0  0
  -10.7299  -21.4128   28.1753 H   0  0  0  0  0  0  0  0  0  0  0  0
  -11.8652  -21.0311   30.2645 H   0  0  0  0  0  0  0  0  0  0  0  0
  -14.1862  -20.0461   33.3631 H   0  0  0  0  0  0  0  0  0  0  0  0
  -14.6211  -20.8086   31.8179 H   0  0  0  0  0  0  0  0  0  0  0  0
  -14.9410  -21.6332   33.3419 H   0  0  0  0  0  0  0  0  0  0  0  0
  1  2  1  0
  2  3  1  0
  3  4  1  0
  4  5  1  0
  4  6  2  0
  3  7  1  0
  7  8  2  0
  8  9  1  0
  9 10  1  0
 10 11  2  0
 11 12  1  0
 12 13  2  0
 13 14  1  0
 14 15  2  0
  9 16  2  0
 16 17  1  0
 16 18  1  0
 18 19  1  0
 19 20  3  0
 18  7  1  0
 15 10  1  0
  1 21  1  0
  1 22  1  0
  1 23  1  0
  2 24  1  0
  3 25  1  0
  5 26  1  0
  5 27  1  0
  8 28  1  0
 11 29  1  0
 12 30  1  0
 13 31  1  0
 14 32  1  0
 15 33  1  0
 17 34  1  0
 17 35  1  0
 17 36  1  0
M  END
>  <Energy>  (1009) 
364.63517973105422

>  <compound_id>  (1009) 
1326

>  <target_id>  (1009) 
1

>  <reference_id>  (1009) 
34

>  <inspiration_ids>  (1009) 
[94, 34]

>  <energy_score>  (1009) 
258.45916152687164

>  <distance_score>  (1009) 
2.3648344797673952

>  <path>  (1009) 
/opt/xchem-fragalysis-2/maxwin/BulkDock/SCRATCH/505733/C1326-P34/C1326-P34.minimised.mol

>  <scratch_subdir>  (1009) 
/opt/xchem-fragalysis-2/maxwin/BulkDock/SCRATCH/505733/C1326-P34

>  <fragmenstein_runtime>  (1009) 
10.867709875106812

>  <fragmenstein_outcome>  (1009) 
too moved

>  <fragmenstein_mode>  (1009) 
expansion

>  <fragmenstein_error>  (1009) 


$$$$
C1330-P94
     RDKit          3D

 40 42  0  0  0  0  0  0  0  0999 V2000
  -10.9465  -25.0374   27.2902 C   0  0  0  0  0  0  0  0  0  0  0  0
  -11.4105  -24.2475   28.4841 C   0  0  0  0  0  0  0  0  0  0  0  0
  -11.3259  -22.8981   28.5106 C   0  0  0  0  0  0  0  0  0  0  0  0
  -11.6240  -22.1339   29.6831 C   0  0  0  0  0  0  0  0  0  0  0  0
  -12.8293  -22.1682   30.3355 C   0  0  0  0  0  0  0  0  0  0  0  0
  -12.6820  -21.7669   31.6388 C   0  0  0  0  0  0  0  0  0  0  0  0
  -13.7060  -21.8205   32.6853 C   0  0  0  0  0  0  0  0  0  0  0  0
  -13.5422  -22.5957   33.8136 C   0  0  0  0  0  0  0  0  0  0  0  0
  -14.6503  -23.1946   34.4002 C   0  0  0  0  0  0  0  0  0  0  0  0
  -15.9410  -22.7846   34.1056 C   0  0  0  0  0  0  0  0  0  0  0  0
  -16.1161  -21.8391   33.1185 C   0  0  0  0  0  0  0  0  0  0  0  0
  -15.0132  -21.4088   32.3811 C   0  0  0  0  0  0  0  0  0  0  0  0
  -11.3875  -21.3530   31.6546 N   0  0  0  0  0  0  0  0  0  0  0  0
  -10.8040  -21.4052   30.4350 N   0  0  0  0  0  0  0  0  0  0  0  0
  -11.9471  -24.9859   29.5458 N   0  0  0  0  0  0  0  0  0  0  0  0
  -11.0456  -25.4935   30.4902 C   0  0  0  0  0  0  0  0  0  0  0  0
  -10.3414  -26.5915   30.1526 C   0  0  0  0  0  0  0  0  0  0  0  0
   -9.2872  -26.9577   30.8403 N   0  0  0  0  0  0  0  0  0  0  0  0
   -8.7809  -26.0579   31.7206 C   0  0  0  0  0  0  0  0  0  0  0  0
   -9.4048  -24.9766   32.1785 C   0  0  0  0  0  0  0  0  0  0  0  0
  -10.6526  -24.8434   31.6602 C   0  0  0  0  0  0  0  0  0  0  0  0
  -11.5532  -24.2878   32.6565 C   0  0  0  0  0  0  0  0  0  0  0  0
  -10.7373  -24.3908   26.4327 H   0  0  0  0  0  0  0  0  0  0  0  0
  -11.7196  -25.7482   26.9792 H   0  0  0  0  0  0  0  0  0  0  0  0
  -10.0384  -25.5941   27.5295 H   0  0  0  0  0  0  0  0  0  0  0  0
  -10.9314  -22.3474   27.6724 H   0  0  0  0  0  0  0  0  0  0  0  0
  -13.7253  -22.5770   29.9889 H   0  0  0  0  0  0  0  0  0  0  0  0
  -12.5776  -22.8862   34.1951 H   0  0  0  0  0  0  0  0  0  0  0  0
  -14.4961  -24.0084   35.0938 H   0  0  0  0  0  0  0  0  0  0  0  0
  -16.7928  -23.2309   34.6081 H   0  0  0  0  0  0  0  0  0  0  0  0
  -17.1176  -21.5308   32.8326 H   0  0  0  0  0  0  0  0  0  0  0  0
  -15.2279  -20.8385   31.4848 H   0  0  0  0  0  0  0  0  0  0  0  0
  -10.8870  -20.9051   32.4118 H   0  0  0  0  0  0  0  0  0  0  0  0
  -12.5852  -24.4151   30.0973 H   0  0  0  0  0  0  0  0  0  0  0  0
  -10.6172  -27.1653   29.2864 H   0  0  0  0  0  0  0  0  0  0  0  0
   -7.8393  -26.2947   32.1816 H   0  0  0  0  0  0  0  0  0  0  0  0
   -9.0246  -24.4269   33.0222 H   0  0  0  0  0  0  0  0  0  0  0  0
  -11.6586  -24.9760   33.5023 H   0  0  0  0  0  0  0  0  0  0  0  0
  -11.1135  -23.3696   33.0407 H   0  0  0  0  0  0  0  0  0  0  0  0
  -12.5303  -24.1721   32.2319 H   0  0  0  0  0  0  0  0  0  0  0  0
  1  2  1  0
  2  3  2  3
  3  4  1  0
  4  5  1  0
  5  6  2  0
  6  7  1  0
  7  8  2  0
  8  9  1  0
  9 10  2  0
 10 11  1  0
 11 12  2  0
  6 13  1  0
 13 14  1  0
  2 15  1  0
 15 16  1  0
 16 17  2  0
 17 18  1  0
 18 19  2  0
 19 20  1  0
 20 21  2  0
 21 22  1  0
 14  4  2  0
 21 16  1  0
 12  7  1  0
  1 23  1  0
  1 24  1  0
  1 25  1  0
  3 26  1  0
  5 27  1  0
  8 28  1  0
  9 29  1  0
 10 30  1  0
 11 31  1  0
 12 32  1  0
 13 33  1  0
 15 34  1  0
 17 35  1  0
 19 36  1  0
 20 37  1  0
 22 38  1  0
 22 39  1  0
 22 40  1  0
M  END
>  <Energy>  (1010) 
148.47162699113466

>  <compound_id>  (1010) 
1330

>  <target_id>  (1010) 
1

>  <reference_id>  (1010) 
94

>  <inspiration_ids>  (1010) 
[94, 49]

>  <energy_score>  (1010) 
49.54749086963159

>  <distance_score>  (1010) 
2.673630513133578

>  <path>  (1010) 
/opt/xchem-fragalysis-2/maxwin/BulkDock/SCRATCH/505733/C1330-P94/C1330-P94.minimised.mol

>  <scratch_subdir>  (1010) 
/opt/xchem-fragalysis-2/maxwin/BulkDock/SCRATCH/505733/C1330-P94

>  <fragmenstein_runtime>  (1010) 
51.883429765701294

>  <fragmenstein_outcome>  (1010) 
too moved

>  <fragmenstein_mode>  (1010) 
expansion

>  <fragmenstein_error>  (1010) 


$$$$
C1330-P49
     RDKit          3D

 40 42  0  0  0  0  0  0  0  0999 V2000
  -13.0972  -26.3482   26.7941 C   0  0  0  0  0  0  0  0  0  0  0  0
  -12.5387  -25.4761   27.8706 C   0  0  0  0  0  0  0  0  0  0  0  0
  -12.3594  -24.1680   27.5457 C   0  0  0  0  0  0  0  0  0  0  0  0
  -11.9121  -23.1399   28.4273 C   0  0  0  0  0  0  0  0  0  0  0  0
  -12.2863  -23.1279   29.7640 C   0  0  0  0  0  0  0  0  0  0  0  0
  -11.6978  -22.0463   30.3551 C   0  0  0  0  0  0  0  0  0  0  0  0
  -11.8291  -21.7214   31.7608 C   0  0  0  0  0  0  0  0  0  0  0  0
  -11.0269  -22.3801   32.6951 C   0  0  0  0  0  0  0  0  0  0  0  0
  -11.5316  -22.6371   33.9591 C   0  0  0  0  0  0  0  0  0  0  0  0
  -12.8100  -22.1825   34.2890 C   0  0  0  0  0  0  0  0  0  0  0  0
  -13.5394  -21.3854   33.4322 C   0  0  0  0  0  0  0  0  0  0  0  0
  -13.0362  -21.1520   32.1695 C   0  0  0  0  0  0  0  0  0  0  0  0
  -11.1812  -21.3505   29.3068 N   0  0  0  0  0  0  0  0  0  0  0  0
  -11.2436  -22.0218   28.1288 N   0  0  0  0  0  0  0  0  0  0  0  0
  -12.0867  -26.1310   29.0534 N   0  0  0  0  0  0  0  0  0  0  0  0
  -10.6962  -25.9245   29.2675 C   0  0  0  0  0  0  0  0  0  0  0  0
   -9.8755  -25.8982   28.1449 C   0  0  0  0  0  0  0  0  0  0  0  0
   -8.7974  -25.1502   28.0776 N   0  0  0  0  0  0  0  0  0  0  0  0
   -8.5350  -24.4374   29.1690 C   0  0  0  0  0  0  0  0  0  0  0  0
   -9.1020  -24.6072   30.3977 C   0  0  0  0  0  0  0  0  0  0  0  0
  -10.1847  -25.4453   30.4692 C   0  0  0  0  0  0  0  0  0  0  0  0
  -10.7957  -25.6092   31.7976 C   0  0  0  0  0  0  0  0  0  0  0  0
  -12.4872  -26.2974   25.8889 H   0  0  0  0  0  0  0  0  0  0  0  0
  -14.1094  -26.0164   26.5331 H   0  0  0  0  0  0  0  0  0  0  0  0
  -13.1929  -27.3902   27.1111 H   0  0  0  0  0  0  0  0  0  0  0  0
  -12.6107  -23.8215   26.5465 H   0  0  0  0  0  0  0  0  0  0  0  0
  -12.8840  -23.8392   30.2930 H   0  0  0  0  0  0  0  0  0  0  0  0
  -10.0762  -22.8088   32.4083 H   0  0  0  0  0  0  0  0  0  0  0  0
  -10.9700  -23.2322   34.6701 H   0  0  0  0  0  0  0  0  0  0  0  0
  -13.2943  -22.4819   35.2060 H   0  0  0  0  0  0  0  0  0  0  0  0
  -14.5368  -21.0522   33.6977 H   0  0  0  0  0  0  0  0  0  0  0  0
  -13.6862  -20.6666   31.4561 H   0  0  0  0  0  0  0  0  0  0  0  0
  -10.7835  -20.4162   29.3038 H   0  0  0  0  0  0  0  0  0  0  0  0
  -12.2203  -27.1373   28.9448 H   0  0  0  0  0  0  0  0  0  0  0  0
  -10.1615  -26.3434   27.2031 H   0  0  0  0  0  0  0  0  0  0  0  0
   -7.7485  -23.7401   29.0504 H   0  0  0  0  0  0  0  0  0  0  0  0
   -8.7006  -24.0915   31.2611 H   0  0  0  0  0  0  0  0  0  0  0  0
  -10.0526  -25.5202   32.5973 H   0  0  0  0  0  0  0  0  0  0  0  0
  -11.5581  -24.8526   31.9380 H   0  0  0  0  0  0  0  0  0  0  0  0
  -11.2262  -26.6110   31.8867 H   0  0  0  0  0  0  0  0  0  0  0  0
  1  2  1  0
  2  3  2  3
  3  4  1  0
  4  5  1  0
  5  6  2  0
  6  7  1  0
  7  8  2  0
  8  9  1  0
  9 10  2  0
 10 11  1  0
 11 12  2  0
  6 13  1  0
 13 14  1  0
  2 15  1  0
 15 16  1  0
 16 17  2  0
 17 18  1  0
 18 19  2  0
 19 20  1  0
 20 21  2  0
 21 22  1  0
 14  4  2  0
 21 16  1  0
 12  7  1  0
  1 23  1  0
  1 24  1  0
  1 25  1  0
  3 26  1  0
  5 27  1  0
  8 28  1  0
  9 29  1  0
 10 30  1  0
 11 31  1  0
 12 32  1  0
 13 33  1  0
 15 34  1  0
 17 35  1  0
 19 36  1  0
 20 37  1  0
 22 38  1  0
 22 39  1  0
 22 40  1  0
M  END
>  <Energy>  (1011) 
121.77722064824222

>  <compound_id>  (1011) 
1330

>  <target_id>  (1011) 
1

>  <reference_id>  (1011) 
49

>  <inspiration_ids>  (1011) 
[94, 49]

>  <energy_score>  (1011) 
22.85308452673746

>  <distance_score>  (1011) 
2.3259499459684148

>  <path>  (1011) 
/opt/xchem-fragalysis-2/maxwin/BulkDock/SCRATCH/505733/C1330-P49/C1330-P49.minimised.mol

>  <scratch_subdir>  (1011) 
/opt/xchem-fragalysis-2/maxwin/BulkDock/SCRATCH/505733/C1330-P49

>  <fragmenstein_runtime>  (1011) 
46.89056873321533

>  <fragmenstein_outcome>  (1011) 
too moved

>  <fragmenstein_mode>  (1011) 
expansion

>  <fragmenstein_error>  (1011) 


$$$$
C1332-P94
     RDKit          3D

 28 29  0  0  0  0  0  0  0  0999 V2000
  -14.2737  -21.1268   33.8107 C   0  0  0  0  0  0  0  0  0  0  0  0
  -14.2062  -22.1085   32.6721 C   0  0  0  0  0  0  0  0  0  0  0  0
  -12.8744  -22.7832   32.5358 C   0  0  0  0  0  0  0  0  0  0  0  0
  -12.4862  -23.7839   33.4386 C   0  0  0  0  0  0  0  0  0  0  0  0
  -11.1943  -24.2527   33.4198 C   0  0  0  0  0  0  0  0  0  0  0  0
  -10.2784  -23.4636   32.7624 C   0  0  0  0  0  0  0  0  0  0  0  0
  -10.7384  -22.3345   32.0757 C   0  0  0  0  0  0  0  0  0  0  0  0
  -11.9864  -22.3845   31.5510 C   0  0  0  0  0  0  0  0  0  0  0  0
  -11.9319  -23.0783   30.2281 C   0  0  0  0  0  0  0  0  0  0  0  0
  -11.7557  -22.6597   28.9218 C   0  0  0  0  0  0  0  0  0  0  0  0
  -11.6254  -23.8482   28.1472 C   0  0  0  0  0  0  0  0  0  0  0  0
  -11.5986  -24.0176   26.6771 C   0  0  0  0  0  0  0  0  0  0  0  0
  -11.5792  -24.9368   28.9206 N   0  0  0  0  0  0  0  0  0  0  0  0
  -11.7698  -24.4470   30.1556 N   0  0  0  0  0  0  0  0  0  0  0  0
  -13.3093  -20.6731   34.0564 H   0  0  0  0  0  0  0  0  0  0  0  0
  -14.6715  -21.6432   34.6825 H   0  0  0  0  0  0  0  0  0  0  0  0
  -14.9874  -20.3275   33.5836 H   0  0  0  0  0  0  0  0  0  0  0  0
  -14.4711  -21.6106   31.7332 H   0  0  0  0  0  0  0  0  0  0  0  0
  -15.0043  -22.8291   32.8730 H   0  0  0  0  0  0  0  0  0  0  0  0
  -13.2115  -24.2031   34.1247 H   0  0  0  0  0  0  0  0  0  0  0  0
  -10.8973  -25.1026   34.0244 H   0  0  0  0  0  0  0  0  0  0  0  0
   -9.2203  -23.6686   32.8932 H   0  0  0  0  0  0  0  0  0  0  0  0
  -10.1219  -21.5198   31.7414 H   0  0  0  0  0  0  0  0  0  0  0  0
  -11.7633  -21.6463   28.5611 H   0  0  0  0  0  0  0  0  0  0  0  0
  -11.8433  -23.0885   26.1648 H   0  0  0  0  0  0  0  0  0  0  0  0
  -12.3302  -24.7691   26.3611 H   0  0  0  0  0  0  0  0  0  0  0  0
  -10.6107  -24.3489   26.3509 H   0  0  0  0  0  0  0  0  0  0  0  0
  -11.8120  -25.0960   30.9343 H   0  0  0  0  0  0  0  0  0  0  0  0
  1  2  1  0
  2  3  1  0
  3  4  2  0
  4  5  1  0
  5  6  2  0
  6  7  1  0
  7  8  2  0
  8  9  1  0
  9 10  2  0
 10 11  1  0
 11 12  1  0
 11 13  2  0
 13 14  1  0
  8  3  1  0
 14  9  1  0
  1 15  1  0
  1 16  1  0
  1 17  1  0
  2 18  1  0
  2 19  1  0
  4 20  1  0
  5 21  1  0
  6 22  1  0
  7 23  1  0
 10 24  1  0
 12 25  1  0
 12 26  1  0
 12 27  1  0
 14 28  1  0
M  END
>  <Energy>  (1012) 
95.535144646588705

>  <compound_id>  (1012) 
1332

>  <target_id>  (1012) 
1

>  <reference_id>  (1012) 
94

>  <inspiration_ids>  (1012) 
[94, 54]

>  <energy_score>  (1012) 
40.70535807177532

>  <distance_score>  (1012) 
2.052318124226975

>  <path>  (1012) 
/opt/xchem-fragalysis-2/maxwin/BulkDock/SCRATCH/505733/C1332-P94/C1332-P94.minimised.mol

>  <scratch_subdir>  (1012) 
/opt/xchem-fragalysis-2/maxwin/BulkDock/SCRATCH/505733/C1332-P94

>  <fragmenstein_runtime>  (1012) 
5.974634408950806

>  <fragmenstein_outcome>  (1012) 
too moved

>  <fragmenstein_mode>  (1012) 
expansion

>  <fragmenstein_error>  (1012) 


$$$$
C1332-P54
     RDKit          3D

 28 29  0  0  0  0  0  0  0  0999 V2000
  -14.8711  -18.9333   32.5355 C   0  0  0  0  0  0  0  0  0  0  0  0
  -13.7653  -19.1351   33.5569 C   0  0  0  0  0  0  0  0  0  0  0  0
  -12.5756  -19.9934   33.1781 C   0  0  0  0  0  0  0  0  0  0  0  0
  -11.9864  -20.7339   34.2155 C   0  0  0  0  0  0  0  0  0  0  0  0
  -10.6766  -21.1661   34.1236 C   0  0  0  0  0  0  0  0  0  0  0  0
   -9.8937  -20.5254   33.1901 C   0  0  0  0  0  0  0  0  0  0  0  0
  -10.5053  -19.5925   32.3521 C   0  0  0  0  0  0  0  0  0  0  0  0
  -11.8248  -19.7784   32.0319 C   0  0  0  0  0  0  0  0  0  0  0  0
  -11.8902  -20.7029   30.8542 C   0  0  0  0  0  0  0  0  0  0  0  0
  -11.5505  -20.5379   29.5218 C   0  0  0  0  0  0  0  0  0  0  0  0
  -11.5257  -21.8377   28.9522 C   0  0  0  0  0  0  0  0  0  0  0  0
  -11.2612  -22.2432   27.5545 C   0  0  0  0  0  0  0  0  0  0  0  0
  -11.7556  -22.7768   29.8718 N   0  0  0  0  0  0  0  0  0  0  0  0
  -11.8762  -22.0665   31.0086 N   0  0  0  0  0  0  0  0  0  0  0  0
  -14.5493  -19.1146   31.5108 H   0  0  0  0  0  0  0  0  0  0  0  0
  -15.2559  -17.9095   32.5990 H   0  0  0  0  0  0  0  0  0  0  0  0
  -15.7251  -19.5838   32.7480 H   0  0  0  0  0  0  0  0  0  0  0  0
  -14.2322  -19.5260   34.4707 H   0  0  0  0  0  0  0  0  0  0  0  0
  -13.3625  -18.1515   33.8340 H   0  0  0  0  0  0  0  0  0  0  0  0
  -12.5558  -20.9171   35.1185 H   0  0  0  0  0  0  0  0  0  0  0  0
  -10.2449  -21.8015   34.8864 H   0  0  0  0  0  0  0  0  0  0  0  0
   -8.8141  -20.6323   33.2017 H   0  0  0  0  0  0  0  0  0  0  0  0
   -9.9600  -18.8598   31.7790 H   0  0  0  0  0  0  0  0  0  0  0  0
  -11.3235  -19.5989   29.0401 H   0  0  0  0  0  0  0  0  0  0  0  0
  -11.9576  -23.0239   27.2318 H   0  0  0  0  0  0  0  0  0  0  0  0
  -10.2415  -22.6278   27.4557 H   0  0  0  0  0  0  0  0  0  0  0  0
  -11.3791  -21.3932   26.8836 H   0  0  0  0  0  0  0  0  0  0  0  0
  -11.9354  -22.5593   31.8908 H   0  0  0  0  0  0  0  0  0  0  0  0
  1  2  1  0
  2  3  1  0
  3  4  2  0
  4  5  1  0
  5  6  2  0
  6  7  1  0
  7  8  2  0
  8  9  1  0
  9 10  2  0
 10 11  1  0
 11 12  1  0
 11 13  2  0
 13 14  1  0
  8  3  1  0
 14  9  1  0
  1 15  1  0
  1 16  1  0
  1 17  1  0
  2 18  1  0
  2 19  1  0
  4 20  1  0
  5 21  1  0
  6 22  1  0
  7 23  1  0
 10 24  1  0
 12 25  1  0
 12 26  1  0
 12 27  1  0
 14 28  1  0
M  END
>  <Energy>  (1013) 
97.672530545805614

>  <compound_id>  (1013) 
1332

>  <target_id>  (1013) 
1

>  <reference_id>  (1013) 
54

>  <inspiration_ids>  (1013) 
[94, 54]

>  <energy_score>  (1013) 
42.871176768895225

>  <distance_score>  (1013) 
3.4274778226552716

>  <path>  (1013) 
/opt/xchem-fragalysis-2/maxwin/BulkDock/SCRATCH/505733/C1332-P54/C1332-P54.minimised.mol

>  <scratch_subdir>  (1013) 
/opt/xchem-fragalysis-2/maxwin/BulkDock/SCRATCH/505733/C1332-P54

>  <fragmenstein_runtime>  (1013) 
7.519785642623901

>  <fragmenstein_outcome>  (1013) 
too moved

>  <fragmenstein_mode>  (1013) 
expansion

>  <fragmenstein_error>  (1013) 


$$$$
C1333-P94
     RDKit          3D

 36 38  0  0  0  0  0  0  0  0999 V2000
  -13.2517  -29.0223   29.1968 C   0  0  0  0  0  0  0  0  0  0  0  0
  -12.2888  -27.9579   28.6533 C   0  0  0  0  0  0  0  0  0  0  0  0
  -12.9849  -26.9275   27.9037 N   0  0  0  0  0  0  0  0  0  0  0  0
  -11.9859  -25.9274   27.6291 C   0  0  0  0  0  0  0  0  0  0  0  0
  -11.1432  -26.4239   26.5557 N   0  0  0  0  0  0  0  0  0  0  0  0
  -11.4632  -25.5945   25.3994 C   0  0  0  0  0  0  0  0  0  0  0  0
  -12.0031  -24.3234   25.9690 C   0  0  0  0  0  0  0  0  0  0  0  0
  -12.7713  -24.9293   27.0110 N   0  0  0  0  0  0  0  0  0  0  0  0
  -11.1749  -25.7494   28.9689 C   0  0  0  0  0  0  0  0  0  0  0  0
  -11.3038  -24.5512   29.8812 C   0  0  0  0  0  0  0  0  0  0  0  0
  -11.5956  -23.2925   29.3622 C   0  0  0  0  0  0  0  0  0  0  0  0
  -11.7954  -22.1950   30.1854 C   0  0  0  0  0  0  0  0  0  0  0  0
  -11.6747  -22.3193   31.5600 C   0  0  0  0  0  0  0  0  0  0  0  0
  -11.2614  -23.5278   32.0973 C   0  0  0  0  0  0  0  0  0  0  0  0
  -11.0123  -24.6102   31.2570 C   0  0  0  0  0  0  0  0  0  0  0  0
  -11.3809  -27.1420   29.6247 C   0  0  0  0  0  0  0  0  0  0  0  0
  -11.8172  -27.3069   30.9683 O   0  0  0  0  0  0  0  0  0  0  0  0
  -12.9431  -29.4111   30.1718 H   0  0  0  0  0  0  0  0  0  0  0  0
  -14.2845  -28.6677   29.2728 H   0  0  0  0  0  0  0  0  0  0  0  0
  -13.2882  -29.8774   28.5113 H   0  0  0  0  0  0  0  0  0  0  0  0
  -11.6659  -28.4990   27.9467 H   0  0  0  0  0  0  0  0  0  0  0  0
  -13.3255  -27.2382   26.9982 H   0  0  0  0  0  0  0  0  0  0  0  0
  -11.4515  -27.3609   26.3083 H   0  0  0  0  0  0  0  0  0  0  0  0
  -10.6002  -25.3793   24.7912 H   0  0  0  0  0  0  0  0  0  0  0  0
  -12.2140  -26.1259   24.8057 H   0  0  0  0  0  0  0  0  0  0  0  0
  -12.6224  -23.7614   25.2676 H   0  0  0  0  0  0  0  0  0  0  0  0
  -11.2047  -23.6843   26.3474 H   0  0  0  0  0  0  0  0  0  0  0  0
  -13.1407  -24.2748   27.6924 H   0  0  0  0  0  0  0  0  0  0  0  0
  -10.1159  -25.6893   28.6635 H   0  0  0  0  0  0  0  0  0  0  0  0
  -11.6485  -23.0960   28.3021 H   0  0  0  0  0  0  0  0  0  0  0  0
  -12.0167  -21.2437   29.7224 H   0  0  0  0  0  0  0  0  0  0  0  0
  -11.8405  -21.4708   32.2156 H   0  0  0  0  0  0  0  0  0  0  0  0
  -11.1133  -23.6287   33.1680 H   0  0  0  0  0  0  0  0  0  0  0  0
  -10.5923  -25.5038   31.7160 H   0  0  0  0  0  0  0  0  0  0  0  0
  -10.3566  -27.4705   29.6839 H   0  0  0  0  0  0  0  0  0  0  0  0
  -12.3317  -26.5041   31.1899 H   0  0  0  0  0  0  0  0  0  0  0  0
  1  2  1  0
  2  3  1  0
  3  4  1  0
  4  5  1  0
  5  6  1  0
  6  7  1  0
  7  8  1  0
  4  9  1  0
  9 10  1  0
 10 11  2  0
 11 12  1  0
 12 13  2  0
 13 14  1  0
 14 15  2  0
  9 16  1  0
 16 17  1  0
 16  2  1  0
  8  4  1  0
 15 10  1  0
  1 18  1  0
  1 19  1  0
  1 20  1  0
  2 21  1  0
  3 22  1  0
  5 23  1  0
  6 24  1  0
  6 25  1  0
  7 26  1  0
  7 27  1  0
  8 28  1  0
  9 29  1  0
 11 30  1  0
 12 31  1  0
 13 32  1  0
 14 33  1  0
 15 34  1  0
 16 35  1  0
 17 36  1  0
M  END
>  <Energy>  (1014) 
-9.9237001579636175

>  <compound_id>  (1014) 
1333

>  <target_id>  (1014) 
1

>  <reference_id>  (1014) 
94

>  <inspiration_ids>  (1014) 
[94, 62]

>  <energy_score>  (1014) 
-10.979854529990007

>  <distance_score>  (1014) 
1.5334613247332074

>  <path>  (1014) 
/opt/xchem-fragalysis-2/maxwin/BulkDock/SCRATCH/505733/C1333-P94/C1333-P94.minimised.mol

>  <scratch_subdir>  (1014) 
/opt/xchem-fragalysis-2/maxwin/BulkDock/SCRATCH/505733/C1333-P94

>  <fragmenstein_runtime>  (1014) 
6.865328311920166

>  <fragmenstein_outcome>  (1014) 
too moved

>  <fragmenstein_mode>  (1014) 
expansion

>  <fragmenstein_error>  (1014) 


$$$$
C1333-P62
     RDKit          3D

 36 38  0  0  0  0  0  0  0  0999 V2000
  -11.3517  -27.4300   30.5864 C   0  0  0  0  0  0  0  0  0  0  0  0
  -10.5543  -26.8303   29.4518 C   0  0  0  0  0  0  0  0  0  0  0  0
  -11.4147  -26.6757   28.2654 N   0  0  0  0  0  0  0  0  0  0  0  0
  -11.6665  -25.2559   28.1582 C   0  0  0  0  0  0  0  0  0  0  0  0
  -11.0157  -24.8637   26.9206 N   0  0  0  0  0  0  0  0  0  0  0  0
  -11.9044  -23.8108   26.4156 C   0  0  0  0  0  0  0  0  0  0  0  0
  -13.2493  -24.4389   26.6473 C   0  0  0  0  0  0  0  0  0  0  0  0
  -13.0776  -25.1056   27.9340 N   0  0  0  0  0  0  0  0  0  0  0  0
  -10.9963  -24.5330   29.3679 C   0  0  0  0  0  0  0  0  0  0  0  0
  -11.8069  -24.1043   30.5673 C   0  0  0  0  0  0  0  0  0  0  0  0
  -12.6973  -23.0682   30.3581 C   0  0  0  0  0  0  0  0  0  0  0  0
  -13.4839  -22.6074   31.4020 C   0  0  0  0  0  0  0  0  0  0  0  0
  -13.3790  -23.1288   32.6744 C   0  0  0  0  0  0  0  0  0  0  0  0
  -12.4625  -24.1182   32.9209 C   0  0  0  0  0  0  0  0  0  0  0  0
  -11.6815  -24.5892   31.8812 C   0  0  0  0  0  0  0  0  0  0  0  0
   -9.8820  -25.4900   29.6898 C   0  0  0  0  0  0  0  0  0  0  0  0
   -9.2259  -25.3103   30.9373 O   0  0  0  0  0  0  0  0  0  0  0  0
  -10.7103  -27.5957   31.4570 H   0  0  0  0  0  0  0  0  0  0  0  0
  -12.1975  -26.8074   30.8675 H   0  0  0  0  0  0  0  0  0  0  0  0
  -11.7942  -28.3909   30.3225 H   0  0  0  0  0  0  0  0  0  0  0  0
   -9.7341  -27.4992   29.2538 H   0  0  0  0  0  0  0  0  0  0  0  0
  -10.8291  -26.8914   27.4631 H   0  0  0  0  0  0  0  0  0  0  0  0
  -11.1693  -25.6210   26.2432 H   0  0  0  0  0  0  0  0  0  0  0  0
  -11.7597  -22.8929   26.9918 H   0  0  0  0  0  0  0  0  0  0  0  0
  -11.7346  -23.6124   25.3579 H   0  0  0  0  0  0  0  0  0  0  0  0
  -13.5164  -25.1602   25.8793 H   0  0  0  0  0  0  0  0  0  0  0  0
  -14.0546  -23.7170   26.6032 H   0  0  0  0  0  0  0  0  0  0  0  0
  -13.4050  -26.0602   27.8793 H   0  0  0  0  0  0  0  0  0  0  0  0
  -10.5640  -23.6083   28.9731 H   0  0  0  0  0  0  0  0  0  0  0  0
  -12.7925  -22.6383   29.3694 H   0  0  0  0  0  0  0  0  0  0  0  0
  -14.2490  -21.8621   31.2594 H   0  0  0  0  0  0  0  0  0  0  0  0
  -14.0387  -22.7821   33.4612 H   0  0  0  0  0  0  0  0  0  0  0  0
  -12.3699  -24.5466   33.9115 H   0  0  0  0  0  0  0  0  0  0  0  0
  -10.9992  -25.3754   32.1644 H   0  0  0  0  0  0  0  0  0  0  0  0
   -9.1056  -25.3635   28.9313 H   0  0  0  0  0  0  0  0  0  0  0  0
   -9.0998  -26.1775   31.3581 H   0  0  0  0  0  0  0  0  0  0  0  0
  1  2  1  0
  2  3  1  0
  3  4  1  0
  4  5  1  0
  5  6  1  0
  6  7  1  0
  7  8  1  0
  4  9  1  0
  9 10  1  0
 10 11  2  0
 11 12  1  0
 12 13  2  0
 13 14  1  0
 14 15  2  0
  9 16  1  0
 16 17  1  0
 16  2  1  0
  8  4  1  0
 15 10  1  0
  1 18  1  0
  1 19  1  0
  1 20  1  0
  2 21  1  0
  3 22  1  0
  5 23  1  0
  6 24  1  0
  6 25  1  0
  7 26  1  0
  7 27  1  0
  8 28  1  0
  9 29  1  0
 11 30  1  0
 12 31  1  0
 13 32  1  0
 14 33  1  0
 15 34  1  0
 16 35  1  0
 17 36  1  0
M  END
>  <Energy>  (1015) 
-18.683900707943376

>  <compound_id>  (1015) 
1333

>  <target_id>  (1015) 
1

>  <reference_id>  (1015) 
62

>  <inspiration_ids>  (1015) 
[94, 62]

>  <energy_score>  (1015) 
-19.74005507997002

>  <distance_score>  (1015) 
2.4391035634265132

>  <path>  (1015) 
/opt/xchem-fragalysis-2/maxwin/BulkDock/SCRATCH/505733/C1333-P62/C1333-P62.minimised.mol

>  <scratch_subdir>  (1015) 
/opt/xchem-fragalysis-2/maxwin/BulkDock/SCRATCH/505733/C1333-P62

>  <fragmenstein_runtime>  (1015) 
9.379993438720703

>  <fragmenstein_outcome>  (1015) 
too moved

>  <fragmenstein_mode>  (1015) 
expansion

>  <fragmenstein_error>  (1015) 


$$$$
C79-P94
     RDKit          3D

 22 23  0  0  0  0  0  0  0  0999 V2000
  -13.9230  -25.8907   25.3892 C   0  0  0  0  0  0  0  0  0  0  0  0
  -12.7608  -25.4081   26.1606 C   0  0  0  0  0  0  0  0  0  0  0  0
  -12.2034  -25.9572   27.3334 C   0  0  0  0  0  0  0  0  0  0  0  0
  -11.5167  -24.9047   27.9040 C   0  0  0  0  0  0  0  0  0  0  0  0
  -11.2116  -24.6525   29.3026 C   0  0  0  0  0  0  0  0  0  0  0  0
  -10.5696  -25.6029   30.0934 C   0  0  0  0  0  0  0  0  0  0  0  0
  -10.4634  -25.3999   31.4698 C   0  0  0  0  0  0  0  0  0  0  0  0
  -11.0028  -24.2600   32.0643 C   0  0  0  0  0  0  0  0  0  0  0  0
  -11.6201  -23.2936   31.2806 C   0  0  0  0  0  0  0  0  0  0  0  0
  -11.7149  -23.4857   29.9049 C   0  0  0  0  0  0  0  0  0  0  0  0
  -11.5270  -23.9173   26.9538 N   0  0  0  0  0  0  0  0  0  0  0  0
  -12.1849  -24.2519   25.8348 N   0  0  0  0  0  0  0  0  0  0  0  0
  -14.5123  -25.0550   24.9964 H   0  0  0  0  0  0  0  0  0  0  0  0
  -14.5890  -26.4919   26.0163 H   0  0  0  0  0  0  0  0  0  0  0  0
  -13.5938  -26.4937   24.5504 H   0  0  0  0  0  0  0  0  0  0  0  0
  -12.4889  -26.8742   27.8257 H   0  0  0  0  0  0  0  0  0  0  0  0
  -10.1725  -26.5150   29.6597 H   0  0  0  0  0  0  0  0  0  0  0  0
   -9.9779  -26.1490   32.0856 H   0  0  0  0  0  0  0  0  0  0  0  0
  -10.9556  -24.1365   33.1421 H   0  0  0  0  0  0  0  0  0  0  0  0
  -12.0587  -22.4170   31.7469 H   0  0  0  0  0  0  0  0  0  0  0  0
  -12.2456  -22.7403   29.3194 H   0  0  0  0  0  0  0  0  0  0  0  0
  -11.2037  -22.9613   27.0455 H   0  0  0  0  0  0  0  0  0  0  0  0
  1  2  1  0
  2  3  1  0
  3  4  2  0
  4  5  1  0
  5  6  2  0
  6  7  1  0
  7  8  2  0
  8  9  1  0
  9 10  2  0
  4 11  1  0
 11 12  1  0
 12  2  2  0
 10  5  1  0
  1 13  1  0
  1 14  1  0
  1 15  1  0
  3 16  1  0
  6 17  1  0
  7 18  1  0
  8 19  1  0
  9 20  1  0
 10 21  1  0
 11 22  1  0
M  END
>  <Energy>  (1016) 
33.781852601533252

>  <compound_id>  (1016) 
79

>  <target_id>  (1016) 
1

>  <reference_id>  (1016) 
94

>  <inspiration_ids>  (1016) 
[94, 64]

>  <energy_score>  (1016) 
-2.8878108527801345

>  <distance_score>  (1016) 
1.0825351470148834

>  <path>  (1016) 
/opt/xchem-fragalysis-2/maxwin/BulkDock/SCRATCH/505733/C79-P94/C79-P94.minimised.mol

>  <scratch_subdir>  (1016) 
/opt/xchem-fragalysis-2/maxwin/BulkDock/SCRATCH/505733/C79-P94

>  <fragmenstein_runtime>  (1016) 
1.9847054481506348

>  <fragmenstein_outcome>  (1016) 
too moved

>  <fragmenstein_mode>  (1016) 
expansion

>  <fragmenstein_error>  (1016) 


$$$$
C79-P64
     RDKit          3D

 22 23  0  0  0  0  0  0  0  0999 V2000
  -13.1317  -26.3755   25.2705 C   0  0  0  0  0  0  0  0  0  0  0  0
  -12.3093  -25.4426   26.0330 C   0  0  0  0  0  0  0  0  0  0  0  0
  -11.5082  -25.7314   27.1453 C   0  0  0  0  0  0  0  0  0  0  0  0
  -11.3423  -24.5044   27.7494 C   0  0  0  0  0  0  0  0  0  0  0  0
  -11.0740  -24.1833   29.1399 C   0  0  0  0  0  0  0  0  0  0  0  0
  -10.3848  -25.0813   29.9649 C   0  0  0  0  0  0  0  0  0  0  0  0
  -10.3166  -24.8544   31.3399 C   0  0  0  0  0  0  0  0  0  0  0  0
  -10.9467  -23.7433   31.8992 C   0  0  0  0  0  0  0  0  0  0  0  0
  -11.5931  -22.8164   31.0866 C   0  0  0  0  0  0  0  0  0  0  0  0
  -11.6510  -23.0339   29.7103 C   0  0  0  0  0  0  0  0  0  0  0  0
  -11.7689  -23.5892   26.8215 N   0  0  0  0  0  0  0  0  0  0  0  0
  -12.3637  -24.1456   25.7609 N   0  0  0  0  0  0  0  0  0  0  0  0
  -13.8854  -25.8677   24.6606 H   0  0  0  0  0  0  0  0  0  0  0  0
  -13.6792  -27.0119   25.9705 H   0  0  0  0  0  0  0  0  0  0  0  0
  -12.4866  -26.9684   24.6222 H   0  0  0  0  0  0  0  0  0  0  0  0
  -11.3218  -26.7010   27.5838 H   0  0  0  0  0  0  0  0  0  0  0  0
   -9.9461  -25.9875   29.5610 H   0  0  0  0  0  0  0  0  0  0  0  0
   -9.8132  -25.5697   31.9789 H   0  0  0  0  0  0  0  0  0  0  0  0
  -10.9561  -23.6147   32.9727 H   0  0  0  0  0  0  0  0  0  0  0  0
  -12.0789  -21.9592   31.5375 H   0  0  0  0  0  0  0  0  0  0  0  0
  -12.1790  -22.3137   29.1020 H   0  0  0  0  0  0  0  0  0  0  0  0
  -11.7952  -22.5749   26.8827 H   0  0  0  0  0  0  0  0  0  0  0  0
  1  2  1  0
  2  3  1  0
  3  4  2  0
  4  5  1  0
  5  6  2  0
  6  7  1  0
  7  8  2  0
  8  9  1  0
  9 10  2  0
  4 11  1  0
 11 12  1  0
 12  2  2  0
 10  5  1  0
  1 13  1  0
  1 14  1  0
  1 15  1  0
  3 16  1  0
  6 17  1  0
  7 18  1  0
  8 19  1  0
  9 20  1  0
 10 21  1  0
 11 22  1  0
M  END
>  <Energy>  (1017) 
33.327548130674181

>  <compound_id>  (1017) 
79

>  <target_id>  (1017) 
1

>  <reference_id>  (1017) 
64

>  <inspiration_ids>  (1017) 
[94, 64]

>  <energy_score>  (1017) 
-3.3421153236391348

>  <distance_score>  (1017) 
1.0963709259007217

>  <path>  (1017) 
/opt/xchem-fragalysis-2/maxwin/BulkDock/SCRATCH/505733/C79-P64/C79-P64.minimised.mol

>  <scratch_subdir>  (1017) 
/opt/xchem-fragalysis-2/maxwin/BulkDock/SCRATCH/505733/C79-P64

>  <fragmenstein_runtime>  (1017) 
1.6685223579406738

>  <fragmenstein_outcome>  (1017) 
too moved

>  <fragmenstein_mode>  (1017) 
expansion

>  <fragmenstein_error>  (1017) 


$$$$
C1334-P94
     RDKit          3D

 35 37  0  0  0  0  0  0  0  0999 V2000
  -12.0763  -22.7355   31.1366 O   0  0  0  0  0  0  0  0  0  0  0  0
  -11.6314  -23.8765   31.0884 C   0  0  0  0  0  0  0  0  0  0  0  0
  -11.7264  -24.6514   29.9743 O   0  0  0  0  0  0  0  0  0  0  0  0
  -11.0739  -25.9399   29.7361 C   0  0  0  0  0  0  0  0  0  0  0  0
  -10.0495  -25.7351   28.6261 C   0  0  0  0  0  0  0  0  0  0  0  0
  -10.7915  -25.2761   27.4272 C   0  0  0  0  0  0  0  0  0  0  0  0
  -11.0718  -23.9320   27.1840 C   0  0  0  0  0  0  0  0  0  0  0  0
  -12.2946  -23.9523   26.5588 C   0  0  0  0  0  0  0  0  0  0  0  0
  -13.3165  -22.9131   26.6993 C   0  0  0  0  0  0  0  0  0  0  0  0
  -14.3765  -22.3328   25.1682 C   0  0  0  0  0  0  0  0  0  0  0  0
  -15.0706  -20.5137   25.4739 C   0  0  0  0  0  0  0  0  0  0  0  0
  -15.0057  -19.2672   27.0591 C   0  0  0  0  0  0  0  0  0  0  0  0
  -13.8871  -20.0440   28.7529 C   0  0  0  0  0  0  0  0  0  0  0  0
  -12.9989  -21.7588   28.2425 C   0  0  0  0  0  0  0  0  0  0  0  0
  -12.4702  -25.2433   26.1539 N   0  0  0  0  0  0  0  0  0  0  0  0
  -11.5518  -26.0887   26.6876 N   0  0  0  0  0  0  0  0  0  0  0  0
  -10.9125  -24.4432   32.1794 C   0  0  0  0  0  0  0  0  0  0  0  0
  -11.3720  -24.7281   33.4696 C   0  0  0  0  0  0  0  0  0  0  0  0
  -10.4688  -25.4231   34.1735 N   0  0  0  0  0  0  0  0  0  0  0  0
   -9.3973  -25.4221   33.3741 N   0  0  0  0  0  0  0  0  0  0  0  0
   -9.6093  -24.8682   32.1666 C   0  0  0  0  0  0  0  0  0  0  0  0
  -10.6368  -26.3940   30.6234 H   0  0  0  0  0  0  0  0  0  0  0  0
  -11.8392  -26.6416   29.3933 H   0  0  0  0  0  0  0  0  0  0  0  0
   -9.3313  -24.9677   28.9283 H   0  0  0  0  0  0  0  0  0  0  0  0
   -9.4804  -26.6298   28.4191 H   0  0  0  0  0  0  0  0  0  0  0  0
  -10.6580  -23.0920   27.7195 H   0  0  0  0  0  0  0  0  0  0  0  0
  -14.3330  -22.8020   24.2008 H   0  0  0  0  0  0  0  0  0  0  0  0
  -15.4842  -20.1011   24.5553 H   0  0  0  0  0  0  0  0  0  0  0  0
  -15.1164  -18.1533   26.8788 H   0  0  0  0  0  0  0  0  0  0  0  0
  -12.9672  -19.5293   29.1436 H   0  0  0  0  0  0  0  0  0  0  0  0
  -12.1607  -22.0297   28.8867 H   0  0  0  0  0  0  0  0  0  0  0  0
  -13.2499  -25.6448   25.6470 H   0  0  0  0  0  0  0  0  0  0  0  0
  -12.3448  -24.5174   33.8978 H   0  0  0  0  0  0  0  0  0  0  0  0
   -8.5757  -25.9416   33.6579 H   0  0  0  0  0  0  0  0  0  0  0  0
   -8.8562  -24.9126   31.4028 H   0  0  0  0  0  0  0  0  0  0  0  0
  1  2  2  0
  2  3  1  0
  3  4  1  0
  4  5  1  0
  5  6  1  0
  6  7  1  0
  7  8  2  0
  8  9  1  0
  9 10  2  0
 10 11  1  0
 11 12  2  0
 12 13  1  0
 13 14  2  0
  8 15  1  0
 15 16  1  0
  2 17  1  0
 17 18  1  0
 18 19  2  0
 19 20  1  0
 20 21  1  0
 16  6  2  0
 21 17  2  0
 14  9  1  0
  4 22  1  0
  4 23  1  0
  5 24  1  0
  5 25  1  0
  7 26  1  0
 10 27  1  0
 11 28  1  0
 12 29  1  0
 13 30  1  0
 14 31  1  0
 15 32  1  0
 18 33  1  0
 20 34  1  0
 21 35  1  0
M  END
>  <Energy>  (1018) 
792.49431192488385

>  <compound_id>  (1018) 
1334

>  <target_id>  (1018) 
1

>  <reference_id>  (1018) 
94

>  <inspiration_ids>  (1018) 
[94, 75]

>  <energy_score>  (1018) 
735.2096237513647

>  <distance_score>  (1018) 
2.728030746894903

>  <path>  (1018) 
/opt/xchem-fragalysis-2/maxwin/BulkDock/SCRATCH/505733/C1334-P94/C1334-P94.minimised.mol

>  <scratch_subdir>  (1018) 
/opt/xchem-fragalysis-2/maxwin/BulkDock/SCRATCH/505733/C1334-P94

>  <fragmenstein_runtime>  (1018) 
16.7432279586792

>  <fragmenstein_outcome>  (1018) 
too moved

>  <fragmenstein_mode>  (1018) 
expansion

>  <fragmenstein_error>  (1018) 


$$$$
C1334-P75
     RDKit          3D

 35 37  0  0  0  0  0  0  0  0999 V2000
  -10.5514  -21.8439   31.9346 O   0  0  0  0  0  0  0  0  0  0  0  0
  -11.2453  -22.7868   32.2914 C   0  0  0  0  0  0  0  0  0  0  0  0
  -12.5779  -22.7757   32.1875 O   0  0  0  0  0  0  0  0  0  0  0  0
  -12.7149  -22.8648   30.7874 C   0  0  0  0  0  0  0  0  0  0  0  0
  -11.7346  -23.9590   30.0070 C   0  0  0  0  0  0  0  0  0  0  0  0
  -11.3001  -24.6046   28.6458 C   0  0  0  0  0  0  0  0  0  0  0  0
  -10.8498  -23.8388   27.5491 C   0  0  0  0  0  0  0  0  0  0  0  0
  -12.0164  -23.9517   26.7847 C   0  0  0  0  0  0  0  0  0  0  0  0
  -13.0925  -22.9436   26.8991 C   0  0  0  0  0  0  0  0  0  0  0  0
  -14.2178  -22.4847   25.3473 C   0  0  0  0  0  0  0  0  0  0  0  0
  -15.0079  -20.7271   25.5547 C   0  0  0  0  0  0  0  0  0  0  0  0
  -14.9696  -19.4174   27.0604 C   0  0  0  0  0  0  0  0  0  0  0  0
  -13.7852  -19.9938   28.7932 C   0  0  0  0  0  0  0  0  0  0  0  0
  -12.8255  -21.6810   28.3552 C   0  0  0  0  0  0  0  0  0  0  0  0
  -12.2831  -25.2964   26.9326 N   0  0  0  0  0  0  0  0  0  0  0  0
  -11.8168  -25.7325   28.1293 N   0  0  0  0  0  0  0  0  0  0  0  0
  -10.8278  -24.0550   32.7633 C   0  0  0  0  0  0  0  0  0  0  0  0
  -11.5724  -24.9528   33.5409 C   0  0  0  0  0  0  0  0  0  0  0  0
  -10.9328  -26.1065   33.7028 N   0  0  0  0  0  0  0  0  0  0  0  0
   -9.8820  -25.9745   32.8809 N   0  0  0  0  0  0  0  0  0  0  0  0
   -9.7051  -24.7353   32.3859 C   0  0  0  0  0  0  0  0  0  0  0  0
  -13.7884  -22.9802   30.6003 H   0  0  0  0  0  0  0  0  0  0  0  0
  -12.4776  -21.8505   30.4877 H   0  0  0  0  0  0  0  0  0  0  0  0
  -10.8658  -23.3186   30.0229 H   0  0  0  0  0  0  0  0  0  0  0  0
  -12.5589  -23.7588   29.3157 H   0  0  0  0  0  0  0  0  0  0  0  0
  -10.3959  -22.8836   27.7369 H   0  0  0  0  0  0  0  0  0  0  0  0
  -14.1509  -23.0083   24.4077 H   0  0  0  0  0  0  0  0  0  0  0  0
  -15.4288  -20.3503   24.6211 H   0  0  0  0  0  0  0  0  0  0  0  0
  -15.0777  -18.2943   26.7689 H   0  0  0  0  0  0  0  0  0  0  0  0
  -12.9684  -19.3294   29.1804 H   0  0  0  0  0  0  0  0  0  0  0  0
  -11.7829  -21.6383   28.7084 H   0  0  0  0  0  0  0  0  0  0  0  0
  -12.9821  -25.8579   26.4587 H   0  0  0  0  0  0  0  0  0  0  0  0
  -12.5636  -24.8153   33.9498 H   0  0  0  0  0  0  0  0  0  0  0  0
   -9.2713  -26.7690   32.7228 H   0  0  0  0  0  0  0  0  0  0  0  0
   -8.8631  -24.5144   31.7565 H   0  0  0  0  0  0  0  0  0  0  0  0
  1  2  2  0
  2  3  1  0
  3  4  1  0
  4  5  1  0
  5  6  1  0
  6  7  1  0
  7  8  2  0
  8  9  1  0
  9 10  2  0
 10 11  1  0
 11 12  2  0
 12 13  1  0
 13 14  2  0
  8 15  1  0
 15 16  1  0
  2 17  1  0
 17 18  1  0
 18 19  2  0
 19 20  1  0
 20 21  1  0
 16  6  2  0
 21 17  2  0
 14  9  1  0
  4 22  1  0
  4 23  1  0
  5 24  1  0
  5 25  1  0
  7 26  1  0
 10 27  1  0
 11 28  1  0
 12 29  1  0
 13 30  1  0
 14 31  1  0
 15 32  1  0
 18 33  1  0
 20 34  1  0
 21 35  1  0
M  END
>  <Energy>  (1019) 
932.23697316860626

>  <compound_id>  (1019) 
1334

>  <target_id>  (1019) 
1

>  <reference_id>  (1019) 
75

>  <inspiration_ids>  (1019) 
[94, 75]

>  <energy_score>  (1019) 
874.9522849950852

>  <distance_score>  (1019) 
2.6120113373451326

>  <path>  (1019) 
/opt/xchem-fragalysis-2/maxwin/BulkDock/SCRATCH/505733/C1334-P75/C1334-P75.minimised.mol

>  <scratch_subdir>  (1019) 
/opt/xchem-fragalysis-2/maxwin/BulkDock/SCRATCH/505733/C1334-P75

>  <fragmenstein_runtime>  (1019) 
7.9951465129852295

>  <fragmenstein_outcome>  (1019) 
too moved

>  <fragmenstein_mode>  (1019) 
expansion

>  <fragmenstein_error>  (1019) 


$$$$
C1335-P94
     RDKit          3D

 68 73  0  0  0  0  0  0  0  0999 V2000
  -11.2711  -21.0843   30.2337 C   0  0  0  0  0  0  0  0  0  0  0  0
  -11.4495  -20.9463   31.7626 C   0  0  0  0  0  0  0  0  0  0  0  0
  -11.3997  -21.9143   32.7476 C   0  0  0  0  0  0  0  0  0  0  0  0
  -10.3556  -22.5734   32.1692 C   0  0  0  0  0  0  0  0  0  0  0  0
   -9.6580  -23.9019   32.1732 C   0  0  0  0  0  0  0  0  0  0  0  0
   -8.5812  -23.7937   32.9501 C   0  0  0  0  0  0  0  0  0  0  0  0
   -7.6208  -24.5790   32.4748 C   0  0  0  0  0  0  0  0  0  0  0  0
   -7.8980  -25.7987   32.7497 C   0  0  0  0  0  0  0  0  0  0  0  0
   -8.7409  -26.0726   31.7953 C   0  0  0  0  0  0  0  0  0  0  0  0
   -9.5317  -25.0639   31.3136 C   0  0  0  0  0  0  0  0  0  0  0  0
  -10.0426  -25.5978   30.1379 N   0  0  0  0  0  0  0  0  0  0  0  0
  -10.8914  -26.7384   30.5136 C   0  0  0  0  0  0  0  0  0  0  0  0
  -11.5327  -26.5131   31.9009 C   0  0  0  0  0  0  0  0  0  0  0  0
  -12.0931  -25.1589   32.0499 N   0  0  0  0  0  0  0  0  0  0  0  0
  -12.2112  -24.4563   30.9016 C   0  0  0  0  0  0  0  0  0  0  0  0
  -12.6557  -23.2420   30.7044 C   0  0  0  0  0  0  0  0  0  0  0  0
  -12.6265  -22.9757   29.3638 N   0  0  0  0  0  0  0  0  0  0  0  0
  -11.6398  -23.3740   28.3040 C   0  0  0  0  0  0  0  0  0  0  0  0
  -10.5943  -23.9548   28.3887 O   0  0  0  0  0  0  0  0  0  0  0  0
  -12.1277  -22.9634   26.9757 C   0  0  0  0  0  0  0  0  0  0  0  0
  -12.3750  -23.8235   25.7427 C   0  0  0  0  0  0  0  0  0  0  0  0
  -11.8536  -25.2336   25.9836 C   0  0  0  0  0  0  0  0  0  0  0  0
  -12.3690  -25.9817   27.0506 C   0  0  0  0  0  0  0  0  0  0  0  0
  -11.5799  -27.0781   27.0675 C   0  0  0  0  0  0  0  0  0  0  0  0
  -10.7743  -27.0814   25.9779 O   0  0  0  0  0  0  0  0  0  0  0  0
  -11.0043  -25.9258   25.2477 N   0  0  0  0  0  0  0  0  0  0  0  0
  -12.1964  -22.9381   24.4756 C   0  0  0  0  0  0  0  0  0  0  0  0
  -13.6379  -23.0083   24.1540 N   0  0  0  0  0  0  0  0  0  0  0  0
  -13.8131  -24.0842   25.1174 C   0  0  0  0  0  0  0  0  0  0  0  0
  -13.5144  -22.6556   31.8888 C   0  0  0  0  0  0  0  0  0  0  0  0
  -14.5694  -21.7229   31.7948 C   0  0  0  0  0  0  0  0  0  0  0  0
  -15.4116  -21.4589   32.8810 C   0  0  0  0  0  0  0  0  0  0  0  0
  -15.2766  -22.1823   34.0598 C   0  0  0  0  0  0  0  0  0  0  0  0
  -14.2870  -23.1577   34.1725 C   0  0  0  0  0  0  0  0  0  0  0  0
  -13.3894  -23.3864   33.1379 C   0  0  0  0  0  0  0  0  0  0  0  0
  -12.3527  -24.5183   33.2401 C   0  0  0  0  0  0  0  0  0  0  0  0
  -11.7355  -24.8226   34.2467 O   0  0  0  0  0  0  0  0  0  0  0  0
   -9.6718  -21.2284   32.2394 N   0  0  0  0  0  0  0  0  0  0  0  0
  -10.5321  -20.2354   32.3768 N   0  0  0  0  0  0  0  0  0  0  0  0
  -10.8335  -22.0194   29.9616 H   0  0  0  0  0  0  0  0  0  0  0  0
  -10.4890  -20.5066   29.8186 H   0  0  0  0  0  0  0  0  0  0  0  0
  -12.1502  -20.8574   29.6368 H   0  0  0  0  0  0  0  0  0  0  0  0
  -11.6600  -21.8859   33.8039 H   0  0  0  0  0  0  0  0  0  0  0  0
   -8.2685  -22.9035   33.4641 H   0  0  0  0  0  0  0  0  0  0  0  0
   -6.5686  -24.3477   32.4113 H   0  0  0  0  0  0  0  0  0  0  0  0
   -7.1729  -26.4726   33.1548 H   0  0  0  0  0  0  0  0  0  0  0  0
   -8.7209  -27.0733   31.3852 H   0  0  0  0  0  0  0  0  0  0  0  0
  -10.3222  -24.9169   29.4435 H   0  0  0  0  0  0  0  0  0  0  0  0
  -10.3286  -27.6557   30.5762 H   0  0  0  0  0  0  0  0  0  0  0  0
  -11.6395  -26.9298   29.7443 H   0  0  0  0  0  0  0  0  0  0  0  0
  -12.2941  -27.2735   31.9596 H   0  0  0  0  0  0  0  0  0  0  0  0
  -10.8781  -26.7181   32.7485 H   0  0  0  0  0  0  0  0  0  0  0  0
  -12.0836  -25.0037   29.9942 H   0  0  0  0  0  0  0  0  0  0  0  0
  -13.4188  -22.5817   28.9374 H   0  0  0  0  0  0  0  0  0  0  0  0
  -11.5641  -22.0551   26.7673 H   0  0  0  0  0  0  0  0  0  0  0  0
  -13.1253  -22.7499   27.2313 H   0  0  0  0  0  0  0  0  0  0  0  0
  -13.1421  -25.7277   27.7453 H   0  0  0  0  0  0  0  0  0  0  0  0
  -11.5621  -27.9477   27.6967 H   0  0  0  0  0  0  0  0  0  0  0  0
  -11.9553  -21.8766   24.5953 H   0  0  0  0  0  0  0  0  0  0  0  0
  -11.4649  -23.2507   23.7344 H   0  0  0  0  0  0  0  0  0  0  0  0
  -14.0680  -22.1336   24.4780 H   0  0  0  0  0  0  0  0  0  0  0  0
  -13.9599  -25.0585   24.6277 H   0  0  0  0  0  0  0  0  0  0  0  0
  -14.6808  -24.0039   25.7534 H   0  0  0  0  0  0  0  0  0  0  0  0
  -14.8508  -21.2846   30.8546 H   0  0  0  0  0  0  0  0  0  0  0  0
  -16.2292  -20.7512   32.7726 H   0  0  0  0  0  0  0  0  0  0  0  0
  -15.9767  -22.0280   34.8760 H   0  0  0  0  0  0  0  0  0  0  0  0
  -14.2403  -23.8029   35.0331 H   0  0  0  0  0  0  0  0  0  0  0  0
   -8.6958  -21.0204   32.4855 H   0  0  0  0  0  0  0  0  0  0  0  0
  1  2  1  0
  2  3  1  0
  3  4  2  0
  4  5  1  0
  5  6  2  0
  6  7  1  0
  7  8  2  0
  8  9  1  0
  9 10  2  0
 10 11  1  0
 11 12  1  0
 12 13  1  0
 13 14  1  0
 14 15  1  0
 15 16  2  0
 16 17  1  0
 17 18  1  0
 18 19  2  0
 18 20  1  0
 20 21  1  0
 21 22  1  0
 22 23  1  0
 23 24  2  0
 24 25  1  0
 25 26  1  0
 21 27  1  0
 27 28  1  0
 28 29  1  0
 16 30  1  0
 30 31  2  0
 31 32  1  0
 32 33  2  0
 33 34  1  0
 34 35  2  0
 35 36  1  0
 36 37  2  0
  4 38  1  0
 38 39  1  0
 39  2  2  0
 10  5  1  0
 36 14  1  0
 29 21  1  0
 35 30  1  0
 26 22  2  0
  1 40  1  0
  1 41  1  0
  1 42  1  0
  3 43  1  0
  6 44  1  0
  7 45  1  0
  8 46  1  0
  9 47  1  0
 11 48  1  0
 12 49  1  0
 12 50  1  0
 13 51  1  0
 13 52  1  0
 15 53  1  0
 17 54  1  0
 20 55  1  0
 20 56  1  0
 23 57  1  0
 24 58  1  0
 27 59  1  0
 27 60  1  0
 28 61  1  0
 29 62  1  0
 29 63  1  0
 31 64  1  0
 32 65  1  0
 33 66  1  0
 34 67  1  0
 38 68  1  0
M  END
>  <Energy>  (1020) 
580.94668629337855

>  <compound_id>  (1020) 
1335

>  <target_id>  (1020) 
1

>  <reference_id>  (1020) 
94

>  <inspiration_ids>  (1020) 
[94, 82]

>  <energy_score>  (1020) 
401.1443633711432

>  <distance_score>  (1020) 
2.1063803012002977

>  <path>  (1020) 
/opt/xchem-fragalysis-2/maxwin/BulkDock/SCRATCH/505733/C1335-P94/C1335-P94.minimised.mol

>  <scratch_subdir>  (1020) 
/opt/xchem-fragalysis-2/maxwin/BulkDock/SCRATCH/505733/C1335-P94

>  <fragmenstein_runtime>  (1020) 
83.2839457988739

>  <fragmenstein_outcome>  (1020) 
too moved

>  <fragmenstein_mode>  (1020) 
expansion

>  <fragmenstein_error>  (1020) 


$$$$
C1335-P82
     RDKit          3D

 68 73  0  0  0  0  0  0  0  0999 V2000
  -11.0114  -24.3665   24.9227 C   0  0  0  0  0  0  0  0  0  0  0  0
  -11.1976  -23.8912   26.2846 C   0  0  0  0  0  0  0  0  0  0  0  0
  -10.5752  -24.1974   27.5062 C   0  0  0  0  0  0  0  0  0  0  0  0
  -11.0869  -23.2712   28.3949 C   0  0  0  0  0  0  0  0  0  0  0  0
  -11.0626  -23.0631   29.8386 C   0  0  0  0  0  0  0  0  0  0  0  0
  -11.6586  -21.8787   30.3249 C   0  0  0  0  0  0  0  0  0  0  0  0
  -11.7096  -21.6004   31.6820 C   0  0  0  0  0  0  0  0  0  0  0  0
  -11.1394  -22.4362   32.5808 C   0  0  0  0  0  0  0  0  0  0  0  0
  -10.3531  -23.4865   32.1526 C   0  0  0  0  0  0  0  0  0  0  0  0
  -10.4039  -23.9346   30.8002 C   0  0  0  0  0  0  0  0  0  0  0  0
   -9.6193  -25.0562   30.4309 N   0  0  0  0  0  0  0  0  0  0  0  0
   -9.3412  -26.0369   31.5036 C   0  0  0  0  0  0  0  0  0  0  0  0
  -10.4533  -26.3731   32.5076 C   0  0  0  0  0  0  0  0  0  0  0  0
  -11.7015  -25.7447   32.2783 N   0  0  0  0  0  0  0  0  0  0  0  0
  -12.1036  -25.7614   30.9869 C   0  0  0  0  0  0  0  0  0  0  0  0
  -12.9064  -24.8586   30.4586 C   0  0  0  0  0  0  0  0  0  0  0  0
  -13.0855  -25.0262   29.0837 N   0  0  0  0  0  0  0  0  0  0  0  0
  -12.7264  -26.1587   28.1812 C   0  0  0  0  0  0  0  0  0  0  0  0
  -12.1186  -27.1797   28.4013 O   0  0  0  0  0  0  0  0  0  0  0  0
  -13.3356  -25.9830   26.8063 C   0  0  0  0  0  0  0  0  0  0  0  0
  -14.0744  -27.1310   26.1206 C   0  0  0  0  0  0  0  0  0  0  0  0
  -15.1120  -27.9379   26.9674 C   0  0  0  0  0  0  0  0  0  0  0  0
  -15.0128  -29.2832   27.3757 C   0  0  0  0  0  0  0  0  0  0  0  0
  -16.1651  -29.4952   28.0884 C   0  0  0  0  0  0  0  0  0  0  0  0
  -16.8975  -28.3543   28.1201 O   0  0  0  0  0  0  0  0  0  0  0  0
  -16.2257  -27.3604   27.4283 N   0  0  0  0  0  0  0  0  0  0  0  0
  -13.2089  -27.9926   25.1706 C   0  0  0  0  0  0  0  0  0  0  0  0
  -14.2165  -27.8031   24.1040 N   0  0  0  0  0  0  0  0  0  0  0  0
  -14.7153  -26.6053   24.7995 C   0  0  0  0  0  0  0  0  0  0  0  0
  -13.5997  -23.8817   31.5109 C   0  0  0  0  0  0  0  0  0  0  0  0
  -14.4572  -22.7734   31.3645 C   0  0  0  0  0  0  0  0  0  0  0  0
  -15.2897  -22.2374   32.3645 C   0  0  0  0  0  0  0  0  0  0  0  0
  -15.2817  -22.8022   33.6129 C   0  0  0  0  0  0  0  0  0  0  0  0
  -14.3377  -23.7789   33.8562 C   0  0  0  0  0  0  0  0  0  0  0  0
  -13.4557  -24.2125   32.8602 C   0  0  0  0  0  0  0  0  0  0  0  0
  -12.2642  -24.9714   33.2525 C   0  0  0  0  0  0  0  0  0  0  0  0
  -11.6860  -24.7889   34.3142 O   0  0  0  0  0  0  0  0  0  0  0  0
  -11.7848  -22.4249   27.5893 N   0  0  0  0  0  0  0  0  0  0  0  0
  -12.1494  -22.9864   26.4552 N   0  0  0  0  0  0  0  0  0  0  0  0
  -11.1804  -25.4369   24.8455 H   0  0  0  0  0  0  0  0  0  0  0  0
  -11.6912  -23.7962   24.2845 H   0  0  0  0  0  0  0  0  0  0  0  0
  -10.0310  -24.1652   24.5087 H   0  0  0  0  0  0  0  0  0  0  0  0
   -9.8931  -25.0041   27.7065 H   0  0  0  0  0  0  0  0  0  0  0  0
  -12.1398  -21.1865   29.6585 H   0  0  0  0  0  0  0  0  0  0  0  0
  -12.2639  -20.8088   32.1339 H   0  0  0  0  0  0  0  0  0  0  0  0
  -11.3794  -22.2924   33.6289 H   0  0  0  0  0  0  0  0  0  0  0  0
   -9.7410  -23.9939   32.8854 H   0  0  0  0  0  0  0  0  0  0  0  0
  -10.0206  -25.5075   29.6178 H   0  0  0  0  0  0  0  0  0  0  0  0
   -8.4421  -25.7322   32.0481 H   0  0  0  0  0  0  0  0  0  0  0  0
   -9.1336  -26.9890   31.0067 H   0  0  0  0  0  0  0  0  0  0  0  0
  -10.6888  -27.4336   32.4226 H   0  0  0  0  0  0  0  0  0  0  0  0
  -10.1122  -26.1679   33.5257 H   0  0  0  0  0  0  0  0  0  0  0  0
  -11.6128  -26.5068   30.3779 H   0  0  0  0  0  0  0  0  0  0  0  0
  -13.5248  -24.3016   28.5463 H   0  0  0  0  0  0  0  0  0  0  0  0
  -12.4709  -25.8325   26.1895 H   0  0  0  0  0  0  0  0  0  0  0  0
  -13.9061  -25.0639   26.7295 H   0  0  0  0  0  0  0  0  0  0  0  0
  -14.2277  -30.0013   27.1947 H   0  0  0  0  0  0  0  0  0  0  0  0
  -16.5905  -30.3367   28.6157 H   0  0  0  0  0  0  0  0  0  0  0  0
  -13.0457  -29.0297   25.4700 H   0  0  0  0  0  0  0  0  0  0  0  0
  -12.2295  -27.5801   24.9026 H   0  0  0  0  0  0  0  0  0  0  0  0
  -14.9322  -28.5340   24.1035 H   0  0  0  0  0  0  0  0  0  0  0  0
  -15.8049  -26.4948   24.7812 H   0  0  0  0  0  0  0  0  0  0  0  0
  -14.2926  -25.6729   24.4090 H   0  0  0  0  0  0  0  0  0  0  0  0
  -14.5260  -22.2493   30.4455 H   0  0  0  0  0  0  0  0  0  0  0  0
  -15.9695  -21.4255   32.1253 H   0  0  0  0  0  0  0  0  0  0  0  0
  -15.9596  -22.4718   34.3908 H   0  0  0  0  0  0  0  0  0  0  0  0
  -14.2697  -24.2404   34.8243 H   0  0  0  0  0  0  0  0  0  0  0  0
  -12.0936  -21.4813   27.7708 H   0  0  0  0  0  0  0  0  0  0  0  0
  1  2  1  0
  2  3  1  0
  3  4  2  0
  4  5  1  0
  5  6  2  0
  6  7  1  0
  7  8  2  0
  8  9  1  0
  9 10  2  0
 10 11  1  0
 11 12  1  0
 12 13  1  0
 13 14  1  0
 14 15  1  0
 15 16  2  0
 16 17  1  0
 17 18  1  0
 18 19  2  0
 18 20  1  0
 20 21  1  0
 21 22  1  0
 22 23  1  0
 23 24  2  0
 24 25  1  0
 25 26  1  0
 21 27  1  0
 27 28  1  0
 28 29  1  0
 16 30  1  0
 30 31  2  0
 31 32  1  0
 32 33  2  0
 33 34  1  0
 34 35  2  0
 35 36  1  0
 36 37  2  0
  4 38  1  0
 38 39  1  0
 39  2  2  0
 10  5  1  0
 36 14  1  0
 29 21  1  0
 35 30  1  0
 26 22  2  0
  1 40  1  0
  1 41  1  0
  1 42  1  0
  3 43  1  0
  6 44  1  0
  7 45  1  0
  8 46  1  0
  9 47  1  0
 11 48  1  0
 12 49  1  0
 12 50  1  0
 13 51  1  0
 13 52  1  0
 15 53  1  0
 17 54  1  0
 20 55  1  0
 20 56  1  0
 23 57  1  0
 24 58  1  0
 27 59  1  0
 27 60  1  0
 28 61  1  0
 29 62  1  0
 29 63  1  0
 31 64  1  0
 32 65  1  0
 33 66  1  0
 34 67  1  0
 38 68  1  0
M  END
>  <Energy>  (1021) 
256.39330391367503

>  <compound_id>  (1021) 
1335

>  <target_id>  (1021) 
1

>  <reference_id>  (1021) 
82

>  <inspiration_ids>  (1021) 
[94, 82]

>  <energy_score>  (1021) 
76.59098099143364

>  <distance_score>  (1021) 
2.2050920055726264

>  <path>  (1021) 
/opt/xchem-fragalysis-2/maxwin/BulkDock/SCRATCH/505733/C1335-P82/C1335-P82.minimised.mol

>  <scratch_subdir>  (1021) 
/opt/xchem-fragalysis-2/maxwin/BulkDock/SCRATCH/505733/C1335-P82

>  <fragmenstein_runtime>  (1021) 
67.09323453903198

>  <fragmenstein_outcome>  (1021) 
too moved

>  <fragmenstein_mode>  (1021) 
expansion

>  <fragmenstein_error>  (1021) 


$$$$
C1337-P94
     RDKit          3D

 42 44  0  0  0  0  0  0  0  0999 V2000
   -8.1611  -25.1914   35.7567 C   0  0  0  0  0  0  0  0  0  0  0  0
   -8.0766  -25.7482   34.3540 C   0  0  0  0  0  0  0  0  0  0  0  0
   -7.1176  -26.3529   34.0924 O   0  0  0  0  0  0  0  0  0  0  0  0
   -9.2535  -25.3453   33.4864 N   0  0  0  0  0  0  0  0  0  0  0  0
   -9.4735  -25.5108   32.0917 C   0  0  0  0  0  0  0  0  0  0  0  0
  -10.9161  -25.8818   31.8798 C   0  0  0  0  0  0  0  0  0  0  0  0
  -11.5772  -24.5980   31.6275 C   0  0  0  0  0  0  0  0  0  0  0  0
  -11.9141  -23.6371   32.5631 C   0  0  0  0  0  0  0  0  0  0  0  0
  -12.1252  -22.4725   31.8797 N   0  0  0  0  0  0  0  0  0  0  0  0
  -11.8957  -22.7013   30.5527 C   0  0  0  0  0  0  0  0  0  0  0  0
  -11.7330  -24.0391   30.3363 C   0  0  0  0  0  0  0  0  0  0  0  0
  -11.5200  -24.6099   28.9730 C   0  0  0  0  0  0  0  0  0  0  0  0
  -12.5155  -25.6860   28.6917 N   0  0  0  0  0  0  0  0  0  0  0  0
  -11.8530  -26.7666   28.4797 C   0  0  0  0  0  0  0  0  0  0  0  0
  -12.5482  -28.0765   28.4472 C   0  0  0  0  0  0  0  0  0  0  0  0
  -10.3920  -26.6126   28.4282 C   0  0  0  0  0  0  0  0  0  0  0  0
  -10.1846  -25.2625   28.8820 C   0  0  0  0  0  0  0  0  0  0  0  0
   -9.0728  -24.8466   29.1509 O   0  0  0  0  0  0  0  0  0  0  0  0
  -11.5842  -23.6421   27.8160 C   0  0  0  0  0  0  0  0  0  0  0  0
  -10.7652  -24.0802   26.8057 F   0  0  0  0  0  0  0  0  0  0  0  0
  -11.1415  -22.2748   28.2257 C   0  0  0  0  0  0  0  0  0  0  0  0
  -11.7336  -21.6959   29.5042 C   0  0  0  0  0  0  0  0  0  0  0  0
   -7.5228  -25.8032   36.3840 H   0  0  0  0  0  0  0  0  0  0  0  0
   -7.7704  -24.1940   35.8824 H   0  0  0  0  0  0  0  0  0  0  0  0
   -9.1708  -25.1675   36.0832 H   0  0  0  0  0  0  0  0  0  0  0  0
   -9.9478  -24.8973   34.0535 H   0  0  0  0  0  0  0  0  0  0  0  0
   -8.8044  -26.2695   31.6973 H   0  0  0  0  0  0  0  0  0  0  0  0
   -9.1694  -24.5738   31.6332 H   0  0  0  0  0  0  0  0  0  0  0  0
  -11.0365  -26.5824   31.0571 H   0  0  0  0  0  0  0  0  0  0  0  0
  -11.3063  -26.3848   32.7506 H   0  0  0  0  0  0  0  0  0  0  0  0
  -11.9569  -23.6640   33.6433 H   0  0  0  0  0  0  0  0  0  0  0  0
  -12.3139  -21.5789   32.3108 H   0  0  0  0  0  0  0  0  0  0  0  0
  -12.6277  -28.4691   29.4631 H   0  0  0  0  0  0  0  0  0  0  0  0
  -13.5641  -27.9482   28.0659 H   0  0  0  0  0  0  0  0  0  0  0  0
  -11.9847  -28.7920   27.8561 H   0  0  0  0  0  0  0  0  0  0  0  0
   -9.9243  -27.1855   29.2129 H   0  0  0  0  0  0  0  0  0  0  0  0
  -10.0227  -26.6793   27.4076 H   0  0  0  0  0  0  0  0  0  0  0  0
  -12.5604  -23.5784   27.3467 H   0  0  0  0  0  0  0  0  0  0  0  0
  -10.0632  -22.2999   28.3262 H   0  0  0  0  0  0  0  0  0  0  0  0
  -11.3447  -21.6341   27.3757 H   0  0  0  0  0  0  0  0  0  0  0  0
  -11.0377  -20.9496   29.8788 H   0  0  0  0  0  0  0  0  0  0  0  0
  -12.6684  -21.2098   29.2855 H   0  0  0  0  0  0  0  0  0  0  0  0
  1  2  1  0
  2  3  2  0
  2  4  1  0
  4  5  1  0
  5  6  1  0
  6  7  1  0
  7  8  2  0
  8  9  1  0
  9 10  1  0
 10 11  2  0
 11 12  1  0
 12 13  1  0
 13 14  2  0
 14 15  1  0
 14 16  1  0
 16 17  1  0
 17 18  2  0
 12 19  1  0
 19 20  1  0
 19 21  1  0
 21 22  1  0
 11  7  1  0
 17 12  1  0
 22 10  1  0
  1 23  1  0
  1 24  1  0
  1 25  1  0
  4 26  1  0
  5 27  1  0
  5 28  1  0
  6 29  1  0
  6 30  1  0
  8 31  1  0
  9 32  1  0
 15 33  1  0
 15 34  1  0
 15 35  1  0
 16 36  1  0
 16 37  1  0
 19 38  1  0
 21 39  1  0
 21 40  1  0
 22 41  1  0
 22 42  1  0
M  END
>  <Energy>  (1022) 
103.43537743583047

>  <compound_id>  (1022) 
1337

>  <target_id>  (1022) 
1

>  <reference_id>  (1022) 
94

>  <inspiration_ids>  (1022) 
[94, 96]

>  <energy_score>  (1022) 
10.619633068754979

>  <distance_score>  (1022) 
1.623587245659595

>  <path>  (1022) 
/opt/xchem-fragalysis-2/maxwin/BulkDock/SCRATCH/505733/C1337-P94/C1337-P94.minimised.mol

>  <scratch_subdir>  (1022) 
/opt/xchem-fragalysis-2/maxwin/BulkDock/SCRATCH/505733/C1337-P94

>  <fragmenstein_runtime>  (1022) 
6.235934257507324

>  <fragmenstein_outcome>  (1022) 
too moved

>  <fragmenstein_mode>  (1022) 
expansion

>  <fragmenstein_error>  (1022) 


$$$$
C1337-P96
     RDKit          3D

 42 44  0  0  0  0  0  0  0  0999 V2000
   -8.1836  -24.2138   32.7705 C   0  0  0  0  0  0  0  0  0  0  0  0
   -8.9598  -25.4895   33.0042 C   0  0  0  0  0  0  0  0  0  0  0  0
   -8.7547  -26.2171   33.8936 O   0  0  0  0  0  0  0  0  0  0  0  0
  -10.0665  -25.5163   31.9194 N   0  0  0  0  0  0  0  0  0  0  0  0
  -11.1044  -26.5086   31.6464 C   0  0  0  0  0  0  0  0  0  0  0  0
  -12.5365  -25.9089   31.5361 C   0  0  0  0  0  0  0  0  0  0  0  0
  -12.4938  -24.4253   31.3881 C   0  0  0  0  0  0  0  0  0  0  0  0
  -12.9035  -23.4523   32.2751 C   0  0  0  0  0  0  0  0  0  0  0  0
  -12.3998  -22.2433   31.8824 N   0  0  0  0  0  0  0  0  0  0  0  0
  -11.8542  -22.4026   30.6499 C   0  0  0  0  0  0  0  0  0  0  0  0
  -11.9849  -23.7165   30.2700 C   0  0  0  0  0  0  0  0  0  0  0  0
  -11.6288  -24.1764   28.9077 C   0  0  0  0  0  0  0  0  0  0  0  0
  -12.7975  -24.9330   28.3561 N   0  0  0  0  0  0  0  0  0  0  0  0
  -12.3351  -26.0244   27.8429 C   0  0  0  0  0  0  0  0  0  0  0  0
  -13.2492  -26.9974   27.1748 C   0  0  0  0  0  0  0  0  0  0  0  0
  -10.8592  -26.2498   27.9716 C   0  0  0  0  0  0  0  0  0  0  0  0
  -10.4542  -25.1098   28.8338 C   0  0  0  0  0  0  0  0  0  0  0  0
   -9.3498  -24.9554   29.3446 O   0  0  0  0  0  0  0  0  0  0  0  0
  -11.3198  -23.0329   27.9438 C   0  0  0  0  0  0  0  0  0  0  0  0
  -10.5630  -23.5094   26.9073 F   0  0  0  0  0  0  0  0  0  0  0  0
  -10.5866  -21.8798   28.6046 C   0  0  0  0  0  0  0  0  0  0  0  0
  -11.2849  -21.3114   29.8406 C   0  0  0  0  0  0  0  0  0  0  0  0
   -8.7572  -23.3725   33.1706 H   0  0  0  0  0  0  0  0  0  0  0  0
   -7.2335  -24.2707   33.3002 H   0  0  0  0  0  0  0  0  0  0  0  0
   -7.9909  -24.0423   31.7106 H   0  0  0  0  0  0  0  0  0  0  0  0
   -9.8997  -24.7731   31.2454 H   0  0  0  0  0  0  0  0  0  0  0  0
  -11.0624  -27.3204   32.3781 H   0  0  0  0  0  0  0  0  0  0  0  0
  -10.8756  -26.9434   30.6764 H   0  0  0  0  0  0  0  0  0  0  0  0
  -13.0611  -26.3710   30.6925 H   0  0  0  0  0  0  0  0  0  0  0  0
  -13.1320  -26.1846   32.4128 H   0  0  0  0  0  0  0  0  0  0  0  0
  -13.4927  -23.4732   33.1669 H   0  0  0  0  0  0  0  0  0  0  0  0
  -12.4993  -21.3687   32.3848 H   0  0  0  0  0  0  0  0  0  0  0  0
  -14.2884  -26.7763   27.4359 H   0  0  0  0  0  0  0  0  0  0  0  0
  -13.1412  -26.9154   26.0911 H   0  0  0  0  0  0  0  0  0  0  0  0
  -13.0177  -28.0131   27.5034 H   0  0  0  0  0  0  0  0  0  0  0  0
  -10.6891  -27.2030   28.4634 H   0  0  0  0  0  0  0  0  0  0  0  0
  -10.3609  -26.1359   27.0111 H   0  0  0  0  0  0  0  0  0  0  0  0
  -12.2374  -22.6688   27.4947 H   0  0  0  0  0  0  0  0  0  0  0  0
   -9.5766  -22.2273   28.8364 H   0  0  0  0  0  0  0  0  0  0  0  0
  -10.4807  -21.0673   27.8884 H   0  0  0  0  0  0  0  0  0  0  0  0
  -10.6032  -20.7015   30.4382 H   0  0  0  0  0  0  0  0  0  0  0  0
  -12.0693  -20.6293   29.5221 H   0  0  0  0  0  0  0  0  0  0  0  0
  1  2  1  0
  2  3  2  0
  2  4  1  0
  4  5  1  0
  5  6  1  0
  6  7  1  0
  7  8  2  0
  8  9  1  0
  9 10  1  0
 10 11  2  0
 11 12  1  0
 12 13  1  0
 13 14  2  0
 14 15  1  0
 14 16  1  0
 16 17  1  0
 17 18  2  0
 12 19  1  0
 19 20  1  0
 19 21  1  0
 21 22  1  0
 11  7  1  0
 17 12  1  0
 22 10  1  0
  1 23  1  0
  1 24  1  0
  1 25  1  0
  4 26  1  0
  5 27  1  0
  5 28  1  0
  6 29  1  0
  6 30  1  0
  8 31  1  0
  9 32  1  0
 15 33  1  0
 15 34  1  0
 15 35  1  0
 16 36  1  0
 16 37  1  0
 19 38  1  0
 21 39  1  0
 21 40  1  0
 22 41  1  0
 22 42  1  0
M  END
>  <Energy>  (1023) 
86.193820489086718

>  <compound_id>  (1023) 
1337

>  <target_id>  (1023) 
1

>  <reference_id>  (1023) 
96

>  <inspiration_ids>  (1023) 
[94, 96]

>  <energy_score>  (1023) 
-6.6219238779835905

>  <distance_score>  (1023) 
2.0634796791395043

>  <path>  (1023) 
/opt/xchem-fragalysis-2/maxwin/BulkDock/SCRATCH/505733/C1337-P96/C1337-P96.minimised.mol

>  <scratch_subdir>  (1023) 
/opt/xchem-fragalysis-2/maxwin/BulkDock/SCRATCH/505733/C1337-P96

>  <fragmenstein_runtime>  (1023) 
6.9286088943481445

>  <fragmenstein_outcome>  (1023) 
too moved

>  <fragmenstein_mode>  (1023) 
expansion

>  <fragmenstein_error>  (1023) 


$$$$
C1338-P94
     RDKit          3D

 43 44  0  0  0  0  0  0  0  0999 V2000
   -9.2941  -30.7434   33.0459 C   0  0  0  0  0  0  0  0  0  0  0  0
  -10.2077  -29.6265   33.0149 C   0  0  0  0  0  0  0  0  0  0  0  0
  -10.1628  -29.0355   34.0551 O   0  0  0  0  0  0  0  0  0  0  0  0
  -10.9137  -29.3274   31.7955 N   0  0  0  0  0  0  0  0  0  0  0  0
  -11.7070  -28.1682   31.4077 C   0  0  0  0  0  0  0  0  0  0  0  0
  -10.9069  -27.2443   30.4683 C   0  0  0  0  0  0  0  0  0  0  0  0
  -11.1881  -25.8065   30.5049 C   0  0  0  0  0  0  0  0  0  0  0  0
  -11.1578  -25.0559   31.6649 C   0  0  0  0  0  0  0  0  0  0  0  0
  -11.4822  -23.7846   31.3348 N   0  0  0  0  0  0  0  0  0  0  0  0
  -11.5166  -23.6740   29.9669 C   0  0  0  0  0  0  0  0  0  0  0  0
  -11.5872  -22.5164   29.2213 C   0  0  0  0  0  0  0  0  0  0  0  0
  -11.5975  -21.3322   29.8359 F   0  0  0  0  0  0  0  0  0  0  0  0
  -11.5304  -22.6123   27.8489 C   0  0  0  0  0  0  0  0  0  0  0  0
  -11.5636  -23.8381   27.2244 C   0  0  0  0  0  0  0  0  0  0  0  0
  -11.6261  -23.8929   25.8855 F   0  0  0  0  0  0  0  0  0  0  0  0
  -11.5478  -25.0237   27.9482 C   0  0  0  0  0  0  0  0  0  0  0  0
  -11.9083  -26.1151   27.1465 O   0  0  0  0  0  0  0  0  0  0  0  0
  -10.8881  -27.0587   26.8954 C   0  0  0  0  0  0  0  0  0  0  0  0
  -10.5486  -27.7934   25.4635 C   0  0  0  0  0  0  0  0  0  0  0  0
  -11.1425  -27.3143   24.5197 O   0  0  0  0  0  0  0  0  0  0  0  0
   -9.6292  -29.0199   25.5371 N   0  0  0  0  0  0  0  0  0  0  0  0
  -10.4206  -30.2704   25.8672 C   0  0  0  0  0  0  0  0  0  0  0  0
   -9.0968  -29.9385   24.4196 C   0  0  0  0  0  0  0  0  0  0  0  0
  -11.4185  -24.9417   29.3792 C   0  0  0  0  0  0  0  0  0  0  0  0
   -8.9888  -30.9482   34.0305 H   0  0  0  0  0  0  0  0  0  0  0  0
   -8.4945  -30.2693   32.4997 H   0  0  0  0  0  0  0  0  0  0  0  0
   -9.2144  -31.6264   32.4897 H   0  0  0  0  0  0  0  0  0  0  0  0
  -10.7966  -30.0748   31.1647 H   0  0  0  0  0  0  0  0  0  0  0  0
  -12.5691  -28.5986   30.9027 H   0  0  0  0  0  0  0  0  0  0  0  0
  -11.9598  -27.5420   32.2364 H   0  0  0  0  0  0  0  0  0  0  0  0
   -9.8316  -27.3474   30.6504 H   0  0  0  0  0  0  0  0  0  0  0  0
  -11.1414  -27.5369   29.4534 H   0  0  0  0  0  0  0  0  0  0  0  0
  -10.9770  -25.3386   32.6951 H   0  0  0  0  0  0  0  0  0  0  0  0
  -11.5879  -23.0149   31.9833 H   0  0  0  0  0  0  0  0  0  0  0  0
  -11.5113  -21.7276   27.2419 H   0  0  0  0  0  0  0  0  0  0  0  0
   -9.9408  -26.6721   27.2855 H   0  0  0  0  0  0  0  0  0  0  0  0
  -11.3108  -27.8785   27.4784 H   0  0  0  0  0  0  0  0  0  0  0  0
  -11.0323  -30.7207   25.0663 H   0  0  0  0  0  0  0  0  0  0  0  0
  -11.0551  -30.0918   26.7460 H   0  0  0  0  0  0  0  0  0  0  0  0
   -9.7459  -31.0188   26.2770 H   0  0  0  0  0  0  0  0  0  0  0  0
   -8.0607  -29.6365   24.2534 H   0  0  0  0  0  0  0  0  0  0  0  0
   -9.0273  -31.0340   24.5232 H   0  0  0  0  0  0  0  0  0  0  0  0
   -9.6233  -29.7228   23.4870 H   0  0  0  0  0  0  0  0  0  0  0  0
  1  2  1  0
  2  3  2  0
  2  4  1  0
  4  5  1  0
  5  6  1  0
  6  7  1  0
  7  8  2  0
  8  9  1  0
  9 10  1  0
 10 11  2  0
 11 12  1  0
 11 13  1  0
 13 14  2  0
 14 15  1  0
 14 16  1  0
 16 17  1  0
 17 18  1  0
 18 19  1  0
 19 20  2  0
 19 21  1  0
 21 22  1  0
 21 23  1  0
 16 24  2  0
 24  7  1  0
 24 10  1  0
  1 25  1  0
  1 26  1  0
  1 27  1  0
  4 28  1  0
  5 29  1  0
  5 30  1  0
  6 31  1  0
  6 32  1  0
  8 33  1  0
  9 34  1  0
 13 35  1  0
 18 36  1  0
 18 37  1  0
 22 38  1  0
 22 39  1  0
 22 40  1  0
 23 41  1  0
 23 42  1  0
 23 43  1  0
M  END
>  <Energy>  (1024) 
177.19775398123525

>  <compound_id>  (1024) 
1338

>  <target_id>  (1024) 
1

>  <reference_id>  (1024) 
94

>  <inspiration_ids>  (1024) 
[94, 101]

>  <energy_score>  (1024) 
113.57473243756075

>  <distance_score>  (1024) 
2.583833510324457

>  <path>  (1024) 
/opt/xchem-fragalysis-2/maxwin/BulkDock/SCRATCH/505733/C1338-P94/C1338-P94.minimised.mol

>  <scratch_subdir>  (1024) 
/opt/xchem-fragalysis-2/maxwin/BulkDock/SCRATCH/505733/C1338-P94

>  <fragmenstein_runtime>  (1024) 
10.412567853927612

>  <fragmenstein_outcome>  (1024) 
too moved

>  <fragmenstein_mode>  (1024) 
expansion

>  <fragmenstein_error>  (1024) 


$$$$
C1338-P101
     RDKit          3D

 43 44  0  0  0  0  0  0  0  0999 V2000
   -8.9849  -27.7611   31.1938 C   0  0  0  0  0  0  0  0  0  0  0  0
   -9.7103  -26.6043   30.6419 C   0  0  0  0  0  0  0  0  0  0  0  0
  -10.0648  -26.6807   29.4983 O   0  0  0  0  0  0  0  0  0  0  0  0
   -9.9527  -25.5964   31.6359 N   0  0  0  0  0  0  0  0  0  0  0  0
  -10.7780  -24.4148   31.5997 C   0  0  0  0  0  0  0  0  0  0  0  0
  -11.3822  -24.4674   30.2272 C   0  0  0  0  0  0  0  0  0  0  0  0
  -12.3948  -23.5030   29.7097 C   0  0  0  0  0  0  0  0  0  0  0  0
  -12.1231  -22.1590   29.9234 C   0  0  0  0  0  0  0  0  0  0  0  0
  -11.3840  -21.9207   28.7852 N   0  0  0  0  0  0  0  0  0  0  0  0
  -11.6099  -22.9360   27.8999 C   0  0  0  0  0  0  0  0  0  0  0  0
  -10.8633  -23.6531   27.0167 C   0  0  0  0  0  0  0  0  0  0  0  0
   -9.5973  -23.9449   27.2775 F   0  0  0  0  0  0  0  0  0  0  0  0
  -11.5148  -23.9584   25.8563 C   0  0  0  0  0  0  0  0  0  0  0  0
  -12.8538  -24.1434   25.9845 C   0  0  0  0  0  0  0  0  0  0  0  0
  -13.6007  -24.3650   24.8996 F   0  0  0  0  0  0  0  0  0  0  0  0
  -13.3229  -24.4378   27.2705 C   0  0  0  0  0  0  0  0  0  0  0  0
  -14.4325  -25.2747   27.4176 O   0  0  0  0  0  0  0  0  0  0  0  0
  -14.6632  -26.2591   26.3653 C   0  0  0  0  0  0  0  0  0  0  0  0
  -13.4159  -26.8201   25.6277 C   0  0  0  0  0  0  0  0  0  0  0  0
  -13.4291  -27.0935   24.4580 O   0  0  0  0  0  0  0  0  0  0  0  0
  -12.3474  -26.8231   26.5669 N   0  0  0  0  0  0  0  0  0  0  0  0
  -12.2537  -28.1476   27.2355 C   0  0  0  0  0  0  0  0  0  0  0  0
  -10.9170  -27.0504   26.3852 C   0  0  0  0  0  0  0  0  0  0  0  0
  -12.7311  -23.6295   28.3130 C   0  0  0  0  0  0  0  0  0  0  0  0
   -9.6199  -28.4236   31.7742 H   0  0  0  0  0  0  0  0  0  0  0  0
   -8.0767  -27.5172   31.6878 H   0  0  0  0  0  0  0  0  0  0  0  0
   -8.6054  -28.2658   30.3419 H   0  0  0  0  0  0  0  0  0  0  0  0
   -9.4210  -25.8258   32.4798 H   0  0  0  0  0  0  0  0  0  0  0  0
  -11.5348  -24.5085   32.3835 H   0  0  0  0  0  0  0  0  0  0  0  0
  -10.1849  -23.5385   31.8285 H   0  0  0  0  0  0  0  0  0  0  0  0
  -10.5067  -24.3795   29.5688 H   0  0  0  0  0  0  0  0  0  0  0  0
  -11.7473  -25.4391   29.9545 H   0  0  0  0  0  0  0  0  0  0  0  0
  -11.8760  -21.6099   30.8218 H   0  0  0  0  0  0  0  0  0  0  0  0
  -10.7346  -21.1576   28.6419 H   0  0  0  0  0  0  0  0  0  0  0  0
  -10.9955  -24.1546   24.9328 H   0  0  0  0  0  0  0  0  0  0  0  0
  -15.2083  -27.1016   26.8035 H   0  0  0  0  0  0  0  0  0  0  0  0
  -15.3298  -25.7977   25.6274 H   0  0  0  0  0  0  0  0  0  0  0  0
  -13.2783  -28.5398   27.2978 H   0  0  0  0  0  0  0  0  0  0  0  0
  -11.8656  -28.0287   28.2509 H   0  0  0  0  0  0  0  0  0  0  0  0
  -11.8118  -29.0154   26.7676 H   0  0  0  0  0  0  0  0  0  0  0  0
  -10.4764  -27.9096   25.8958 H   0  0  0  0  0  0  0  0  0  0  0  0
  -10.3395  -26.6961   27.2400 H   0  0  0  0  0  0  0  0  0  0  0  0
  -10.7152  -26.3304   25.5919 H   0  0  0  0  0  0  0  0  0  0  0  0
  1  2  1  0
  2  3  2  0
  2  4  1  0
  4  5  1  0
  5  6  1  0
  6  7  1  0
  7  8  2  0
  8  9  1  0
  9 10  1  0
 10 11  2  0
 11 12  1  0
 11 13  1  0
 13 14  2  0
 14 15  1  0
 14 16  1  0
 16 17  1  0
 17 18  1  0
 18 19  1  0
 19 20  2  0
 19 21  1  0
 21 22  1  0
 21 23  1  0
 16 24  2  0
 24  7  1  0
 24 10  1  0
  1 25  1  0
  1 26  1  0
  1 27  1  0
  4 28  1  0
  5 29  1  0
  5 30  1  0
  6 31  1  0
  6 32  1  0
  8 33  1  0
  9 34  1  0
 13 35  1  0
 18 36  1  0
 18 37  1  0
 22 38  1  0
 22 39  1  0
 22 40  1  0
 23 41  1  0
 23 42  1  0
 23 43  1  0
M  END
>  <Energy>  (1025) 
277.00894802336785

>  <compound_id>  (1025) 
1338

>  <target_id>  (1025) 
1

>  <reference_id>  (1025) 
101

>  <inspiration_ids>  (1025) 
[94, 101]

>  <energy_score>  (1025) 
213.38592647969452

>  <distance_score>  (1025) 
3.94942873828991

>  <path>  (1025) 
/opt/xchem-fragalysis-2/maxwin/BulkDock/SCRATCH/505733/C1338-P101/C1338-P101.minimised.mol

>  <scratch_subdir>  (1025) 
/opt/xchem-fragalysis-2/maxwin/BulkDock/SCRATCH/505733/C1338-P101

>  <fragmenstein_runtime>  (1025) 
8.453084707260132

>  <fragmenstein_outcome>  (1025) 
too moved

>  <fragmenstein_mode>  (1025) 
expansion

>  <fragmenstein_error>  (1025) 


$$$$
C1340-P94
     RDKit          3D

 39 40  0  0  0  0  0  0  0  0999 V2000
  -13.4487  -24.3275   25.4958 C   0  0  0  0  0  0  0  0  0  0  0  0
  -13.2831  -25.7429   25.9625 C   0  0  0  0  0  0  0  0  0  0  0  0
  -11.6217  -26.1805   26.4016 S   0  0  0  0  0  0  0  0  0  0  0  0
  -10.9653  -26.5896   25.1740 O   0  0  0  0  0  0  0  0  0  0  0  0
  -11.6912  -27.0803   27.5367 O   0  0  0  0  0  0  0  0  0  0  0  0
  -11.0158  -24.7132   26.8163 O   0  0  0  0  0  0  0  0  0  0  0  0
  -11.2404  -24.1485   28.0362 C   0  0  0  0  0  0  0  0  0  0  0  0
  -11.5266  -22.7927   28.1255 C   0  0  0  0  0  0  0  0  0  0  0  0
  -11.8401  -22.1618   29.3466 C   0  0  0  0  0  0  0  0  0  0  0  0
  -11.8381  -22.9445   30.4927 C   0  0  0  0  0  0  0  0  0  0  0  0
  -12.0924  -22.6884   31.8225 N   0  0  0  0  0  0  0  0  0  0  0  0
  -11.8169  -23.8004   32.5787 C   0  0  0  0  0  0  0  0  0  0  0  0
  -11.4149  -24.7827   31.7081 C   0  0  0  0  0  0  0  0  0  0  0  0
  -10.8086  -26.1042   31.8729 C   0  0  0  0  0  0  0  0  0  0  0  0
   -9.3186  -25.8715   31.6497 C   0  0  0  0  0  0  0  0  0  0  0  0
   -8.6965  -25.5190   32.8835 N   0  0  0  0  0  0  0  0  0  0  0  0
   -9.2755  -25.4231   34.2980 C   0  0  0  0  0  0  0  0  0  0  0  0
   -8.2093  -25.2423   35.3948 C   0  0  0  0  0  0  0  0  0  0  0  0
  -10.3707  -25.5408   34.6750 O   0  0  0  0  0  0  0  0  0  0  0  0
  -11.4840  -24.2732   30.4075 C   0  0  0  0  0  0  0  0  0  0  0  0
  -11.1410  -24.8717   29.1898 C   0  0  0  0  0  0  0  0  0  0  0  0
  -12.6007  -23.9438   24.9302 H   0  0  0  0  0  0  0  0  0  0  0  0
  -14.3669  -24.2051   24.9145 H   0  0  0  0  0  0  0  0  0  0  0  0
  -13.5020  -23.6629   26.3434 H   0  0  0  0  0  0  0  0  0  0  0  0
  -13.9229  -25.9440   26.8260 H   0  0  0  0  0  0  0  0  0  0  0  0
  -13.5888  -26.4105   25.1547 H   0  0  0  0  0  0  0  0  0  0  0  0
  -11.5407  -22.1968   27.2191 H   0  0  0  0  0  0  0  0  0  0  0  0
  -12.0697  -21.1102   29.3697 H   0  0  0  0  0  0  0  0  0  0  0  0
  -12.4101  -21.8099   32.2006 H   0  0  0  0  0  0  0  0  0  0  0  0
  -11.9155  -23.7869   33.6564 H   0  0  0  0  0  0  0  0  0  0  0  0
  -11.0318  -26.5869   32.8131 H   0  0  0  0  0  0  0  0  0  0  0  0
  -11.1911  -26.8047   31.1206 H   0  0  0  0  0  0  0  0  0  0  0  0
   -8.9181  -26.8280   31.3269 H   0  0  0  0  0  0  0  0  0  0  0  0
   -9.0422  -25.1297   30.9025 H   0  0  0  0  0  0  0  0  0  0  0  0
   -7.6965  -25.4462   32.9255 H   0  0  0  0  0  0  0  0  0  0  0  0
   -7.3644  -25.9208   35.2793 H   0  0  0  0  0  0  0  0  0  0  0  0
   -8.6289  -25.4843   36.3453 H   0  0  0  0  0  0  0  0  0  0  0  0
   -7.8966  -24.2334   35.6055 H   0  0  0  0  0  0  0  0  0  0  0  0
  -10.7841  -25.8925   29.1858 H   0  0  0  0  0  0  0  0  0  0  0  0
  1  2  1  0
  2  3  1  0
  3  4  2  0
  3  5  2  0
  3  6  1  0
  6  7  1  0
  7  8  2  0
  8  9  1  0
  9 10  2  0
 10 11  1  0
 11 12  1  0
 12 13  2  0
 13 14  1  0
 14 15  1  0
 15 16  1  0
 16 17  1  0
 17 18  1  0
 17 19  2  0
 13 20  1  0
 20 21  2  0
 21  7  1  0
 20 10  1  0
  1 22  1  0
  1 23  1  0
  1 24  1  0
  2 25  1  0
  2 26  1  0
  8 27  1  0
  9 28  1  0
 11 29  1  0
 12 30  1  0
 14 31  1  0
 14 32  1  0
 15 33  1  0
 15 34  1  0
 16 35  1  0
 18 36  1  0
 18 37  1  0
 18 38  1  0
 21 39  1  0
M  END
>  <Energy>  (1026) 
54.966889606437917

>  <compound_id>  (1026) 
1340

>  <target_id>  (1026) 
1

>  <reference_id>  (1026) 
94

>  <inspiration_ids>  (1026) 
[94, 110]

>  <energy_score>  (1026) 
8.741535401912358

>  <distance_score>  (1026) 
1.534392465807804

>  <path>  (1026) 
/opt/xchem-fragalysis-2/maxwin/BulkDock/SCRATCH/505733/C1340-P94/C1340-P94.minimised.mol

>  <scratch_subdir>  (1026) 
/opt/xchem-fragalysis-2/maxwin/BulkDock/SCRATCH/505733/C1340-P94

>  <fragmenstein_runtime>  (1026) 
4.76361346244812

>  <fragmenstein_outcome>  (1026) 
too moved

>  <fragmenstein_mode>  (1026) 
expansion

>  <fragmenstein_error>  (1026) 


$$$$
C1340-P110
     RDKit          3D

 39 40  0  0  0  0  0  0  0  0999 V2000
  -14.0926  -25.1479   26.2706 C   0  0  0  0  0  0  0  0  0  0  0  0
  -13.3069  -26.2862   25.6807 C   0  0  0  0  0  0  0  0  0  0  0  0
  -11.6954  -26.5422   26.3680 S   0  0  0  0  0  0  0  0  0  0  0  0
  -10.8696  -27.0802   25.3071 O   0  0  0  0  0  0  0  0  0  0  0  0
  -11.9041  -27.2606   27.6096 O   0  0  0  0  0  0  0  0  0  0  0  0
  -11.2334  -24.9856   26.5900 O   0  0  0  0  0  0  0  0  0  0  0  0
  -11.2389  -24.3699   27.8046 C   0  0  0  0  0  0  0  0  0  0  0  0
  -11.5286  -23.0176   27.8583 C   0  0  0  0  0  0  0  0  0  0  0  0
  -11.6889  -22.2979   29.0571 C   0  0  0  0  0  0  0  0  0  0  0  0
  -11.5926  -23.0177   30.2256 C   0  0  0  0  0  0  0  0  0  0  0  0
  -11.7510  -22.6825   31.5500 N   0  0  0  0  0  0  0  0  0  0  0  0
  -11.5437  -23.7876   32.3292 C   0  0  0  0  0  0  0  0  0  0  0  0
  -11.1992  -24.8188   31.4862 C   0  0  0  0  0  0  0  0  0  0  0  0
  -10.7017  -26.1841   31.6781 C   0  0  0  0  0  0  0  0  0  0  0  0
   -9.2035  -25.9882   31.5511 C   0  0  0  0  0  0  0  0  0  0  0  0
   -8.7036  -25.5779   32.8249 N   0  0  0  0  0  0  0  0  0  0  0  0
   -9.4324  -25.4085   34.1893 C   0  0  0  0  0  0  0  0  0  0  0  0
   -8.5018  -25.1807   35.3777 C   0  0  0  0  0  0  0  0  0  0  0  0
  -10.5673  -25.5042   34.4599 O   0  0  0  0  0  0  0  0  0  0  0  0
  -11.2395  -24.3486   30.1740 C   0  0  0  0  0  0  0  0  0  0  0  0
  -10.9615  -25.0095   28.9720 C   0  0  0  0  0  0  0  0  0  0  0  0
  -13.6470  -24.1828   26.0153 H   0  0  0  0  0  0  0  0  0  0  0  0
  -15.1131  -25.1472   25.8740 H   0  0  0  0  0  0  0  0  0  0  0  0
  -14.1552  -25.2305   27.3585 H   0  0  0  0  0  0  0  0  0  0  0  0
  -13.8645  -27.2127   25.8384 H   0  0  0  0  0  0  0  0  0  0  0  0
  -13.1969  -26.1519   24.6100 H   0  0  0  0  0  0  0  0  0  0  0  0
  -11.6371  -22.4940   26.9183 H   0  0  0  0  0  0  0  0  0  0  0  0
  -11.8910  -21.2411   29.0649 H   0  0  0  0  0  0  0  0  0  0  0  0
  -12.0428  -21.7844   31.9021 H   0  0  0  0  0  0  0  0  0  0  0  0
  -11.6892  -23.7408   33.3978 H   0  0  0  0  0  0  0  0  0  0  0  0
  -11.0343  -26.6559   32.5963 H   0  0  0  0  0  0  0  0  0  0  0  0
  -11.0564  -26.8635   30.8953 H   0  0  0  0  0  0  0  0  0  0  0  0
   -8.7292  -26.9215   31.2442 H   0  0  0  0  0  0  0  0  0  0  0  0
   -8.8724  -25.2454   30.8224 H   0  0  0  0  0  0  0  0  0  0  0  0
   -7.7209  -25.5078   32.9616 H   0  0  0  0  0  0  0  0  0  0  0  0
   -7.6713  -25.8805   35.4272 H   0  0  0  0  0  0  0  0  0  0  0  0
   -9.0483  -25.3332   36.2779 H   0  0  0  0  0  0  0  0  0  0  0  0
   -8.1809  -24.1626   35.5282 H   0  0  0  0  0  0  0  0  0  0  0  0
  -10.5988  -26.0289   28.9887 H   0  0  0  0  0  0  0  0  0  0  0  0
  1  2  1  0
  2  3  1  0
  3  4  2  0
  3  5  2  0
  3  6  1  0
  6  7  1  0
  7  8  2  0
  8  9  1  0
  9 10  2  0
 10 11  1  0
 11 12  1  0
 12 13  2  0
 13 14  1  0
 14 15  1  0
 15 16  1  0
 16 17  1  0
 17 18  1  0
 17 19  2  0
 13 20  1  0
 20 21  2  0
 21  7  1  0
 20 10  1  0
  1 22  1  0
  1 23  1  0
  1 24  1  0
  2 25  1  0
  2 26  1  0
  8 27  1  0
  9 28  1  0
 11 29  1  0
 12 30  1  0
 14 31  1  0
 14 32  1  0
 15 33  1  0
 15 34  1  0
 16 35  1  0
 18 36  1  0
 18 37  1  0
 18 38  1  0
 21 39  1  0
M  END
>  <Energy>  (1027) 
61.725490460795754

>  <compound_id>  (1027) 
1340

>  <target_id>  (1027) 
1

>  <reference_id>  (1027) 
110

>  <inspiration_ids>  (1027) 
[94, 110]

>  <energy_score>  (1027) 
15.50013625627389

>  <distance_score>  (1027) 
1.4330392563269878

>  <path>  (1027) 
/opt/xchem-fragalysis-2/maxwin/BulkDock/SCRATCH/505733/C1340-P110/C1340-P110.minimised.mol

>  <scratch_subdir>  (1027) 
/opt/xchem-fragalysis-2/maxwin/BulkDock/SCRATCH/505733/C1340-P110

>  <fragmenstein_runtime>  (1027) 
3.227506637573242

>  <fragmenstein_outcome>  (1027) 
too moved

>  <fragmenstein_mode>  (1027) 
expansion

>  <fragmenstein_error>  (1027) 


$$$$
C1342-P94
     RDKit          3D

 29 30  0  0  0  0  0  0  0  0999 V2000
  -11.7218  -23.3285   27.1797 C   0  0  0  0  0  0  0  0  0  0  0  0
  -11.3552  -22.5244   28.4145 C   0  0  0  0  0  0  0  0  0  0  0  0
  -10.4288  -21.8362   28.3697 O   0  0  0  0  0  0  0  0  0  0  0  0
  -12.2734  -22.8662   29.5770 N   0  0  0  0  0  0  0  0  0  0  0  0
  -12.3067  -22.3579   30.9245 C   0  0  0  0  0  0  0  0  0  0  0  0
  -11.3627  -22.9782   31.9554 C   0  0  0  0  0  0  0  0  0  0  0  0
  -11.0715  -24.4378   31.8444 C   0  0  0  0  0  0  0  0  0  0  0  0
  -11.0057  -25.2915   32.9213 C   0  0  0  0  0  0  0  0  0  0  0  0
  -10.9208  -26.5611   32.4195 N   0  0  0  0  0  0  0  0  0  0  0  0
  -11.1999  -26.5603   31.0897 C   0  0  0  0  0  0  0  0  0  0  0  0
  -11.6739  -27.4792   30.1394 C   0  0  0  0  0  0  0  0  0  0  0  0
  -12.9687  -29.3802   30.4876 I   0  0  0  0  0  0  0  0  0  0  0  0
  -11.5810  -27.1490   28.7919 C   0  0  0  0  0  0  0  0  0  0  0  0
  -10.8274  -26.0717   28.4313 C   0  0  0  0  0  0  0  0  0  0  0  0
  -10.5161  -25.9321   27.1384 F   0  0  0  0  0  0  0  0  0  0  0  0
  -10.4257  -25.1349   29.3672 C   0  0  0  0  0  0  0  0  0  0  0  0
  -10.8113  -25.2756   30.7060 C   0  0  0  0  0  0  0  0  0  0  0  0
  -12.4652  -24.1028   27.3311 H   0  0  0  0  0  0  0  0  0  0  0  0
  -10.8103  -23.8175   26.8307 H   0  0  0  0  0  0  0  0  0  0  0  0
  -12.0040  -22.6914   26.3570 H   0  0  0  0  0  0  0  0  0  0  0  0
  -13.0415  -23.4414   29.2438 H   0  0  0  0  0  0  0  0  0  0  0  0
  -13.3373  -22.3437   31.2777 H   0  0  0  0  0  0  0  0  0  0  0  0
  -11.9820  -21.3230   30.8399 H   0  0  0  0  0  0  0  0  0  0  0  0
  -11.7825  -22.7664   32.9486 H   0  0  0  0  0  0  0  0  0  0  0  0
  -10.4255  -22.4292   31.9416 H   0  0  0  0  0  0  0  0  0  0  0  0
  -11.0520  -25.1133   33.9865 H   0  0  0  0  0  0  0  0  0  0  0  0
  -10.6445  -27.3720   32.9524 H   0  0  0  0  0  0  0  0  0  0  0  0
  -11.9676  -27.8009   28.0268 H   0  0  0  0  0  0  0  0  0  0  0  0
   -9.8572  -24.3006   29.0023 H   0  0  0  0  0  0  0  0  0  0  0  0
  1  2  1  0
  2  3  2  0
  2  4  1  0
  4  5  1  0
  5  6  1  0
  6  7  1  0
  7  8  2  0
  8  9  1  0
  9 10  1  0
 10 11  2  0
 11 12  1  0
 11 13  1  0
 13 14  2  0
 14 15  1  0
 14 16  1  0
 16 17  2  0
 17  7  1  0
 17 10  1  0
  1 18  1  0
  1 19  1  0
  1 20  1  0
  4 21  1  0
  5 22  1  0
  5 23  1  0
  6 24  1  0
  6 25  1  0
  8 26  1  0
  9 27  1  0
 13 28  1  0
 16 29  1  0
M  END
>  <Energy>  (1028) 
58.964462262585975

>  <compound_id>  (1028) 
1342

>  <target_id>  (1028) 
1

>  <reference_id>  (1028) 
94

>  <inspiration_ids>  (1028) 
[94, 119]

>  <energy_score>  (1028) 
50.42251258488689

>  <distance_score>  (1028) 
2.2673748129345954

>  <path>  (1028) 
/opt/xchem-fragalysis-2/maxwin/BulkDock/SCRATCH/505733/C1342-P94/C1342-P94.minimised.mol

>  <scratch_subdir>  (1028) 
/opt/xchem-fragalysis-2/maxwin/BulkDock/SCRATCH/505733/C1342-P94

>  <fragmenstein_runtime>  (1028) 
5.069254636764526

>  <fragmenstein_outcome>  (1028) 
too moved

>  <fragmenstein_mode>  (1028) 
expansion

>  <fragmenstein_error>  (1028) 


$$$$
C1342-P119
     RDKit          3D

 29 30  0  0  0  0  0  0  0  0999 V2000
  -12.2522  -22.7596   27.1881 C   0  0  0  0  0  0  0  0  0  0  0  0
  -11.7503  -21.6940   28.1725 C   0  0  0  0  0  0  0  0  0  0  0  0
  -11.0908  -20.8146   27.7950 O   0  0  0  0  0  0  0  0  0  0  0  0
  -12.2774  -22.0122   29.5871 N   0  0  0  0  0  0  0  0  0  0  0  0
  -12.0222  -21.3633   30.8497 C   0  0  0  0  0  0  0  0  0  0  0  0
  -10.8879  -21.9151   31.7258 C   0  0  0  0  0  0  0  0  0  0  0  0
  -10.3861  -23.2980   31.4644 C   0  0  0  0  0  0  0  0  0  0  0  0
   -9.8741  -24.1362   32.4181 C   0  0  0  0  0  0  0  0  0  0  0  0
   -9.9148  -25.4061   31.9064 N   0  0  0  0  0  0  0  0  0  0  0  0
  -10.3944  -25.3846   30.6137 C   0  0  0  0  0  0  0  0  0  0  0  0
  -10.8762  -26.3203   29.6563 C   0  0  0  0  0  0  0  0  0  0  0  0
  -11.7107  -28.3045   29.8874 I   0  0  0  0  0  0  0  0  0  0  0  0
  -10.8129  -25.9412   28.3248 C   0  0  0  0  0  0  0  0  0  0  0  0
  -10.2499  -24.7387   27.9881 C   0  0  0  0  0  0  0  0  0  0  0  0
  -10.1669  -24.4715   26.6834 F   0  0  0  0  0  0  0  0  0  0  0  0
   -9.9399  -23.7638   28.9294 C   0  0  0  0  0  0  0  0  0  0  0  0
  -10.1791  -24.0458   30.2713 C   0  0  0  0  0  0  0  0  0  0  0  0
  -11.4767  -22.9067   26.4366 H   0  0  0  0  0  0  0  0  0  0  0  0
  -13.1136  -22.4754   26.5966 H   0  0  0  0  0  0  0  0  0  0  0  0
  -12.5233  -23.6935   27.6799 H   0  0  0  0  0  0  0  0  0  0  0  0
  -12.7559  -22.9041   29.5772 H   0  0  0  0  0  0  0  0  0  0  0  0
  -12.9623  -21.3888   31.4105 H   0  0  0  0  0  0  0  0  0  0  0  0
  -11.8085  -20.3116   30.6350 H   0  0  0  0  0  0  0  0  0  0  0  0
  -11.2366  -21.8635   32.7676 H   0  0  0  0  0  0  0  0  0  0  0  0
  -10.0491  -21.2207   31.7059 H   0  0  0  0  0  0  0  0  0  0  0  0
   -9.5717  -23.9454   33.4367 H   0  0  0  0  0  0  0  0  0  0  0  0
   -9.6430  -26.2150   32.4437 H   0  0  0  0  0  0  0  0  0  0  0  0
  -11.1318  -26.5957   27.5250 H   0  0  0  0  0  0  0  0  0  0  0  0
   -9.5817  -22.7893   28.6175 H   0  0  0  0  0  0  0  0  0  0  0  0
  1  2  1  0
  2  3  2  0
  2  4  1  0
  4  5  1  0
  5  6  1  0
  6  7  1  0
  7  8  2  0
  8  9  1  0
  9 10  1  0
 10 11  2  0
 11 12  1  0
 11 13  1  0
 13 14  2  0
 14 15  1  0
 14 16  1  0
 16 17  2  0
 17  7  1  0
 17 10  1  0
  1 18  1  0
  1 19  1  0
  1 20  1  0
  4 21  1  0
  5 22  1  0
  5 23  1  0
  6 24  1  0
  6 25  1  0
  8 26  1  0
  9 27  1  0
 13 28  1  0
 16 29  1  0
M  END
>  <Energy>  (1029) 
62.077291880806357

>  <compound_id>  (1029) 
1342

>  <target_id>  (1029) 
1

>  <reference_id>  (1029) 
119

>  <inspiration_ids>  (1029) 
[94, 119]

>  <energy_score>  (1029) 
53.53534220310645

>  <distance_score>  (1029) 
2.1110684987423225

>  <path>  (1029) 
/opt/xchem-fragalysis-2/maxwin/BulkDock/SCRATCH/505733/C1342-P119/C1342-P119.minimised.mol

>  <scratch_subdir>  (1029) 
/opt/xchem-fragalysis-2/maxwin/BulkDock/SCRATCH/505733/C1342-P119

>  <fragmenstein_runtime>  (1029) 
4.505971193313599

>  <fragmenstein_outcome>  (1029) 
too moved

>  <fragmenstein_mode>  (1029) 
expansion

>  <fragmenstein_error>  (1029) 


$$$$
C1343-P94
     RDKit          3D

 32 33  0  0  0  0  0  0  0  0999 V2000
  -10.1226  -29.6895   32.6494 C   0  0  0  0  0  0  0  0  0  0  0  0
   -9.7219  -28.4996   31.7204 C   0  0  0  0  0  0  0  0  0  0  0  0
   -8.6386  -28.3395   31.3529 O   0  0  0  0  0  0  0  0  0  0  0  0
  -10.9345  -27.6618   31.5420 N   0  0  0  0  0  0  0  0  0  0  0  0
  -11.0859  -26.4422   30.9805 C   0  0  0  0  0  0  0  0  0  0  0  0
  -10.7143  -25.4679   32.0819 C   0  0  0  0  0  0  0  0  0  0  0  0
  -11.2121  -24.1715   31.7026 C   0  0  0  0  0  0  0  0  0  0  0  0
  -11.7062  -23.1925   32.5232 C   0  0  0  0  0  0  0  0  0  0  0  0
  -12.0879  -22.1753   31.7054 N   0  0  0  0  0  0  0  0  0  0  0  0
  -11.8290  -22.4933   30.3937 C   0  0  0  0  0  0  0  0  0  0  0  0
  -11.9398  -21.7757   29.2199 C   0  0  0  0  0  0  0  0  0  0  0  0
  -11.5783  -22.3714   28.0061 C   0  0  0  0  0  0  0  0  0  0  0  0
  -11.1502  -23.6592   27.9344 C   0  0  0  0  0  0  0  0  0  0  0  0
  -10.7864  -24.2267   26.7276 O   0  0  0  0  0  0  0  0  0  0  0  0
  -11.7400  -25.1074   26.2793 C   0  0  0  0  0  0  0  0  0  0  0  0
  -11.5561  -25.8628   25.3344 O   0  0  0  0  0  0  0  0  0  0  0  0
  -10.9481  -24.3418   29.1005 C   0  0  0  0  0  0  0  0  0  0  0  0
  -11.3167  -23.7710   30.3508 C   0  0  0  0  0  0  0  0  0  0  0  0
   -9.3290  -30.4133   32.8590 H   0  0  0  0  0  0  0  0  0  0  0  0
  -10.1911  -29.3476   33.6713 H   0  0  0  0  0  0  0  0  0  0  0  0
  -11.0305  -30.1583   32.2615 H   0  0  0  0  0  0  0  0  0  0  0  0
  -11.6847  -28.0555   32.0574 H   0  0  0  0  0  0  0  0  0  0  0  0
  -10.2565  -26.4599   30.2744 H   0  0  0  0  0  0  0  0  0  0  0  0
  -11.9883  -26.3528   30.4262 H   0  0  0  0  0  0  0  0  0  0  0  0
   -9.6240  -25.4243   32.2071 H   0  0  0  0  0  0  0  0  0  0  0  0
  -11.1203  -25.7572   33.0549 H   0  0  0  0  0  0  0  0  0  0  0  0
  -11.8429  -23.1458   33.5956 H   0  0  0  0  0  0  0  0  0  0  0  0
  -12.4819  -21.3109   32.0352 H   0  0  0  0  0  0  0  0  0  0  0  0
  -12.2822  -20.7610   29.2097 H   0  0  0  0  0  0  0  0  0  0  0  0
  -11.6066  -21.8039   27.0891 H   0  0  0  0  0  0  0  0  0  0  0  0
  -12.6779  -25.0739   26.8551 H   0  0  0  0  0  0  0  0  0  0  0  0
  -10.4261  -25.2764   28.9731 H   0  0  0  0  0  0  0  0  0  0  0  0
  1  2  1  0
  2  3  2  0
  2  4  1  0
  4  5  1  0
  5  6  1  0
  6  7  1  0
  7  8  2  0
  8  9  1  0
  9 10  1  0
 10 11  2  0
 11 12  1  0
 12 13  2  0
 13 14  1  0
 14 15  1  0
 15 16  2  0
 13 17  1  0
 17 18  2  0
 18  7  1  0
 18 10  1  0
  1 19  1  0
  1 20  1  0
  1 21  1  0
  4 22  1  0
  5 23  1  0
  5 24  1  0
  6 25  1  0
  6 26  1  0
  8 27  1  0
  9 28  1  0
 11 29  1  0
 12 30  1  0
 15 31  1  0
 17 32  1  0
M  END
>  <Energy>  (1030) 
58.181507322278307

>  <compound_id>  (1030) 
1343

>  <target_id>  (1030) 
1

>  <reference_id>  (1030) 
94

>  <inspiration_ids>  (1030) 
[94, 123]

>  <energy_score>  (1030) 
25.721298604145005

>  <distance_score>  (1030) 
1.9135886982236487

>  <path>  (1030) 
/opt/xchem-fragalysis-2/maxwin/BulkDock/SCRATCH/505733/C1343-P94/C1343-P94.minimised.mol

>  <scratch_subdir>  (1030) 
/opt/xchem-fragalysis-2/maxwin/BulkDock/SCRATCH/505733/C1343-P94

>  <fragmenstein_runtime>  (1030) 
4.161941289901733

>  <fragmenstein_outcome>  (1030) 
too moved

>  <fragmenstein_mode>  (1030) 
expansion

>  <fragmenstein_error>  (1030) 


$$$$
C1343-P123
     RDKit          3D

 32 33  0  0  0  0  0  0  0  0999 V2000
  -10.2236  -29.6677   32.9750 C   0  0  0  0  0  0  0  0  0  0  0  0
   -9.9352  -28.5086   31.9223 C   0  0  0  0  0  0  0  0  0  0  0  0
   -8.8730  -28.2399   31.5505 O   0  0  0  0  0  0  0  0  0  0  0  0
  -11.2551  -27.8534   31.6515 N   0  0  0  0  0  0  0  0  0  0  0  0
  -11.5582  -26.6998   30.9623 C   0  0  0  0  0  0  0  0  0  0  0  0
  -10.7850  -25.6828   31.8234 C   0  0  0  0  0  0  0  0  0  0  0  0
  -11.2659  -24.3616   31.5293 C   0  0  0  0  0  0  0  0  0  0  0  0
  -11.8147  -23.4299   32.3687 C   0  0  0  0  0  0  0  0  0  0  0  0
  -12.2064  -22.3942   31.5750 N   0  0  0  0  0  0  0  0  0  0  0  0
  -11.9130  -22.6692   30.2581 C   0  0  0  0  0  0  0  0  0  0  0  0
  -12.0618  -21.9369   29.0955 C   0  0  0  0  0  0  0  0  0  0  0  0
  -11.7488  -22.5520   27.8740 C   0  0  0  0  0  0  0  0  0  0  0  0
  -11.2376  -23.8267   27.8146 C   0  0  0  0  0  0  0  0  0  0  0  0
  -10.9801  -24.4226   26.5876 O   0  0  0  0  0  0  0  0  0  0  0  0
  -11.8589  -25.4565   26.3487 C   0  0  0  0  0  0  0  0  0  0  0  0
  -11.7303  -26.2722   25.4428 O   0  0  0  0  0  0  0  0  0  0  0  0
  -10.9115  -24.4794   28.9801 C   0  0  0  0  0  0  0  0  0  0  0  0
  -11.3298  -23.9173   30.2045 C   0  0  0  0  0  0  0  0  0  0  0  0
   -9.4465  -30.3846   33.2242 H   0  0  0  0  0  0  0  0  0  0  0  0
  -10.3182  -29.2503   33.9691 H   0  0  0  0  0  0  0  0  0  0  0  0
  -11.0810  -30.2587   32.6254 H   0  0  0  0  0  0  0  0  0  0  0  0
  -11.9790  -28.3897   32.0635 H   0  0  0  0  0  0  0  0  0  0  0  0
  -11.1573  -26.8408   29.9619 H   0  0  0  0  0  0  0  0  0  0  0  0
  -12.6128  -26.5157   30.9024 H   0  0  0  0  0  0  0  0  0  0  0  0
   -9.7077  -25.7356   31.6173 H   0  0  0  0  0  0  0  0  0  0  0  0
  -10.9045  -25.8730   32.8977 H   0  0  0  0  0  0  0  0  0  0  0  0
  -12.0034  -23.4339   33.4349 H   0  0  0  0  0  0  0  0  0  0  0  0
  -12.6832  -21.5755   31.9161 H   0  0  0  0  0  0  0  0  0  0  0  0
  -12.4194  -20.9212   29.1170 H   0  0  0  0  0  0  0  0  0  0  0  0
  -11.8683  -22.0051   26.9471 H   0  0  0  0  0  0  0  0  0  0  0  0
  -12.7021  -25.4816   27.0590 H   0  0  0  0  0  0  0  0  0  0  0  0
  -10.3437  -25.4009   28.9295 H   0  0  0  0  0  0  0  0  0  0  0  0
  1  2  1  0
  2  3  2  0
  2  4  1  0
  4  5  1  0
  5  6  1  0
  6  7  1  0
  7  8  2  0
  8  9  1  0
  9 10  1  0
 10 11  2  0
 11 12  1  0
 12 13  2  0
 13 14  1  0
 14 15  1  0
 15 16  2  0
 13 17  1  0
 17 18  2  0
 18  7  1  0
 18 10  1  0
  1 19  1  0
  1 20  1  0
  1 21  1  0
  4 22  1  0
  5 23  1  0
  5 24  1  0
  6 25  1  0
  6 26  1  0
  8 27  1  0
  9 28  1  0
 11 29  1  0
 12 30  1  0
 15 31  1  0
 17 32  1  0
M  END
>  <Energy>  (1031) 
51.763540828927482

>  <compound_id>  (1031) 
1343

>  <target_id>  (1031) 
1

>  <reference_id>  (1031) 
123

>  <inspiration_ids>  (1031) 
[94, 123]

>  <energy_score>  (1031) 
19.30333211079497

>  <distance_score>  (1031) 
1.8606014610296122

>  <path>  (1031) 
/opt/xchem-fragalysis-2/maxwin/BulkDock/SCRATCH/505733/C1343-P123/C1343-P123.minimised.mol

>  <scratch_subdir>  (1031) 
/opt/xchem-fragalysis-2/maxwin/BulkDock/SCRATCH/505733/C1343-P123

>  <fragmenstein_runtime>  (1031) 
3.576092004776001

>  <fragmenstein_outcome>  (1031) 
too moved

>  <fragmenstein_mode>  (1031) 
expansion

>  <fragmenstein_error>  (1031) 


$$$$
C1344-P94
     RDKit          3D

 52 55  0  0  0  0  0  0  0  0999 V2000
  -19.4347  -26.7054   37.7291 C   0  0  0  0  0  0  0  0  0  0  0  0
  -18.8088  -26.5678   36.3562 C   0  0  0  0  0  0  0  0  0  0  0  0
  -19.3012  -27.1371   35.4266 O   0  0  0  0  0  0  0  0  0  0  0  0
  -17.6666  -25.7102   36.4284 N   0  0  0  0  0  0  0  0  0  0  0  0
  -16.6992  -25.3391   35.4286 C   0  0  0  0  0  0  0  0  0  0  0  0
  -17.0686  -24.1129   34.5756 C   0  0  0  0  0  0  0  0  0  0  0  0
  -17.3466  -22.8489   35.3258 C   0  0  0  0  0  0  0  0  0  0  0  0
  -18.3133  -22.7739   36.3095 C   0  0  0  0  0  0  0  0  0  0  0  0
  -18.2444  -21.5585   36.8958 N   0  0  0  0  0  0  0  0  0  0  0  0
  -17.3257  -20.7766   36.2502 C   0  0  0  0  0  0  0  0  0  0  0  0
  -17.0042  -19.4576   36.5703 C   0  0  0  0  0  0  0  0  0  0  0  0
  -16.0586  -18.8360   35.7928 C   0  0  0  0  0  0  0  0  0  0  0  0
  -15.5165  -19.5102   34.7123 C   0  0  0  0  0  0  0  0  0  0  0  0
  -14.6299  -18.8007   33.9976 F   0  0  0  0  0  0  0  0  0  0  0  0
  -15.8633  -20.8446   34.3055 C   0  0  0  0  0  0  0  0  0  0  0  0
  -15.3068  -21.2626   32.9108 C   0  0  0  0  0  0  0  0  0  0  0  0
  -14.0181  -22.1112   32.7834 C   0  0  0  0  0  0  0  0  0  0  0  0
  -13.2680  -22.1022   31.5844 C   0  0  0  0  0  0  0  0  0  0  0  0
  -12.0407  -22.7485   31.3925 C   0  0  0  0  0  0  0  0  0  0  0  0
  -11.5277  -23.5041   32.4192 C   0  0  0  0  0  0  0  0  0  0  0  0
  -12.2728  -23.6118   33.5869 C   0  0  0  0  0  0  0  0  0  0  0  0
  -13.5002  -22.9355   33.7677 C   0  0  0  0  0  0  0  0  0  0  0  0
  -16.2182  -21.2271   31.7127 N   0  0  0  0  0  0  0  0  0  0  0  0
  -17.4090  -20.3676   31.8664 C   0  0  0  0  0  0  0  0  0  0  0  0
  -18.3079  -21.6136   31.9824 C   0  0  0  0  0  0  0  0  0  0  0  0
  -19.4597  -21.6863   31.1104 O   0  0  0  0  0  0  0  0  0  0  0  0
  -17.0651  -22.4065   31.5389 C   0  0  0  0  0  0  0  0  0  0  0  0
  -16.7703  -21.5218   35.1878 C   0  0  0  0  0  0  0  0  0  0  0  0
  -19.3801  -25.7690   38.2914 H   0  0  0  0  0  0  0  0  0  0  0  0
  -18.9261  -27.5020   38.2773 H   0  0  0  0  0  0  0  0  0  0  0  0
  -20.4920  -26.9652   37.6191 H   0  0  0  0  0  0  0  0  0  0  0  0
  -17.4917  -25.4716   37.4025 H   0  0  0  0  0  0  0  0  0  0  0  0
  -15.7416  -25.2030   35.9325 H   0  0  0  0  0  0  0  0  0  0  0  0
  -16.6084  -26.2032   34.7665 H   0  0  0  0  0  0  0  0  0  0  0  0
  -16.2340  -23.9284   33.9052 H   0  0  0  0  0  0  0  0  0  0  0  0
  -17.9461  -24.3540   33.9628 H   0  0  0  0  0  0  0  0  0  0  0  0
  -19.0153  -23.5100   36.6740 H   0  0  0  0  0  0  0  0  0  0  0  0
  -18.8029  -21.2552   37.6813 H   0  0  0  0  0  0  0  0  0  0  0  0
  -17.4693  -18.9388   37.4024 H   0  0  0  0  0  0  0  0  0  0  0  0
  -15.7537  -17.8140   35.9983 H   0  0  0  0  0  0  0  0  0  0  0  0
  -14.8177  -20.3269   32.6510 H   0  0  0  0  0  0  0  0  0  0  0  0
  -13.7368  -21.7064   30.7018 H   0  0  0  0  0  0  0  0  0  0  0  0
  -11.5547  -22.7146   30.4245 H   0  0  0  0  0  0  0  0  0  0  0  0
  -10.6012  -24.0560   32.3045 H   0  0  0  0  0  0  0  0  0  0  0  0
  -11.8978  -24.2645   34.3634 H   0  0  0  0  0  0  0  0  0  0  0  0
  -14.0630  -23.1198   34.6727 H   0  0  0  0  0  0  0  0  0  0  0  0
  -17.6049  -19.7600   30.9780 H   0  0  0  0  0  0  0  0  0  0  0  0
  -17.4570  -19.6820   32.7144 H   0  0  0  0  0  0  0  0  0  0  0  0
  -18.6153  -21.8156   33.0124 H   0  0  0  0  0  0  0  0  0  0  0  0
  -19.8552  -22.5515   31.3159 H   0  0  0  0  0  0  0  0  0  0  0  0
  -17.1198  -22.7314   30.4920 H   0  0  0  0  0  0  0  0  0  0  0  0
  -16.8446  -23.2880   32.1273 H   0  0  0  0  0  0  0  0  0  0  0  0
  1  2  1  0
  2  3  2  0
  2  4  1  0
  4  5  1  0
  5  6  1  0
  6  7  1  0
  7  8  2  0
  8  9  1  0
  9 10  1  0
 10 11  2  0
 11 12  1  0
 12 13  2  0
 13 14  1  0
 13 15  1  0
 15 16  1  0
 16 17  1  0
 17 18  2  0
 18 19  1  0
 19 20  2  0
 20 21  1  0
 21 22  2  0
 16 23  1  0
 23 24  1  0
 24 25  1  0
 25 26  1  0
 25 27  1  0
 15 28  2  0
 28  7  1  0
 28 10  1  0
 22 17  1  0
 27 23  1  0
  1 29  1  0
  1 30  1  0
  1 31  1  0
  4 32  1  0
  5 33  1  0
  5 34  1  0
  6 35  1  0
  6 36  1  0
  8 37  1  0
  9 38  1  0
 11 39  1  0
 12 40  1  0
 16 41  1  0
 18 42  1  0
 19 43  1  0
 20 44  1  0
 21 45  1  0
 22 46  1  0
 24 47  1  0
 24 48  1  0
 25 49  1  0
 26 50  1  0
 27 51  1  0
 27 52  1  0
M  END
>  <Energy>  (1032) 
105.3587084997307

>  <compound_id>  (1032) 
1344

>  <target_id>  (1032) 
1

>  <reference_id>  (1032) 
94

>  <inspiration_ids>  (1032) 
[94, 161]

>  <energy_score>  (1032) 
-50.394489056710995

>  <distance_score>  (1032) 
3.036099941555071

>  <path>  (1032) 
/opt/xchem-fragalysis-2/maxwin/BulkDock/SCRATCH/505733/C1344-P94/C1344-P94.minimised.mol

>  <scratch_subdir>  (1032) 
/opt/xchem-fragalysis-2/maxwin/BulkDock/SCRATCH/505733/C1344-P94

>  <fragmenstein_runtime>  (1032) 
25.93541693687439

>  <fragmenstein_outcome>  (1032) 
too moved

>  <fragmenstein_mode>  (1032) 
expansion

>  <fragmenstein_error>  (1032) 


$$$$
C1344-P161
     RDKit          3D

 52 55  0  0  0  0  0  0  0  0999 V2000
  -18.2909  -26.2580   39.1980 C   0  0  0  0  0  0  0  0  0  0  0  0
  -17.0946  -26.7860   38.4373 C   0  0  0  0  0  0  0  0  0  0  0  0
  -16.4233  -27.6611   38.8192 O   0  0  0  0  0  0  0  0  0  0  0  0
  -17.0216  -25.9631   37.1264 N   0  0  0  0  0  0  0  0  0  0  0  0
  -16.0493  -25.9847   36.0584 C   0  0  0  0  0  0  0  0  0  0  0  0
  -16.1570  -24.8181   35.0731 C   0  0  0  0  0  0  0  0  0  0  0  0
  -15.8909  -23.4407   35.6098 C   0  0  0  0  0  0  0  0  0  0  0  0
  -15.4028  -23.1250   36.8556 C   0  0  0  0  0  0  0  0  0  0  0  0
  -15.3629  -21.7689   36.9878 N   0  0  0  0  0  0  0  0  0  0  0  0
  -16.0471  -21.1934   35.9523 C   0  0  0  0  0  0  0  0  0  0  0  0
  -16.5317  -19.8926   35.8354 C   0  0  0  0  0  0  0  0  0  0  0  0
  -17.1996  -19.5947   34.6634 C   0  0  0  0  0  0  0  0  0  0  0  0
  -17.2078  -20.5077   33.6134 C   0  0  0  0  0  0  0  0  0  0  0  0
  -17.7524  -20.1148   32.4509 F   0  0  0  0  0  0  0  0  0  0  0  0
  -16.6621  -21.8091   33.7027 C   0  0  0  0  0  0  0  0  0  0  0  0
  -16.6859  -22.7192   32.4637 C   0  0  0  0  0  0  0  0  0  0  0  0
  -15.2495  -23.1863   31.9759 C   0  0  0  0  0  0  0  0  0  0  0  0
  -14.1228  -22.3446   32.0103 C   0  0  0  0  0  0  0  0  0  0  0  0
  -12.9487  -22.6224   31.2851 C   0  0  0  0  0  0  0  0  0  0  0  0
  -12.8947  -23.7272   30.4612 C   0  0  0  0  0  0  0  0  0  0  0  0
  -13.9363  -24.6381   30.5088 C   0  0  0  0  0  0  0  0  0  0  0  0
  -15.0688  -24.3937   31.2919 C   0  0  0  0  0  0  0  0  0  0  0  0
  -17.6853  -23.8210   32.6479 N   0  0  0  0  0  0  0  0  0  0  0  0
  -18.4897  -24.1140   31.4206 C   0  0  0  0  0  0  0  0  0  0  0  0
  -19.6781  -24.4076   32.3687 C   0  0  0  0  0  0  0  0  0  0  0  0
  -19.7559  -25.7482   32.9093 O   0  0  0  0  0  0  0  0  0  0  0  0
  -18.9847  -23.3407   33.2478 C   0  0  0  0  0  0  0  0  0  0  0  0
  -16.1948  -22.1852   34.9781 C   0  0  0  0  0  0  0  0  0  0  0  0
  -18.1824  -25.1836   39.3698 H   0  0  0  0  0  0  0  0  0  0  0  0
  -18.3541  -26.7592   40.1684 H   0  0  0  0  0  0  0  0  0  0  0  0
  -19.2070  -26.4597   38.6365 H   0  0  0  0  0  0  0  0  0  0  0  0
  -17.8135  -25.3310   37.0784 H   0  0  0  0  0  0  0  0  0  0  0  0
  -15.0711  -26.0539   36.5322 H   0  0  0  0  0  0  0  0  0  0  0  0
  -16.2180  -26.9200   35.5171 H   0  0  0  0  0  0  0  0  0  0  0  0
  -17.1859  -24.8531   34.7173 H   0  0  0  0  0  0  0  0  0  0  0  0
  -15.4887  -25.0081   34.2296 H   0  0  0  0  0  0  0  0  0  0  0  0
  -15.1062  -23.7593   37.6787 H   0  0  0  0  0  0  0  0  0  0  0  0
  -15.0603  -21.2763   37.8164 H   0  0  0  0  0  0  0  0  0  0  0  0
  -16.4434  -19.1671   36.6368 H   0  0  0  0  0  0  0  0  0  0  0  0
  -17.6746  -18.6272   34.5529 H   0  0  0  0  0  0  0  0  0  0  0  0
  -17.0273  -22.0876   31.6330 H   0  0  0  0  0  0  0  0  0  0  0  0
  -14.1514  -21.4409   32.6125 H   0  0  0  0  0  0  0  0  0  0  0  0
  -12.1006  -21.9445   31.3520 H   0  0  0  0  0  0  0  0  0  0  0  0
  -12.0447  -23.8722   29.8082 H   0  0  0  0  0  0  0  0  0  0  0  0
  -13.9369  -25.5278   29.8904 H   0  0  0  0  0  0  0  0  0  0  0  0
  -15.8693  -25.1263   31.2551 H   0  0  0  0  0  0  0  0  0  0  0  0
  -18.1537  -24.9712   30.8323 H   0  0  0  0  0  0  0  0  0  0  0  0
  -18.7096  -23.2651   30.7632 H   0  0  0  0  0  0  0  0  0  0  0  0
  -20.6562  -24.1091   31.9791 H   0  0  0  0  0  0  0  0  0  0  0  0
  -18.8362  -25.9216   33.1902 H   0  0  0  0  0  0  0  0  0  0  0  0
  -19.0829  -23.4932   34.3264 H   0  0  0  0  0  0  0  0  0  0  0  0
  -19.2976  -22.3195   32.9958 H   0  0  0  0  0  0  0  0  0  0  0  0
  1  2  1  0
  2  3  2  0
  2  4  1  0
  4  5  1  0
  5  6  1  0
  6  7  1  0
  7  8  2  0
  8  9  1  0
  9 10  1  0
 10 11  2  0
 11 12  1  0
 12 13  2  0
 13 14  1  0
 13 15  1  0
 15 16  1  0
 16 17  1  0
 17 18  2  0
 18 19  1  0
 19 20  2  0
 20 21  1  0
 21 22  2  0
 16 23  1  0
 23 24  1  0
 24 25  1  0
 25 26  1  0
 25 27  1  0
 15 28  2  0
 28  7  1  0
 28 10  1  0
 22 17  1  0
 27 23  1  0
  1 29  1  0
  1 30  1  0
  1 31  1  0
  4 32  1  0
  5 33  1  0
  5 34  1  0
  6 35  1  0
  6 36  1  0
  8 37  1  0
  9 38  1  0
 11 39  1  0
 12 40  1  0
 16 41  1  0
 18 42  1  0
 19 43  1  0
 20 44  1  0
 21 45  1  0
 22 46  1  0
 24 47  1  0
 24 48  1  0
 25 49  1  0
 26 50  1  0
 27 51  1  0
 27 52  1  0
M  END
>  <Energy>  (1033) 
97.252451610713294

>  <compound_id>  (1033) 
1344

>  <target_id>  (1033) 
1

>  <reference_id>  (1033) 
161

>  <inspiration_ids>  (1033) 
[94, 161]

>  <energy_score>  (1033) 
-55.704644648689566

>  <distance_score>  (1033) 
3.0210537231892833

>  <path>  (1033) 
/opt/xchem-fragalysis-2/maxwin/BulkDock/SCRATCH/505733/C1344-P161/C1344-P161.minimised.mol

>  <scratch_subdir>  (1033) 
/opt/xchem-fragalysis-2/maxwin/BulkDock/SCRATCH/505733/C1344-P161

>  <fragmenstein_runtime>  (1033) 
17.357316732406616

>  <fragmenstein_outcome>  (1033) 
too moved

>  <fragmenstein_mode>  (1033) 
expansion

>  <fragmenstein_error>  (1033) 


$$$$
C1345-P94
     RDKit          3D

 50 52  0  0  0  0  0  0  0  0999 V2000
  -10.1048  -25.4353   33.3487 C   0  0  0  0  0  0  0  0  0  0  0  0
   -9.9192  -25.5272   31.8445 C   0  0  0  0  0  0  0  0  0  0  0  0
  -11.2481  -25.8633   31.1923 C   0  0  0  0  0  0  0  0  0  0  0  0
  -11.3249  -25.3800   29.7716 C   0  0  0  0  0  0  0  0  0  0  0  0
  -11.3929  -26.2720   28.6734 C   0  0  0  0  0  0  0  0  0  0  0  0
  -11.7938  -27.5659   28.8778 O   0  0  0  0  0  0  0  0  0  0  0  0
  -13.0864  -27.9573   28.5783 C   0  0  0  0  0  0  0  0  0  0  0  0
  -13.4251  -29.1946   29.1565 C   0  0  0  0  0  0  0  0  0  0  0  0
  -14.6885  -29.7564   28.9942 C   0  0  0  0  0  0  0  0  0  0  0  0
  -15.6417  -29.0999   28.2327 C   0  0  0  0  0  0  0  0  0  0  0  0
  -15.3334  -27.8803   27.6439 C   0  0  0  0  0  0  0  0  0  0  0  0
  -14.0772  -27.2976   27.8265 C   0  0  0  0  0  0  0  0  0  0  0  0
  -13.9566  -26.0919   27.2069 O   0  0  0  0  0  0  0  0  0  0  0  0
  -11.1434  -25.8831   27.3625 C   0  0  0  0  0  0  0  0  0  0  0  0
  -11.1198  -24.5405   27.0535 C   0  0  0  0  0  0  0  0  0  0  0  0
  -11.3751  -23.6593   28.1030 C   0  0  0  0  0  0  0  0  0  0  0  0
  -11.6127  -22.3246   28.0254 N   0  0  0  0  0  0  0  0  0  0  0  0
  -11.8490  -21.8221   29.2616 C   0  0  0  0  0  0  0  0  0  0  0  0
  -11.6922  -22.7948   30.2135 C   0  0  0  0  0  0  0  0  0  0  0  0
  -11.6447  -22.4695   31.6845 C   0  0  0  0  0  0  0  0  0  0  0  0
  -12.9503  -22.3344   32.4659 C   0  0  0  0  0  0  0  0  0  0  0  0
  -12.8401  -21.3447   33.5310 N   0  0  0  0  0  0  0  0  0  0  0  0
  -13.7797  -20.3739   34.0148 C   0  0  0  0  0  0  0  0  0  0  0  0
  -13.1003  -19.4163   34.9844 C   0  0  0  0  0  0  0  0  0  0  0  0
  -14.9249  -20.1789   33.7210 O   0  0  0  0  0  0  0  0  0  0  0  0
  -11.4696  -24.0127   29.4552 C   0  0  0  0  0  0  0  0  0  0  0  0
   -9.1425  -25.2603   33.8312 H   0  0  0  0  0  0  0  0  0  0  0  0
  -10.5410  -26.3468   33.7571 H   0  0  0  0  0  0  0  0  0  0  0  0
  -10.7898  -24.6323   33.6264 H   0  0  0  0  0  0  0  0  0  0  0  0
   -9.5083  -24.5827   31.4915 H   0  0  0  0  0  0  0  0  0  0  0  0
   -9.1812  -26.2806   31.5671 H   0  0  0  0  0  0  0  0  0  0  0  0
  -11.4264  -26.9413   31.2724 H   0  0  0  0  0  0  0  0  0  0  0  0
  -12.0314  -25.3672   31.7651 H   0  0  0  0  0  0  0  0  0  0  0  0
  -12.7190  -29.7379   29.7744 H   0  0  0  0  0  0  0  0  0  0  0  0
  -14.9236  -30.7141   29.4521 H   0  0  0  0  0  0  0  0  0  0  0  0
  -16.6217  -29.5452   28.0803 H   0  0  0  0  0  0  0  0  0  0  0  0
  -16.0743  -27.3905   27.0164 H   0  0  0  0  0  0  0  0  0  0  0  0
  -13.4935  -25.4280   27.7567 H   0  0  0  0  0  0  0  0  0  0  0  0
  -11.1080  -26.6208   26.5672 H   0  0  0  0  0  0  0  0  0  0  0  0
  -11.0534  -24.2008   26.0261 H   0  0  0  0  0  0  0  0  0  0  0  0
  -11.6745  -21.8017   27.1610 H   0  0  0  0  0  0  0  0  0  0  0  0
  -12.0621  -20.7825   29.3564 H   0  0  0  0  0  0  0  0  0  0  0  0
  -10.9814  -23.1502   32.2054 H   0  0  0  0  0  0  0  0  0  0  0  0
  -11.1130  -21.5078   31.7557 H   0  0  0  0  0  0  0  0  0  0  0  0
  -13.7810  -22.0237   31.8273 H   0  0  0  0  0  0  0  0  0  0  0  0
  -13.1977  -23.2776   32.9587 H   0  0  0  0  0  0  0  0  0  0  0  0
  -11.9827  -21.2704   34.0670 H   0  0  0  0  0  0  0  0  0  0  0  0
  -12.7381  -18.5458   34.4340 H   0  0  0  0  0  0  0  0  0  0  0  0
  -13.8250  -19.0755   35.7292 H   0  0  0  0  0  0  0  0  0  0  0  0
  -12.2589  -19.8733   35.5043 H   0  0  0  0  0  0  0  0  0  0  0  0
  1  2  1  0
  2  3  1  0
  3  4  1  0
  4  5  2  0
  5  6  1  0
  6  7  1  0
  7  8  2  0
  8  9  1  0
  9 10  2  0
 10 11  1  0
 11 12  2  0
 12 13  1  0
  5 14  1  0
 14 15  2  0
 15 16  1  0
 16 17  1  0
 17 18  1  0
 18 19  2  0
 19 20  1  0
 20 21  1  0
 21 22  1  0
 22 23  1  0
 23 24  1  0
 23 25  2  0
 19 26  1  0
 26  4  1  0
 12  7  1  0
 26 16  2  0
  1 27  1  0
  1 28  1  0
  1 29  1  0
  2 30  1  0
  2 31  1  0
  3 32  1  0
  3 33  1  0
  8 34  1  0
  9 35  1  0
 10 36  1  0
 11 37  1  0
 13 38  1  0
 14 39  1  0
 15 40  1  0
 17 41  1  0
 18 42  1  0
 20 43  1  0
 20 44  1  0
 21 45  1  0
 21 46  1  0
 22 47  1  0
 24 48  1  0
 24 49  1  0
 24 50  1  0
M  END
>  <Energy>  (1034) 
66.277644052704531

>  <compound_id>  (1034) 
1345

>  <target_id>  (1034) 
1

>  <reference_id>  (1034) 
94

>  <inspiration_ids>  (1034) 
[94, 173]

>  <energy_score>  (1034) 
-10.406170430050977

>  <distance_score>  (1034) 
4.628600714282759

>  <path>  (1034) 
/opt/xchem-fragalysis-2/maxwin/BulkDock/SCRATCH/505733/C1345-P94/C1345-P94.minimised.mol

>  <scratch_subdir>  (1034) 
/opt/xchem-fragalysis-2/maxwin/BulkDock/SCRATCH/505733/C1345-P94

>  <fragmenstein_runtime>  (1034) 
15.213526010513306

>  <fragmenstein_outcome>  (1034) 
too moved

>  <fragmenstein_mode>  (1034) 
expansion

>  <fragmenstein_error>  (1034) 


$$$$
C1345-P173
     RDKit          3D

 50 52  0  0  0  0  0  0  0  0999 V2000
  -18.6179  -24.7208   33.4240 C   0  0  0  0  0  0  0  0  0  0  0  0
  -17.5091  -24.2498   32.4965 C   0  0  0  0  0  0  0  0  0  0  0  0
  -16.1412  -24.7519   32.9616 C   0  0  0  0  0  0  0  0  0  0  0  0
  -14.9992  -24.1523   32.1627 C   0  0  0  0  0  0  0  0  0  0  0  0
  -14.6348  -24.7492   30.9320 C   0  0  0  0  0  0  0  0  0  0  0  0
  -15.4190  -25.8229   30.5257 O   0  0  0  0  0  0  0  0  0  0  0  0
  -14.8410  -26.7679   29.7198 C   0  0  0  0  0  0  0  0  0  0  0  0
  -14.3631  -27.9507   30.2627 C   0  0  0  0  0  0  0  0  0  0  0  0
  -13.7853  -28.9104   29.4300 C   0  0  0  0  0  0  0  0  0  0  0  0
  -13.6885  -28.6823   28.0558 C   0  0  0  0  0  0  0  0  0  0  0  0
  -14.2147  -27.5147   27.5064 C   0  0  0  0  0  0  0  0  0  0  0  0
  -14.8136  -26.5849   28.3422 C   0  0  0  0  0  0  0  0  0  0  0  0
  -15.3755  -25.4682   27.8040 O   0  0  0  0  0  0  0  0  0  0  0  0
  -13.6008  -24.2188   30.1527 C   0  0  0  0  0  0  0  0  0  0  0  0
  -12.8084  -23.1744   30.6081 C   0  0  0  0  0  0  0  0  0  0  0  0
  -13.1164  -22.6467   31.8548 C   0  0  0  0  0  0  0  0  0  0  0  0
  -12.4122  -21.7361   32.6041 N   0  0  0  0  0  0  0  0  0  0  0  0
  -13.1514  -21.3704   33.6928 C   0  0  0  0  0  0  0  0  0  0  0  0
  -14.3137  -22.1148   33.7042 C   0  0  0  0  0  0  0  0  0  0  0  0
  -15.4141  -21.9473   34.6964 C   0  0  0  0  0  0  0  0  0  0  0  0
  -15.0798  -22.5125   36.0726 C   0  0  0  0  0  0  0  0  0  0  0  0
  -16.1886  -22.3886   36.9921 N   0  0  0  0  0  0  0  0  0  0  0  0
  -17.1958  -23.3296   37.3810 C   0  0  0  0  0  0  0  0  0  0  0  0
  -18.1871  -22.6448   38.2996 C   0  0  0  0  0  0  0  0  0  0  0  0
  -17.3337  -24.4849   37.1055 O   0  0  0  0  0  0  0  0  0  0  0  0
  -14.2314  -23.0374   32.6045 C   0  0  0  0  0  0  0  0  0  0  0  0
  -19.5895  -24.3723   33.0603 H   0  0  0  0  0  0  0  0  0  0  0  0
  -18.4750  -24.3287   34.4356 H   0  0  0  0  0  0  0  0  0  0  0  0
  -18.6468  -25.8137   33.4783 H   0  0  0  0  0  0  0  0  0  0  0  0
  -17.7186  -24.6152   31.4851 H   0  0  0  0  0  0  0  0  0  0  0  0
  -17.5232  -23.1549   32.4453 H   0  0  0  0  0  0  0  0  0  0  0  0
  -15.9943  -24.5404   34.0251 H   0  0  0  0  0  0  0  0  0  0  0  0
  -16.1083  -25.8469   32.8988 H   0  0  0  0  0  0  0  0  0  0  0  0
  -14.4344  -28.1199   31.3293 H   0  0  0  0  0  0  0  0  0  0  0  0
  -13.3963  -29.8294   29.8599 H   0  0  0  0  0  0  0  0  0  0  0  0
  -13.2253  -29.4242   27.4113 H   0  0  0  0  0  0  0  0  0  0  0  0
  -14.1765  -27.3395   26.4362 H   0  0  0  0  0  0  0  0  0  0  0  0
  -15.7718  -24.9995   28.5691 H   0  0  0  0  0  0  0  0  0  0  0  0
  -13.3540  -24.6198   29.1765 H   0  0  0  0  0  0  0  0  0  0  0  0
  -11.9709  -22.8163   30.0218 H   0  0  0  0  0  0  0  0  0  0  0  0
  -11.4905  -21.3772   32.3800 H   0  0  0  0  0  0  0  0  0  0  0  0
  -12.7783  -20.6098   34.3663 H   0  0  0  0  0  0  0  0  0  0  0  0
  -15.6263  -20.8737   34.8003 H   0  0  0  0  0  0  0  0  0  0  0  0
  -16.3496  -22.3743   34.3272 H   0  0  0  0  0  0  0  0  0  0  0  0
  -14.2370  -21.9742   36.5169 H   0  0  0  0  0  0  0  0  0  0  0  0
  -14.8240  -23.5736   36.0019 H   0  0  0  0  0  0  0  0  0  0  0  0
  -16.4365  -21.4727   37.3495 H   0  0  0  0  0  0  0  0  0  0  0  0
  -18.9298  -23.3704   38.6443 H   0  0  0  0  0  0  0  0  0  0  0  0
  -17.6703  -22.2360   39.1726 H   0  0  0  0  0  0  0  0  0  0  0  0
  -18.7034  -21.8458   37.7601 H   0  0  0  0  0  0  0  0  0  0  0  0
  1  2  1  0
  2  3  1  0
  3  4  1  0
  4  5  2  0
  5  6  1  0
  6  7  1  0
  7  8  2  0
  8  9  1  0
  9 10  2  0
 10 11  1  0
 11 12  2  0
 12 13  1  0
  5 14  1  0
 14 15  2  0
 15 16  1  0
 16 17  1  0
 17 18  1  0
 18 19  2  0
 19 20  1  0
 20 21  1  0
 21 22  1  0
 22 23  1  0
 23 24  1  0
 23 25  2  0
 19 26  1  0
 26  4  1  0
 12  7  1  0
 26 16  2  0
  1 27  1  0
  1 28  1  0
  1 29  1  0
  2 30  1  0
  2 31  1  0
  3 32  1  0
  3 33  1  0
  8 34  1  0
  9 35  1  0
 10 36  1  0
 11 37  1  0
 13 38  1  0
 14 39  1  0
 15 40  1  0
 17 41  1  0
 18 42  1  0
 20 43  1  0
 20 44  1  0
 21 45  1  0
 21 46  1  0
 22 47  1  0
 24 48  1  0
 24 49  1  0
 24 50  1  0
M  END
>  <Energy>  (1035) 
42.309886996387277

>  <compound_id>  (1035) 
1345

>  <target_id>  (1035) 
1

>  <reference_id>  (1035) 
173

>  <inspiration_ids>  (1035) 
[94, 173]

>  <energy_score>  (1035) 
-34.37392748636523

>  <distance_score>  (1035) 
5.18960862577764

>  <path>  (1035) 
/opt/xchem-fragalysis-2/maxwin/BulkDock/SCRATCH/505733/C1345-P173/C1345-P173.minimised.mol

>  <scratch_subdir>  (1035) 
/opt/xchem-fragalysis-2/maxwin/BulkDock/SCRATCH/505733/C1345-P173

>  <fragmenstein_runtime>  (1035) 
14.508317947387695

>  <fragmenstein_outcome>  (1035) 
too moved

>  <fragmenstein_mode>  (1035) 
expansion

>  <fragmenstein_error>  (1035) 


$$$$
C1346-P95
     RDKit          3D

 49 51  0  0  0  0  0  0  0  0999 V2000
   -3.2342   -0.2875    1.8874 C   0  0  0  0  0  0  0  0  0  0  0  0
   -3.8040    0.9696    2.5036 C   0  0  0  0  0  0  0  0  0  0  0  0
   -3.1261    1.8187    2.9511 O   0  0  0  0  0  0  0  0  0  0  0  0
   -5.3106    0.8710    2.4017 N   0  0  0  0  0  0  0  0  0  0  0  0
   -6.3874    1.8720    2.7486 C   0  0  0  0  0  0  0  0  0  0  0  0
   -7.8420    1.5011    2.3836 C   0  0  0  0  0  0  0  0  0  0  0  0
   -8.3288    0.5169    3.3440 N   0  0  0  0  0  0  0  0  0  0  0  0
   -9.6164   -0.0831    3.0108 C   0  0  0  0  0  0  0  0  0  0  0  0
  -10.7015    0.9246    2.6039 C   0  0  0  0  0  0  0  0  0  0  0  0
  -10.0271   -0.9219    4.1256 N   0  0  0  0  0  0  0  0  0  0  0  0
  -10.4899   -0.2536    5.3444 C   0  0  0  0  0  0  0  0  0  0  0  0
   -9.4986    0.4101    6.3168 C   0  0  0  0  0  0  0  0  0  0  0  0
   -8.3100   -0.3780    6.7384 C   0  0  0  0  0  0  0  0  0  0  0  0
   -7.0588    0.1511    7.0117 C   0  0  0  0  0  0  0  0  0  0  0  0
   -6.1753   -0.8817    7.0920 N   0  0  0  0  0  0  0  0  0  0  0  0
   -6.8300   -2.0578    6.8458 C   0  0  0  0  0  0  0  0  0  0  0  0
   -6.3125   -3.3140    6.5975 C   0  0  0  0  0  0  0  0  0  0  0  0
   -7.2483   -4.3251    6.4343 C   0  0  0  0  0  0  0  0  0  0  0  0
   -8.6062   -4.1033    6.5841 C   0  0  0  0  0  0  0  0  0  0  0  0
   -9.4553   -5.1254    6.4637 F   0  0  0  0  0  0  0  0  0  0  0  0
   -9.1118   -2.8423    6.7923 C   0  0  0  0  0  0  0  0  0  0  0  0
   -8.1971   -1.7875    6.8498 C   0  0  0  0  0  0  0  0  0  0  0  0
   -7.2762   -0.4989    3.4631 C   0  0  0  0  0  0  0  0  0  0  0  0
   -5.9066    0.1932    3.6394 C   0  0  0  0  0  0  0  0  0  0  0  0
   -4.0079   -0.9029    1.4211 H   0  0  0  0  0  0  0  0  0  0  0  0
   -2.5061   -0.0096    1.1203 H   0  0  0  0  0  0  0  0  0  0  0  0
   -2.7421   -0.8689    2.6710 H   0  0  0  0  0  0  0  0  0  0  0  0
   -6.2629    2.3971    3.7127 H   0  0  0  0  0  0  0  0  0  0  0  0
   -6.1371    2.6886    2.0521 H   0  0  0  0  0  0  0  0  0  0  0  0
   -7.8760    1.1158    1.3560 H   0  0  0  0  0  0  0  0  0  0  0  0
   -8.4496    2.4112    2.4308 H   0  0  0  0  0  0  0  0  0  0  0  0
   -9.4836   -0.7464    2.1448 H   0  0  0  0  0  0  0  0  0  0  0  0
  -11.6771    0.4334    2.5151 H   0  0  0  0  0  0  0  0  0  0  0  0
  -10.7963    1.7466    3.3223 H   0  0  0  0  0  0  0  0  0  0  0  0
  -10.4794    1.3641    1.6252 H   0  0  0  0  0  0  0  0  0  0  0  0
  -10.7837   -1.5327    3.8214 H   0  0  0  0  0  0  0  0  0  0  0  0
  -11.0437   -1.0064    5.9164 H   0  0  0  0  0  0  0  0  0  0  0  0
  -11.2681    0.4799    5.1015 H   0  0  0  0  0  0  0  0  0  0  0  0
  -10.0509    0.6961    7.2220 H   0  0  0  0  0  0  0  0  0  0  0  0
   -9.1586    1.3525    5.8676 H   0  0  0  0  0  0  0  0  0  0  0  0
   -6.7266    1.1780    7.0684 H   0  0  0  0  0  0  0  0  0  0  0  0
   -5.1751   -0.7933    7.2120 H   0  0  0  0  0  0  0  0  0  0  0  0
   -5.2477   -3.4891    6.5288 H   0  0  0  0  0  0  0  0  0  0  0  0
   -6.9260   -5.3216    6.1831 H   0  0  0  0  0  0  0  0  0  0  0  0
  -10.1845   -2.7055    6.8390 H   0  0  0  0  0  0  0  0  0  0  0  0
   -7.2301   -1.1161    2.5544 H   0  0  0  0  0  0  0  0  0  0  0  0
   -7.4504   -1.1829    4.2889 H   0  0  0  0  0  0  0  0  0  0  0  0
   -5.2151   -0.6478    3.8110 H   0  0  0  0  0  0  0  0  0  0  0  0
   -5.7736    0.7573    4.5780 H   0  0  0  0  0  0  0  0  0  0  0  0
  1  2  1  0
  2  3  2  0
  2  4  1  0
  4  5  1  0
  5  6  1  0
  6  7  1  0
  7  8  1  0
  8  9  1  0
  8 10  1  0
 10 11  1  0
 11 12  1  0
 12 13  1  0
 13 14  2  0
 14 15  1  0
 15 16  1  0
 16 17  2  0
 17 18  1  0
 18 19  2  0
 19 20  1  0
 19 21  1  0
 21 22  2  0
  7 23  1  0
 23 24  1  0
 24  4  1  0
 22 13  1  0
 22 16  1  0
  1 25  1  0
  1 26  1  0
  1 27  1  0
  5 28  1  0
  5 29  1  0
  6 30  1  0
  6 31  1  0
  8 32  1  0
  9 33  1  0
  9 34  1  0
  9 35  1  0
 10 36  1  0
 11 37  1  0
 11 38  1  0
 12 39  1  0
 12 40  1  0
 14 41  1  0
 15 42  1  0
 17 43  1  0
 18 44  1  0
 21 45  1  0
 23 46  1  0
 23 47  1  0
 24 48  1  0
 24 49  1  0
M  END
>  <Energy>  (1036) 
107.94533320945087

>  <compound_id>  (1036) 
1346

>  <target_id>  (1036) 
1

>  <reference_id>  (1036) 
95

>  <inspiration_ids>  (1036) 
[95, 17]

>  <energy_score>  (1036) 
26.484576385658613

>  <distance_score>  (1036) 
3.8018626943803473

>  <path>  (1036) 
/opt/xchem-fragalysis-2/maxwin/BulkDock/SCRATCH/505733/C1346-P95/C1346-P95.minimised.mol

>  <scratch_subdir>  (1036) 
/opt/xchem-fragalysis-2/maxwin/BulkDock/SCRATCH/505733/C1346-P95

>  <fragmenstein_runtime>  (1036) 
8.518851280212402

>  <fragmenstein_outcome>  (1036) 
too moved

>  <fragmenstein_mode>  (1036) 
expansion

>  <fragmenstein_error>  (1036) 


$$$$
C1346-P17
     RDKit          3D

 49 51  0  0  0  0  0  0  0  0999 V2000
   -6.2258    3.9474    7.4333 C   0  0  0  0  0  0  0  0  0  0  0  0
   -7.3340    4.5994    6.6362 C   0  0  0  0  0  0  0  0  0  0  0  0
   -7.5844    5.7450    6.7159 O   0  0  0  0  0  0  0  0  0  0  0  0
   -7.9242    3.5274    5.7449 N   0  0  0  0  0  0  0  0  0  0  0  0
   -8.9347    3.6253    4.6238 C   0  0  0  0  0  0  0  0  0  0  0  0
   -9.1959    2.3464    3.7992 C   0  0  0  0  0  0  0  0  0  0  0  0
   -9.9963    1.4291    4.6020 N   0  0  0  0  0  0  0  0  0  0  0  0
  -10.2816    0.1178    4.0190 C   0  0  0  0  0  0  0  0  0  0  0  0
  -11.1950    0.2586    2.7954 C   0  0  0  0  0  0  0  0  0  0  0  0
   -9.0438   -0.5462    3.6688 N   0  0  0  0  0  0  0  0  0  0  0  0
   -9.1575   -2.0053    3.6133 C   0  0  0  0  0  0  0  0  0  0  0  0
   -9.3045   -2.7394    4.9601 C   0  0  0  0  0  0  0  0  0  0  0  0
   -8.1956   -2.4476    5.9043 C   0  0  0  0  0  0  0  0  0  0  0  0
   -6.8438   -2.6528    5.6965 C   0  0  0  0  0  0  0  0  0  0  0  0
   -6.1649   -2.0991    6.7399 N   0  0  0  0  0  0  0  0  0  0  0  0
   -7.0480   -1.5022    7.6019 C   0  0  0  0  0  0  0  0  0  0  0  0
   -6.8056   -0.7035    8.7213 C   0  0  0  0  0  0  0  0  0  0  0  0
   -7.9162   -0.2363    9.4279 C   0  0  0  0  0  0  0  0  0  0  0  0
   -9.2031   -0.5744    9.0407 C   0  0  0  0  0  0  0  0  0  0  0  0
  -10.2440   -0.1026    9.7421 F   0  0  0  0  0  0  0  0  0  0  0  0
   -9.4346   -1.3595    7.9178 C   0  0  0  0  0  0  0  0  0  0  0  0
   -8.3339   -1.8086    7.1648 C   0  0  0  0  0  0  0  0  0  0  0  0
   -9.4500    1.4017    5.9595 C   0  0  0  0  0  0  0  0  0  0  0  0
   -9.1230    2.8469    6.4152 C   0  0  0  0  0  0  0  0  0  0  0  0
   -5.2620    4.2847    7.0421 H   0  0  0  0  0  0  0  0  0  0  0  0
   -6.3213    4.2468    8.4797 H   0  0  0  0  0  0  0  0  0  0  0  0
   -6.2631    2.8558    7.3805 H   0  0  0  0  0  0  0  0  0  0  0  0
   -9.8255    4.2459    4.8281 H   0  0  0  0  0  0  0  0  0  0  0  0
   -8.3981    4.2881    3.9252 H   0  0  0  0  0  0  0  0  0  0  0  0
   -9.7323    2.6277    2.8869 H   0  0  0  0  0  0  0  0  0  0  0  0
   -8.2312    1.9138    3.5077 H   0  0  0  0  0  0  0  0  0  0  0  0
  -10.8444   -0.4468    4.7716 H   0  0  0  0  0  0  0  0  0  0  0  0
  -12.0769    0.8631    3.0369 H   0  0  0  0  0  0  0  0  0  0  0  0
  -10.6853    0.7301    1.9478 H   0  0  0  0  0  0  0  0  0  0  0  0
  -11.5582   -0.7184    2.4594 H   0  0  0  0  0  0  0  0  0  0  0  0
   -8.3480   -0.3265    4.3765 H   0  0  0  0  0  0  0  0  0  0  0  0
   -8.2500   -2.3729    3.1174 H   0  0  0  0  0  0  0  0  0  0  0  0
   -9.9813   -2.3017    2.9537 H   0  0  0  0  0  0  0  0  0  0  0  0
  -10.2745   -2.5004    5.4086 H   0  0  0  0  0  0  0  0  0  0  0  0
   -9.3294   -3.8169    4.7675 H   0  0  0  0  0  0  0  0  0  0  0  0
   -6.3137   -3.1161    4.8749 H   0  0  0  0  0  0  0  0  0  0  0  0
   -5.1591   -2.0772    6.8392 H   0  0  0  0  0  0  0  0  0  0  0  0
   -5.7955   -0.4648    9.0349 H   0  0  0  0  0  0  0  0  0  0  0  0
   -7.7861    0.3756   10.3104 H   0  0  0  0  0  0  0  0  0  0  0  0
  -10.4529   -1.5876    7.6227 H   0  0  0  0  0  0  0  0  0  0  0  0
   -8.5293    0.8162    6.0248 H   0  0  0  0  0  0  0  0  0  0  0  0
  -10.1974    0.9853    6.6406 H   0  0  0  0  0  0  0  0  0  0  0  0
   -8.7786    2.7150    7.4542 H   0  0  0  0  0  0  0  0  0  0  0  0
  -10.0033    3.4943    6.5786 H   0  0  0  0  0  0  0  0  0  0  0  0
  1  2  1  0
  2  3  2  0
  2  4  1  0
  4  5  1  0
  5  6  1  0
  6  7  1  0
  7  8  1  0
  8  9  1  0
  8 10  1  0
 10 11  1  0
 11 12  1  0
 12 13  1  0
 13 14  2  0
 14 15  1  0
 15 16  1  0
 16 17  2  0
 17 18  1  0
 18 19  2  0
 19 20  1  0
 19 21  1  0
 21 22  2  0
  7 23  1  0
 23 24  1  0
 24  4  1  0
 22 13  1  0
 22 16  1  0
  1 25  1  0
  1 26  1  0
  1 27  1  0
  5 28  1  0
  5 29  1  0
  6 30  1  0
  6 31  1  0
  8 32  1  0
  9 33  1  0
  9 34  1  0
  9 35  1  0
 10 36  1  0
 11 37  1  0
 11 38  1  0
 12 39  1  0
 12 40  1  0
 14 41  1  0
 15 42  1  0
 17 43  1  0
 18 44  1  0
 21 45  1  0
 23 46  1  0
 23 47  1  0
 24 48  1  0
 24 49  1  0
M  END
>  <Energy>  (1037) 
95.287214968289376

>  <compound_id>  (1037) 
1346

>  <target_id>  (1037) 
1

>  <reference_id>  (1037) 
17

>  <inspiration_ids>  (1037) 
[95, 17]

>  <energy_score>  (1037) 
13.826458144498133

>  <distance_score>  (1037) 
3.407752701535811

>  <path>  (1037) 
/opt/xchem-fragalysis-2/maxwin/BulkDock/SCRATCH/505733/C1346-P17/C1346-P17.minimised.mol

>  <scratch_subdir>  (1037) 
/opt/xchem-fragalysis-2/maxwin/BulkDock/SCRATCH/505733/C1346-P17

>  <fragmenstein_runtime>  (1037) 
7.9288434982299805

>  <fragmenstein_outcome>  (1037) 
too moved

>  <fragmenstein_mode>  (1037) 
expansion

>  <fragmenstein_error>  (1037) 


$$$$
C1350-P95
     RDKit          3D

 47 49  0  0  0  0  0  0  0  0999 V2000
   -7.7328    2.4576    4.9520 C   0  0  0  0  0  0  0  0  0  0  0  0
   -6.3796    1.8621    5.2832 C   0  0  0  0  0  0  0  0  0  0  0  0
   -5.6930    2.3606    6.1298 O   0  0  0  0  0  0  0  0  0  0  0  0
   -6.1431    0.7354    4.4278 N   0  0  0  0  0  0  0  0  0  0  0  0
   -5.0461   -0.2095    4.3820 C   0  0  0  0  0  0  0  0  0  0  0  0
   -4.9097   -1.0816    5.6373 C   0  0  0  0  0  0  0  0  0  0  0  0
   -6.1074   -1.9334    5.8614 C   0  0  0  0  0  0  0  0  0  0  0  0
   -6.3554   -3.1610    5.2820 C   0  0  0  0  0  0  0  0  0  0  0  0
   -7.5840   -3.5851    5.7043 N   0  0  0  0  0  0  0  0  0  0  0  0
   -8.1761   -2.6087    6.4667 C   0  0  0  0  0  0  0  0  0  0  0  0
   -9.4605   -2.5486    6.9902 C   0  0  0  0  0  0  0  0  0  0  0  0
   -9.7801   -1.4430    7.7841 C   0  0  0  0  0  0  0  0  0  0  0  0
   -8.8578   -0.4314    8.1023 C   0  0  0  0  0  0  0  0  0  0  0  0
   -9.2939    0.7426    8.9908 C   0  0  0  0  0  0  0  0  0  0  0  0
   -9.7231    1.8402    8.1190 N   0  0  0  0  0  0  0  0  0  0  0  0
  -10.4832    0.3842    9.6721 O   0  0  0  0  0  0  0  0  0  0  0  0
   -8.2180    1.2659   10.0485 C   0  0  0  0  0  0  0  0  0  0  0  0
   -8.9151    2.2694   11.0669 C   0  0  0  0  0  0  0  0  0  0  0  0
   -8.1714    2.6100   12.4499 O   0  0  0  0  0  0  0  0  0  0  0  0
   -6.8744    1.6081   12.8440 C   0  0  0  0  0  0  0  0  0  0  0  0
   -6.5943    0.3353   11.7690 C   0  0  0  0  0  0  0  0  0  0  0  0
   -7.4535    0.1788   10.6113 O   0  0  0  0  0  0  0  0  0  0  0  0
   -7.5785   -0.5129    7.5178 C   0  0  0  0  0  0  0  0  0  0  0  0
   -7.2400   -1.6009    6.6712 C   0  0  0  0  0  0  0  0  0  0  0  0
   -7.9308    3.3073    5.6118 H   0  0  0  0  0  0  0  0  0  0  0  0
   -7.7409    2.8098    3.9167 H   0  0  0  0  0  0  0  0  0  0  0  0
   -8.5186    1.7115    5.0999 H   0  0  0  0  0  0  0  0  0  0  0  0
   -6.9820    0.5473    3.8893 H   0  0  0  0  0  0  0  0  0  0  0  0
   -5.2021   -0.8330    3.4944 H   0  0  0  0  0  0  0  0  0  0  0  0
   -4.1297    0.3643    4.2224 H   0  0  0  0  0  0  0  0  0  0  0  0
   -4.0222   -1.7167    5.5347 H   0  0  0  0  0  0  0  0  0  0  0  0
   -4.7586   -0.4741    6.5321 H   0  0  0  0  0  0  0  0  0  0  0  0
   -5.7676   -3.7653    4.6060 H   0  0  0  0  0  0  0  0  0  0  0  0
   -8.0218   -4.4681    5.4631 H   0  0  0  0  0  0  0  0  0  0  0  0
  -10.1987   -3.3222    6.8059 H   0  0  0  0  0  0  0  0  0  0  0  0
  -10.7876   -1.4087    8.1973 H   0  0  0  0  0  0  0  0  0  0  0  0
  -10.3077    1.4202    7.3947 H   0  0  0  0  0  0  0  0  0  0  0  0
   -8.8968    2.1769    7.6265 H   0  0  0  0  0  0  0  0  0  0  0  0
  -11.0371    1.1729    9.5581 H   0  0  0  0  0  0  0  0  0  0  0  0
   -7.5001    1.8064    9.4244 H   0  0  0  0  0  0  0  0  0  0  0  0
   -9.9398    1.9842   11.3254 H   0  0  0  0  0  0  0  0  0  0  0  0
   -9.0852    3.2450   10.5862 H   0  0  0  0  0  0  0  0  0  0  0  0
   -6.2487    2.2012   13.4397 H   0  0  0  0  0  0  0  0  0  0  0  0
   -7.0791    1.1308   13.7693 H   0  0  0  0  0  0  0  0  0  0  0  0
   -6.8630   -0.4782   12.4052 H   0  0  0  0  0  0  0  0  0  0  0  0
   -5.5790   -0.0147   11.5852 H   0  0  0  0  0  0  0  0  0  0  0  0
   -6.8371    0.2564    7.7093 H   0  0  0  0  0  0  0  0  0  0  0  0
  1  2  1  0
  2  3  2  0
  2  4  1  0
  4  5  1  0
  5  6  1  0
  6  7  1  0
  7  8  2  0
  8  9  1  0
  9 10  1  0
 10 11  2  0
 11 12  1  0
 12 13  2  0
 13 14  1  0
 14 15  1  0
 14 16  1  0
 14 17  1  0
 17 18  1  0
 18 19  1  0
 19 20  1  0
 20 21  1  0
 21 22  1  0
 13 23  1  0
 23 24  2  0
 24  7  1  0
 24 10  1  0
 22 17  1  0
  1 25  1  0
  1 26  1  0
  1 27  1  0
  4 28  1  0
  5 29  1  0
  5 30  1  0
  6 31  1  0
  6 32  1  0
  8 33  1  0
  9 34  1  0
 11 35  1  0
 12 36  1  0
 15 37  1  0
 15 38  1  0
 16 39  1  0
 17 40  1  0
 18 41  1  0
 18 42  1  0
 20 43  1  0
 20 44  1  0
 21 45  1  0
 21 46  1  0
 23 47  1  0
M  END
>  <Energy>  (1038) 
143.47440901459478

>  <compound_id>  (1038) 
1350

>  <target_id>  (1038) 
1

>  <reference_id>  (1038) 
95

>  <inspiration_ids>  (1038) 
[95, 69]

>  <energy_score>  (1038) 
33.90516420353481

>  <distance_score>  (1038) 
2.736737066139551

>  <path>  (1038) 
/opt/xchem-fragalysis-2/maxwin/BulkDock/SCRATCH/505733/C1350-P95/C1350-P95.minimised.mol

>  <scratch_subdir>  (1038) 
/opt/xchem-fragalysis-2/maxwin/BulkDock/SCRATCH/505733/C1350-P95

>  <fragmenstein_runtime>  (1038) 
15.017471313476562

>  <fragmenstein_outcome>  (1038) 
too moved

>  <fragmenstein_mode>  (1038) 
expansion

>  <fragmenstein_error>  (1038) 


$$$$
C1350-P69
     RDKit          3D

 47 49  0  0  0  0  0  0  0  0999 V2000
   -7.3161   -0.6296    0.2664 C   0  0  0  0  0  0  0  0  0  0  0  0
   -6.8405    0.6017    1.0105 C   0  0  0  0  0  0  0  0  0  0  0  0
   -6.3334    1.5043    0.4131 O   0  0  0  0  0  0  0  0  0  0  0  0
   -7.0933    0.4309    2.4086 N   0  0  0  0  0  0  0  0  0  0  0  0
   -6.9032    1.3298    3.5219 C   0  0  0  0  0  0  0  0  0  0  0  0
   -5.8599    0.8189    4.5191 C   0  0  0  0  0  0  0  0  0  0  0  0
   -6.2563   -0.4751    5.1634 C   0  0  0  0  0  0  0  0  0  0  0  0
   -5.8223   -1.7353    4.7931 C   0  0  0  0  0  0  0  0  0  0  0  0
   -6.4856   -2.6579    5.5538 N   0  0  0  0  0  0  0  0  0  0  0  0
   -7.3415   -2.0231    6.4208 C   0  0  0  0  0  0  0  0  0  0  0  0
   -8.2339   -2.5610    7.3437 C   0  0  0  0  0  0  0  0  0  0  0  0
   -8.9531   -1.6634    8.1385 C   0  0  0  0  0  0  0  0  0  0  0  0
   -8.8167   -0.2733    8.0430 C   0  0  0  0  0  0  0  0  0  0  0  0
   -9.5594    0.6455    9.0352 C   0  0  0  0  0  0  0  0  0  0  0  0
  -10.2731    1.6964    8.3159 N   0  0  0  0  0  0  0  0  0  0  0  0
  -10.5943   -0.0544    9.6915 O   0  0  0  0  0  0  0  0  0  0  0  0
   -8.5546    1.2238   10.1093 C   0  0  0  0  0  0  0  0  0  0  0  0
   -9.2670    2.1804   11.1951 C   0  0  0  0  0  0  0  0  0  0  0  0
   -8.4532    2.4654   12.6297 O   0  0  0  0  0  0  0  0  0  0  0  0
   -7.0802    1.2516   12.8764 C   0  0  0  0  0  0  0  0  0  0  0  0
   -7.1418   -0.0075   11.8552 C   0  0  0  0  0  0  0  0  0  0  0  0
   -7.5904    0.2011   10.5077 O   0  0  0  0  0  0  0  0  0  0  0  0
   -7.9242    0.2304    7.0698 C   0  0  0  0  0  0  0  0  0  0  0  0
   -7.1828   -0.6507    6.2428 C   0  0  0  0  0  0  0  0  0  0  0  0
   -7.0786   -0.5305   -0.7969 H   0  0  0  0  0  0  0  0  0  0  0  0
   -6.8119   -1.5200    0.6530 H   0  0  0  0  0  0  0  0  0  0  0  0
   -8.3993   -0.7345    0.3743 H   0  0  0  0  0  0  0  0  0  0  0  0
   -7.6172   -0.4272    2.5478 H   0  0  0  0  0  0  0  0  0  0  0  0
   -6.5880    2.3004    3.1246 H   0  0  0  0  0  0  0  0  0  0  0  0
   -7.8790    1.4587    4.0021 H   0  0  0  0  0  0  0  0  0  0  0  0
   -4.8942    0.6958    4.0129 H   0  0  0  0  0  0  0  0  0  0  0  0
   -5.7210    1.5785    5.2961 H   0  0  0  0  0  0  0  0  0  0  0  0
   -5.1192   -2.0501    4.0333 H   0  0  0  0  0  0  0  0  0  0  0  0
   -6.3869   -3.6620    5.4844 H   0  0  0  0  0  0  0  0  0  0  0  0
   -8.3597   -3.6311    7.4726 H   0  0  0  0  0  0  0  0  0  0  0  0
   -9.6133   -2.0752    8.8952 H   0  0  0  0  0  0  0  0  0  0  0  0
  -10.7680    1.2352    7.5509 H   0  0  0  0  0  0  0  0  0  0  0  0
   -9.5944    2.3065    7.8657 H   0  0  0  0  0  0  0  0  0  0  0  0
  -11.3055    0.6047    9.7302 H   0  0  0  0  0  0  0  0  0  0  0  0
   -7.9448    1.8839    9.4797 H   0  0  0  0  0  0  0  0  0  0  0  0
  -10.2708    1.8414   11.4709 H   0  0  0  0  0  0  0  0  0  0  0  0
   -9.4416    3.1863   10.7877 H   0  0  0  0  0  0  0  0  0  0  0  0
   -6.2309    1.8114   12.9991 H   0  0  0  0  0  0  0  0  0  0  0  0
   -7.0523    1.0352   13.9008 H   0  0  0  0  0  0  0  0  0  0  0  0
   -7.7672   -0.8059   12.2105 H   0  0  0  0  0  0  0  0  0  0  0  0
   -6.1683   -0.4672   11.9262 H   0  0  0  0  0  0  0  0  0  0  0  0
   -7.7754    1.2991    6.9595 H   0  0  0  0  0  0  0  0  0  0  0  0
  1  2  1  0
  2  3  2  0
  2  4  1  0
  4  5  1  0
  5  6  1  0
  6  7  1  0
  7  8  2  0
  8  9  1  0
  9 10  1  0
 10 11  2  0
 11 12  1  0
 12 13  2  0
 13 14  1  0
 14 15  1  0
 14 16  1  0
 14 17  1  0
 17 18  1  0
 18 19  1  0
 19 20  1  0
 20 21  1  0
 21 22  1  0
 13 23  1  0
 23 24  2  0
 24  7  1  0
 24 10  1  0
 22 17  1  0
  1 25  1  0
  1 26  1  0
  1 27  1  0
  4 28  1  0
  5 29  1  0
  5 30  1  0
  6 31  1  0
  6 32  1  0
  8 33  1  0
  9 34  1  0
 11 35  1  0
 12 36  1  0
 15 37  1  0
 15 38  1  0
 16 39  1  0
 17 40  1  0
 18 41  1  0
 18 42  1  0
 20 43  1  0
 20 44  1  0
 21 45  1  0
 21 46  1  0
 23 47  1  0
M  END
>  <Energy>  (1039) 
155.2301695914482

>  <compound_id>  (1039) 
1350

>  <target_id>  (1039) 
1

>  <reference_id>  (1039) 
69

>  <inspiration_ids>  (1039) 
[95, 69]

>  <energy_score>  (1039) 
45.66092478038422

>  <distance_score>  (1039) 
2.568140112885531

>  <path>  (1039) 
/opt/xchem-fragalysis-2/maxwin/BulkDock/SCRATCH/505733/C1350-P69/C1350-P69.minimised.mol

>  <scratch_subdir>  (1039) 
/opt/xchem-fragalysis-2/maxwin/BulkDock/SCRATCH/505733/C1350-P69

>  <fragmenstein_runtime>  (1039) 
12.662760019302368

>  <fragmenstein_outcome>  (1039) 
too moved

>  <fragmenstein_mode>  (1039) 
expansion

>  <fragmenstein_error>  (1039) 


$$$$
C1351-P95
     RDKit          3D

 58 61  0  0  0  0  0  0  0  0999 V2000
   -6.5124    2.6790    4.8948 C   0  0  0  0  0  0  0  0  0  0  0  0
   -6.3820    2.1964    6.3239 C   0  0  0  0  0  0  0  0  0  0  0  0
   -5.6644    2.8034    7.0804 O   0  0  0  0  0  0  0  0  0  0  0  0
   -7.2470    1.1020    6.5557 N   0  0  0  0  0  0  0  0  0  0  0  0
   -7.6319    0.4169    7.8139 C   0  0  0  0  0  0  0  0  0  0  0  0
   -8.8633    1.1194    8.4418 C   0  0  0  0  0  0  0  0  0  0  0  0
  -10.0549    1.3887    7.5071 C   0  0  0  0  0  0  0  0  0  0  0  0
  -11.3390    1.8501    8.2270 C   0  0  0  0  0  0  0  0  0  0  0  0
  -12.4732    1.2591    7.4720 N   0  0  0  0  0  0  0  0  0  0  0  0
  -11.9082    0.7824    6.2117 C   0  0  0  0  0  0  0  0  0  0  0  0
  -12.6595   -0.2753    5.4124 C   0  0  0  0  0  0  0  0  0  0  0  0
  -11.7952   -0.7142    4.2047 C   0  0  0  0  0  0  0  0  0  0  0  0
  -10.4123   -1.2400    4.6354 C   0  0  0  0  0  0  0  0  0  0  0  0
   -9.7648   -0.1841    5.5147 C   0  0  0  0  0  0  0  0  0  0  0  0
  -10.5915    0.2204    6.6959 C   0  0  0  0  0  0  0  0  0  0  0  0
   -9.5076   -1.4225    3.4660 N   0  0  0  0  0  0  0  0  0  0  0  0
   -8.2866   -2.3502    3.5153 S   0  0  0  0  0  0  0  0  0  0  0  0
   -7.5374   -1.6945    2.1566 N   0  0  0  0  0  0  0  0  0  0  0  0
   -8.2886   -3.7475    3.1458 O   0  0  0  0  0  0  0  0  0  0  0  0
   -7.1994   -2.0877    4.9324 C   0  0  0  0  0  0  0  0  0  0  0  0
   -6.1115   -3.1735    5.0080 C   0  0  0  0  0  0  0  0  0  0  0  0
   -4.9763   -2.7109    5.9060 C   0  0  0  0  0  0  0  0  0  0  0  0
   -4.2747   -1.5037    5.3059 C   0  0  0  0  0  0  0  0  0  0  0  0
   -5.1860   -0.6364    4.4446 C   0  0  0  0  0  0  0  0  0  0  0  0
   -6.6177   -0.6470    4.9701 C   0  0  0  0  0  0  0  0  0  0  0  0
   -6.5280   -0.1808    6.3480 O   0  0  0  0  0  0  0  0  0  0  0  0
   -6.6594    3.7637    4.9069 H   0  0  0  0  0  0  0  0  0  0  0  0
   -7.3748    2.2418    4.3864 H   0  0  0  0  0  0  0  0  0  0  0  0
   -5.6001    2.4512    4.3409 H   0  0  0  0  0  0  0  0  0  0  0  0
   -7.9191   -0.6444    7.7281 H   0  0  0  0  0  0  0  0  0  0  0  0
   -6.8015    0.4952    8.5310 H   0  0  0  0  0  0  0  0  0  0  0  0
   -9.1917    0.5181    9.2992 H   0  0  0  0  0  0  0  0  0  0  0  0
   -8.5407    2.0841    8.8535 H   0  0  0  0  0  0  0  0  0  0  0  0
   -9.7567    2.1919    6.8164 H   0  0  0  0  0  0  0  0  0  0  0  0
  -11.3835    1.4976    9.2624 H   0  0  0  0  0  0  0  0  0  0  0  0
  -11.4037    2.9436    8.2310 H   0  0  0  0  0  0  0  0  0  0  0  0
  -13.1910    1.9614    7.3005 H   0  0  0  0  0  0  0  0  0  0  0  0
  -11.7465    1.6516    5.5561 H   0  0  0  0  0  0  0  0  0  0  0  0
  -13.6133    0.1282    5.0541 H   0  0  0  0  0  0  0  0  0  0  0  0
  -12.8913   -1.1424    6.0420 H   0  0  0  0  0  0  0  0  0  0  0  0
  -11.6714    0.1463    3.5322 H   0  0  0  0  0  0  0  0  0  0  0  0
  -12.3438   -1.4590    3.6259 H   0  0  0  0  0  0  0  0  0  0  0  0
  -10.5157   -2.1801    5.1852 H   0  0  0  0  0  0  0  0  0  0  0  0
   -9.4784    0.6948    4.9221 H   0  0  0  0  0  0  0  0  0  0  0  0
   -8.8808   -0.6228    5.9213 H   0  0  0  0  0  0  0  0  0  0  0  0
  -10.7469   -0.6526    7.3489 H   0  0  0  0  0  0  0  0  0  0  0  0
   -7.6076   -2.4366    1.4670 H   0  0  0  0  0  0  0  0  0  0  0  0
   -8.2411   -1.0196    1.8592 H   0  0  0  0  0  0  0  0  0  0  0  0
   -7.8310   -2.2684    5.8094 H   0  0  0  0  0  0  0  0  0  0  0  0
   -6.5498   -4.0970    5.4033 H   0  0  0  0  0  0  0  0  0  0  0  0
   -5.7183   -3.4151    4.0127 H   0  0  0  0  0  0  0  0  0  0  0  0
   -4.2368   -3.4901    6.0799 H   0  0  0  0  0  0  0  0  0  0  0  0
   -5.3754   -2.4610    6.8972 H   0  0  0  0  0  0  0  0  0  0  0  0
   -3.8506   -0.9349    6.1347 H   0  0  0  0  0  0  0  0  0  0  0  0
   -3.4359   -1.8131    4.6783 H   0  0  0  0  0  0  0  0  0  0  0  0
   -5.1627   -0.9947    3.4091 H   0  0  0  0  0  0  0  0  0  0  0  0
   -4.7789    0.3772    4.4241 H   0  0  0  0  0  0  0  0  0  0  0  0
   -7.2258    0.0397    4.3778 H   0  0  0  0  0  0  0  0  0  0  0  0
  1  2  1  0
  2  3  2  0
  2  4  1  0
  4  5  1  0
  5  6  1  0
  6  7  1  0
  7  8  1  0
  8  9  1  0
  9 10  1  0
 10 11  1  0
 11 12  1  0
 12 13  1  0
 13 14  1  0
 14 15  1  0
 13 16  1  0
 16 17  2  0
 17 18  1  0
 17 19  2  0
 17 20  1  0
 20 21  1  0
 21 22  1  0
 22 23  1  0
 23 24  1  0
 24 25  1  0
 25 26  1  0
 26  4  1  0
 15  7  1  0
 25 20  1  0
 15 10  1  0
  1 27  1  0
  1 28  1  0
  1 29  1  0
  5 30  1  0
  5 31  1  0
  6 32  1  0
  6 33  1  0
  7 34  1  0
  8 35  1  0
  8 36  1  0
  9 37  1  0
 10 38  1  0
 11 39  1  0
 11 40  1  0
 12 41  1  0
 12 42  1  0
 13 43  1  0
 14 44  1  0
 14 45  1  0
 15 46  1  0
 18 47  1  0
 18 48  1  0
 20 49  1  0
 21 50  1  0
 21 51  1  0
 22 52  1  0
 22 53  1  0
 23 54  1  0
 23 55  1  0
 24 56  1  0
 24 57  1  0
 25 58  1  0
M  END
>  <Energy>  (1040) 
-27.414581988732223

>  <compound_id>  (1040) 
1351

>  <target_id>  (1040) 
1

>  <reference_id>  (1040) 
95

>  <inspiration_ids>  (1040) 
[95, 73]

>  <energy_score>  (1040) 
-74.18836308048103

>  <distance_score>  (1040) 
3.9145325361249963

>  <path>  (1040) 
/opt/xchem-fragalysis-2/maxwin/BulkDock/SCRATCH/505733/C1351-P95/C1351-P95.minimised.mol

>  <scratch_subdir>  (1040) 
/opt/xchem-fragalysis-2/maxwin/BulkDock/SCRATCH/505733/C1351-P95

>  <fragmenstein_runtime>  (1040) 
8.962005615234375

>  <fragmenstein_outcome>  (1040) 
too moved

>  <fragmenstein_mode>  (1040) 
expansion

>  <fragmenstein_error>  (1040) 


$$$$
C1351-P73
     RDKit          3D

 58 61  0  0  0  0  0  0  0  0999 V2000
   -5.8068    0.5299    2.4855 C   0  0  0  0  0  0  0  0  0  0  0  0
   -6.1553    1.6257    3.4758 C   0  0  0  0  0  0  0  0  0  0  0  0
   -5.4014    2.5542    3.6431 O   0  0  0  0  0  0  0  0  0  0  0  0
   -7.4516    1.3807    4.0044 N   0  0  0  0  0  0  0  0  0  0  0  0
   -8.3349    2.2272    4.8397 C   0  0  0  0  0  0  0  0  0  0  0  0
   -9.6504    2.5549    4.0764 C   0  0  0  0  0  0  0  0  0  0  0  0
  -10.5818    1.3821    3.6644 C   0  0  0  0  0  0  0  0  0  0  0  0
  -12.0814    1.7635    3.7060 C   0  0  0  0  0  0  0  0  0  0  0  0
  -12.6944    0.9157    4.7566 N   0  0  0  0  0  0  0  0  0  0  0  0
  -11.9588   -0.3408    4.6826 C   0  0  0  0  0  0  0  0  0  0  0  0
  -12.0750   -1.3230    5.8617 C   0  0  0  0  0  0  0  0  0  0  0  0
  -10.9696   -2.4142    5.8032 C   0  0  0  0  0  0  0  0  0  0  0  0
   -9.5971   -1.7786    5.5403 C   0  0  0  0  0  0  0  0  0  0  0  0
   -9.6545   -0.9637    4.2539 C   0  0  0  0  0  0  0  0  0  0  0  0
  -10.5425    0.2031    4.6124 C   0  0  0  0  0  0  0  0  0  0  0  0
   -8.5106   -2.7439    5.4006 N   0  0  0  0  0  0  0  0  0  0  0  0
   -7.2876   -2.4688    6.2839 S   0  0  0  0  0  0  0  0  0  0  0  0
   -6.8052   -4.0632    6.3263 N   0  0  0  0  0  0  0  0  0  0  0  0
   -7.3448   -2.1491    7.6865 O   0  0  0  0  0  0  0  0  0  0  0  0
   -6.0275   -1.4952    5.4504 C   0  0  0  0  0  0  0  0  0  0  0  0
   -4.6075   -1.9418    5.8326 C   0  0  0  0  0  0  0  0  0  0  0  0
   -4.2246   -1.5581    7.2619 C   0  0  0  0  0  0  0  0  0  0  0  0
   -4.4486   -0.0864    7.5881 C   0  0  0  0  0  0  0  0  0  0  0  0
   -5.8085    0.4346    7.1372 C   0  0  0  0  0  0  0  0  0  0  0  0
   -6.1094    0.0268    5.6905 C   0  0  0  0  0  0  0  0  0  0  0  0
   -7.3627    0.6064    5.3060 O   0  0  0  0  0  0  0  0  0  0  0  0
   -4.8635    0.0595    2.7742 H   0  0  0  0  0  0  0  0  0  0  0  0
   -5.7036    0.9753    1.4919 H   0  0  0  0  0  0  0  0  0  0  0  0
   -6.5819   -0.2399    2.4356 H   0  0  0  0  0  0  0  0  0  0  0  0
   -8.6250    1.9315    5.8640 H   0  0  0  0  0  0  0  0  0  0  0  0
   -7.7957    3.1764    4.9697 H   0  0  0  0  0  0  0  0  0  0  0  0
  -10.2090    3.2529    4.7137 H   0  0  0  0  0  0  0  0  0  0  0  0
   -9.4033    3.1209    3.1684 H   0  0  0  0  0  0  0  0  0  0  0  0
  -10.3173    1.0608    2.6489 H   0  0  0  0  0  0  0  0  0  0  0  0
  -12.2588    2.8217    3.9186 H   0  0  0  0  0  0  0  0  0  0  0  0
  -12.5442    1.5344    2.7383 H   0  0  0  0  0  0  0  0  0  0  0  0
  -13.6812    0.7646    4.5489 H   0  0  0  0  0  0  0  0  0  0  0  0
  -12.2353   -0.8663    3.7572 H   0  0  0  0  0  0  0  0  0  0  0  0
  -13.0650   -1.7918    5.8740 H   0  0  0  0  0  0  0  0  0  0  0  0
  -11.9739   -0.7775    6.8091 H   0  0  0  0  0  0  0  0  0  0  0  0
  -11.2097   -3.1340    5.0135 H   0  0  0  0  0  0  0  0  0  0  0  0
  -10.9592   -2.9729    6.7451 H   0  0  0  0  0  0  0  0  0  0  0  0
   -9.3927   -1.1179    6.3952 H   0  0  0  0  0  0  0  0  0  0  0  0
  -10.0726   -1.5565    3.4280 H   0  0  0  0  0  0  0  0  0  0  0  0
   -8.6712   -0.6715    3.8998 H   0  0  0  0  0  0  0  0  0  0  0  0
  -10.2820    0.5938    5.6067 H   0  0  0  0  0  0  0  0  0  0  0  0
   -7.1022   -4.3685    7.2463 H   0  0  0  0  0  0  0  0  0  0  0  0
   -7.4736   -4.5205    5.7031 H   0  0  0  0  0  0  0  0  0  0  0  0
   -6.1838   -1.7035    4.3855 H   0  0  0  0  0  0  0  0  0  0  0  0
   -4.4836   -3.0191    5.6973 H   0  0  0  0  0  0  0  0  0  0  0  0
   -3.8938   -1.4703    5.1443 H   0  0  0  0  0  0  0  0  0  0  0  0
   -4.8155   -2.1540    7.9535 H   0  0  0  0  0  0  0  0  0  0  0  0
   -3.1758   -1.8166    7.4460 H   0  0  0  0  0  0  0  0  0  0  0  0
   -4.3288    0.0763    8.6651 H   0  0  0  0  0  0  0  0  0  0  0  0
   -3.6655    0.5037    7.1001 H   0  0  0  0  0  0  0  0  0  0  0  0
   -5.8171    1.5300    7.2128 H   0  0  0  0  0  0  0  0  0  0  0  0
   -6.5998    0.1087    7.8175 H   0  0  0  0  0  0  0  0  0  0  0  0
   -5.2876    0.4666    5.1293 H   0  0  0  0  0  0  0  0  0  0  0  0
  1  2  1  0
  2  3  2  0
  2  4  1  0
  4  5  1  0
  5  6  1  0
  6  7  1  0
  7  8  1  0
  8  9  1  0
  9 10  1  0
 10 11  1  0
 11 12  1  0
 12 13  1  0
 13 14  1  0
 14 15  1  0
 13 16  1  0
 16 17  2  0
 17 18  1  0
 17 19  2  0
 17 20  1  0
 20 21  1  0
 21 22  1  0
 22 23  1  0
 23 24  1  0
 24 25  1  0
 25 26  1  0
 26  4  1  0
 15  7  1  0
 25 20  1  0
 15 10  1  0
  1 27  1  0
  1 28  1  0
  1 29  1  0
  5 30  1  0
  5 31  1  0
  6 32  1  0
  6 33  1  0
  7 34  1  0
  8 35  1  0
  8 36  1  0
  9 37  1  0
 10 38  1  0
 11 39  1  0
 11 40  1  0
 12 41  1  0
 12 42  1  0
 13 43  1  0
 14 44  1  0
 14 45  1  0
 15 46  1  0
 18 47  1  0
 18 48  1  0
 20 49  1  0
 21 50  1  0
 21 51  1  0
 22 52  1  0
 22 53  1  0
 23 54  1  0
 23 55  1  0
 24 56  1  0
 24 57  1  0
 25 58  1  0
M  END
>  <Energy>  (1041) 
-17.575292547601094

>  <compound_id>  (1041) 
1351

>  <target_id>  (1041) 
1

>  <reference_id>  (1041) 
73

>  <inspiration_ids>  (1041) 
[95, 73]

>  <energy_score>  (1041) 
-64.34907363934934

>  <distance_score>  (1041) 
3.095087562184158

>  <path>  (1041) 
/opt/xchem-fragalysis-2/maxwin/BulkDock/SCRATCH/505733/C1351-P73/C1351-P73.minimised.mol

>  <scratch_subdir>  (1041) 
/opt/xchem-fragalysis-2/maxwin/BulkDock/SCRATCH/505733/C1351-P73

>  <fragmenstein_runtime>  (1041) 
9.882183313369751

>  <fragmenstein_outcome>  (1041) 
too moved

>  <fragmenstein_mode>  (1041) 
expansion

>  <fragmenstein_error>  (1041) 


$$$$
C80-P95
     RDKit          3D

 29 30  0  0  0  0  0  0  0  0999 V2000
  -10.0235    2.9664    5.3019 C   0  0  0  0  0  0  0  0  0  0  0  0
   -8.7513    3.3876    6.0053 C   0  0  0  0  0  0  0  0  0  0  0  0
   -8.5737    4.4605    6.4251 O   0  0  0  0  0  0  0  0  0  0  0  0
   -7.8461    2.1323    6.0450 N   0  0  0  0  0  0  0  0  0  0  0  0
   -6.5006    1.9663    6.5249 C   0  0  0  0  0  0  0  0  0  0  0  0
   -6.3376    0.9326    7.6510 C   0  0  0  0  0  0  0  0  0  0  0  0
   -6.3869   -0.4768    7.1751 C   0  0  0  0  0  0  0  0  0  0  0  0
   -5.3433   -1.3530    6.9646 C   0  0  0  0  0  0  0  0  0  0  0  0
   -5.8726   -2.5553    6.5733 N   0  0  0  0  0  0  0  0  0  0  0  0
   -7.2415   -2.4852    6.5440 C   0  0  0  0  0  0  0  0  0  0  0  0
   -8.2032   -3.4593    6.2736 C   0  0  0  0  0  0  0  0  0  0  0  0
   -9.5384   -3.0522    6.2795 C   0  0  0  0  0  0  0  0  0  0  0  0
   -9.8720   -1.7415    6.5842 C   0  0  0  0  0  0  0  0  0  0  0  0
  -11.1392   -1.3345    6.6150 F   0  0  0  0  0  0  0  0  0  0  0  0
   -8.9195   -0.8000    6.9012 C   0  0  0  0  0  0  0  0  0  0  0  0
   -7.5783   -1.1775    6.8751 C   0  0  0  0  0  0  0  0  0  0  0  0
  -10.7029    3.8214    5.2381 H   0  0  0  0  0  0  0  0  0  0  0  0
  -10.5158    2.1694    5.8656 H   0  0  0  0  0  0  0  0  0  0  0  0
   -9.7958    2.6264    4.2879 H   0  0  0  0  0  0  0  0  0  0  0  0
   -8.2778    1.3855    5.5094 H   0  0  0  0  0  0  0  0  0  0  0  0
   -6.1709    2.9456    6.8879 H   0  0  0  0  0  0  0  0  0  0  0  0
   -5.8956    1.7033    5.6514 H   0  0  0  0  0  0  0  0  0  0  0  0
   -7.0991    1.0958    8.4233 H   0  0  0  0  0  0  0  0  0  0  0  0
   -5.3681    1.0832    8.1334 H   0  0  0  0  0  0  0  0  0  0  0  0
   -4.2738   -1.2346    7.0832 H   0  0  0  0  0  0  0  0  0  0  0  0
   -5.3390   -3.3892    6.3758 H   0  0  0  0  0  0  0  0  0  0  0  0
   -7.9292   -4.4852    6.0707 H   0  0  0  0  0  0  0  0  0  0  0  0
  -10.3258   -3.7661    6.0669 H   0  0  0  0  0  0  0  0  0  0  0  0
   -9.2418    0.1865    7.2118 H   0  0  0  0  0  0  0  0  0  0  0  0
  1  2  1  0
  2  3  2  0
  2  4  1  0
  4  5  1  0
  5  6  1  0
  6  7  1  0
  7  8  2  0
  8  9  1  0
  9 10  1  0
 10 11  2  0
 11 12  1  0
 12 13  2  0
 13 14  1  0
 13 15  1  0
 15 16  2  0
 16  7  1  0
 16 10  1  0
  1 17  1  0
  1 18  1  0
  1 19  1  0
  4 20  1  0
  5 21  1  0
  5 22  1  0
  6 23  1  0
  6 24  1  0
  8 25  1  0
  9 26  1  0
 11 27  1  0
 12 28  1  0
 15 29  1  0
M  END
>  <Energy>  (1042) 
14.544414026694135

>  <compound_id>  (1042) 
80

>  <target_id>  (1042) 
1

>  <reference_id>  (1042) 
95

>  <inspiration_ids>  (1042) 
[95, 74]

>  <energy_score>  (1042) 
5.65497610716713

>  <distance_score>  (1042) 
1.5744284818850798

>  <path>  (1042) 
/opt/xchem-fragalysis-2/maxwin/BulkDock/SCRATCH/505733/C80-P95/C80-P95.minimised.mol

>  <scratch_subdir>  (1042) 
/opt/xchem-fragalysis-2/maxwin/BulkDock/SCRATCH/505733/C80-P95

>  <fragmenstein_runtime>  (1042) 
2.48712420463562

>  <fragmenstein_outcome>  (1042) 
too moved

>  <fragmenstein_mode>  (1042) 
expansion

>  <fragmenstein_error>  (1042) 


$$$$
C80-P74
     RDKit          3D

 29 30  0  0  0  0  0  0  0  0999 V2000
  -10.0997    1.5252    9.7054 C   0  0  0  0  0  0  0  0  0  0  0  0
   -9.3304    2.3840    8.7252 C   0  0  0  0  0  0  0  0  0  0  0  0
   -9.6820    3.4466    8.3979 O   0  0  0  0  0  0  0  0  0  0  0  0
   -8.1045    1.5504    8.2771 N   0  0  0  0  0  0  0  0  0  0  0  0
   -7.1165    1.8134    7.2681 C   0  0  0  0  0  0  0  0  0  0  0  0
   -6.0248    0.7598    7.1387 C   0  0  0  0  0  0  0  0  0  0  0  0
   -6.3891   -0.6586    6.8703 C   0  0  0  0  0  0  0  0  0  0  0  0
   -5.5005   -1.7115    6.9652 C   0  0  0  0  0  0  0  0  0  0  0  0
   -6.1802   -2.8687    6.7173 N   0  0  0  0  0  0  0  0  0  0  0  0
   -7.5076   -2.6053    6.5152 C   0  0  0  0  0  0  0  0  0  0  0  0
   -8.5873   -3.4798    6.3667 C   0  0  0  0  0  0  0  0  0  0  0  0
   -9.8397   -2.9090    6.1556 C   0  0  0  0  0  0  0  0  0  0  0  0
   -9.9691   -1.5335    6.0683 C   0  0  0  0  0  0  0  0  0  0  0  0
  -11.1728   -0.9767    5.9448 F   0  0  0  0  0  0  0  0  0  0  0  0
   -8.8912   -0.6769    6.1730 C   0  0  0  0  0  0  0  0  0  0  0  0
   -7.6393   -1.2167    6.4814 C   0  0  0  0  0  0  0  0  0  0  0  0
  -10.6973    2.1690   10.3572 H   0  0  0  0  0  0  0  0  0  0  0  0
   -9.4249    0.9421   10.3344 H   0  0  0  0  0  0  0  0  0  0  0  0
  -10.7604    0.8522    9.1529 H   0  0  0  0  0  0  0  0  0  0  0  0
   -8.1461    0.6287    8.7039 H   0  0  0  0  0  0  0  0  0  0  0  0
   -6.6661    2.7819    7.5148 H   0  0  0  0  0  0  0  0  0  0  0  0
   -7.6375    1.9683    6.3181 H   0  0  0  0  0  0  0  0  0  0  0  0
   -5.3987    1.0737    6.2973 H   0  0  0  0  0  0  0  0  0  0  0  0
   -5.4077    0.7792    8.0433 H   0  0  0  0  0  0  0  0  0  0  0  0
   -4.4475   -1.7355    7.2164 H   0  0  0  0  0  0  0  0  0  0  0  0
   -5.7816   -3.7944    6.7517 H   0  0  0  0  0  0  0  0  0  0  0  0
   -8.4659   -4.5534    6.4476 H   0  0  0  0  0  0  0  0  0  0  0  0
  -10.7203   -3.5344    6.0755 H   0  0  0  0  0  0  0  0  0  0  0  0
   -9.0836    0.3851    6.1001 H   0  0  0  0  0  0  0  0  0  0  0  0
  1  2  1  0
  2  3  2  0
  2  4  1  0
  4  5  1  0
  5  6  1  0
  6  7  1  0
  7  8  2  0
  8  9  1  0
  9 10  1  0
 10 11  2  0
 11 12  1  0
 12 13  2  0
 13 14  1  0
 13 15  1  0
 15 16  2  0
 16  7  1  0
 16 10  1  0
  1 17  1  0
  1 18  1  0
  1 19  1  0
  4 20  1  0
  5 21  1  0
  5 22  1  0
  6 23  1  0
  6 24  1  0
  8 25  1  0
  9 26  1  0
 11 27  1  0
 12 28  1  0
 15 29  1  0
M  END
>  <Energy>  (1043) 
19.244703685058266

>  <compound_id>  (1043) 
80

>  <target_id>  (1043) 
1

>  <reference_id>  (1043) 
74

>  <inspiration_ids>  (1043) 
[95, 74]

>  <energy_score>  (1043) 
10.355265765532351

>  <distance_score>  (1043) 
1.3786588446897858

>  <path>  (1043) 
/opt/xchem-fragalysis-2/maxwin/BulkDock/SCRATCH/505733/C80-P74/C80-P74.minimised.mol

>  <scratch_subdir>  (1043) 
/opt/xchem-fragalysis-2/maxwin/BulkDock/SCRATCH/505733/C80-P74

>  <fragmenstein_runtime>  (1043) 
2.287468433380127

>  <fragmenstein_outcome>  (1043) 
too moved

>  <fragmenstein_mode>  (1043) 
expansion

>  <fragmenstein_error>  (1043) 


$$$$
C1352-P95
     RDKit          3D

 39 40  0  0  0  0  0  0  0  0999 V2000
   -3.7226   -2.3865    7.0057 C   0  0  0  0  0  0  0  0  0  0  0  0
   -4.4128   -2.3317    5.6588 C   0  0  0  0  0  0  0  0  0  0  0  0
   -4.9945   -3.2261    5.2009 O   0  0  0  0  0  0  0  0  0  0  0  0
   -4.2503   -0.8876    5.1578 N   0  0  0  0  0  0  0  0  0  0  0  0
   -4.8482   -0.2160    4.0374 C   0  0  0  0  0  0  0  0  0  0  0  0
   -5.9819    0.6764    4.5942 C   0  0  0  0  0  0  0  0  0  0  0  0
   -6.6962   -0.0221    5.7268 C   0  0  0  0  0  0  0  0  0  0  0  0
   -6.3129    0.0026    7.0615 C   0  0  0  0  0  0  0  0  0  0  0  0
   -6.9786   -0.9858    7.7294 N   0  0  0  0  0  0  0  0  0  0  0  0
   -7.8642   -1.5706    6.8846 C   0  0  0  0  0  0  0  0  0  0  0  0
   -7.8033   -0.9187    5.6629 C   0  0  0  0  0  0  0  0  0  0  0  0
   -8.8849   -1.1118    4.6233 C   0  0  0  0  0  0  0  0  0  0  0  0
   -9.1619    0.2188    3.9019 C   0  0  0  0  0  0  0  0  0  0  0  0
   -8.5977   -2.2115    3.5916 C   0  0  0  0  0  0  0  0  0  0  0  0
   -7.7840   -3.1158    3.6914 O   0  0  0  0  0  0  0  0  0  0  0  0
   -9.3953   -2.1760    2.4872 O   0  0  0  0  0  0  0  0  0  0  0  0
  -10.1507   -1.5316    5.4199 C   0  0  0  0  0  0  0  0  0  0  0  0
  -10.5010   -0.4900    6.2461 F   0  0  0  0  0  0  0  0  0  0  0  0
   -9.9447   -2.7757    6.2959 C   0  0  0  0  0  0  0  0  0  0  0  0
   -8.8465   -2.5875    7.3377 C   0  0  0  0  0  0  0  0  0  0  0  0
   -4.3683   -1.9411    7.7618 H   0  0  0  0  0  0  0  0  0  0  0  0
   -3.5321   -3.4296    7.2677 H   0  0  0  0  0  0  0  0  0  0  0  0
   -2.7798   -1.8381    7.0043 H   0  0  0  0  0  0  0  0  0  0  0  0
   -3.7432   -0.3462    5.8461 H   0  0  0  0  0  0  0  0  0  0  0  0
   -4.0910    0.3768    3.5181 H   0  0  0  0  0  0  0  0  0  0  0  0
   -5.2543   -0.9751    3.3615 H   0  0  0  0  0  0  0  0  0  0  0  0
   -5.5528    1.6084    4.9816 H   0  0  0  0  0  0  0  0  0  0  0  0
   -6.6446    0.9737    3.7826 H   0  0  0  0  0  0  0  0  0  0  0  0
   -5.5523    0.5625    7.5807 H   0  0  0  0  0  0  0  0  0  0  0  0
   -6.8680   -1.2138    8.7079 H   0  0  0  0  0  0  0  0  0  0  0  0
   -9.0587    1.0844    4.5670 H   0  0  0  0  0  0  0  0  0  0  0  0
  -10.1874    0.2613    3.5149 H   0  0  0  0  0  0  0  0  0  0  0  0
   -8.5037    0.3624    3.0390 H   0  0  0  0  0  0  0  0  0  0  0  0
  -10.0475   -1.4532    2.4428 H   0  0  0  0  0  0  0  0  0  0  0  0
  -10.9907   -1.6854    4.7372 H   0  0  0  0  0  0  0  0  0  0  0  0
   -9.7119   -3.6425    5.6665 H   0  0  0  0  0  0  0  0  0  0  0  0
  -10.8723   -3.0103    6.8279 H   0  0  0  0  0  0  0  0  0  0  0  0
   -8.3548   -3.5430    7.5503 H   0  0  0  0  0  0  0  0  0  0  0  0
   -9.2969   -2.2363    8.2728 H   0  0  0  0  0  0  0  0  0  0  0  0
  1  2  1  0
  2  3  2  0
  2  4  1  0
  4  5  1  0
  5  6  1  0
  6  7  1  0
  7  8  2  0
  8  9  1  0
  9 10  1  0
 10 11  2  0
 11 12  1  0
 12 13  1  0
 12 14  1  0
 14 15  2  0
 14 16  1  0
 12 17  1  0
 17 18  1  0
 17 19  1  0
 19 20  1  0
 11  7  1  0
 20 10  1  0
  1 21  1  0
  1 22  1  0
  1 23  1  0
  4 24  1  0
  5 25  1  0
  5 26  1  0
  6 27  1  0
  6 28  1  0
  8 29  1  0
  9 30  1  0
 13 31  1  0
 13 32  1  0
 13 33  1  0
 16 34  1  0
 17 35  1  0
 19 36  1  0
 19 37  1  0
 20 38  1  0
 20 39  1  0
M  END
>  <Energy>  (1044) 
53.912342900772103

>  <compound_id>  (1044) 
1352

>  <target_id>  (1044) 
1

>  <reference_id>  (1044) 
95

>  <inspiration_ids>  (1044) 
[95, 84]

>  <energy_score>  (1044) 
15.081658519475695

>  <distance_score>  (1044) 
2.465366238618209

>  <path>  (1044) 
/opt/xchem-fragalysis-2/maxwin/BulkDock/SCRATCH/505733/C1352-P95/C1352-P95.minimised.mol

>  <scratch_subdir>  (1044) 
/opt/xchem-fragalysis-2/maxwin/BulkDock/SCRATCH/505733/C1352-P95

>  <fragmenstein_runtime>  (1044) 
4.183368682861328

>  <fragmenstein_outcome>  (1044) 
too moved

>  <fragmenstein_mode>  (1044) 
expansion

>  <fragmenstein_error>  (1044) 


$$$$
C1352-P84
     RDKit          3D

 39 40  0  0  0  0  0  0  0  0999 V2000
   -5.7647    3.7962    7.0287 C   0  0  0  0  0  0  0  0  0  0  0  0
   -6.0893    2.3196    6.9640 C   0  0  0  0  0  0  0  0  0  0  0  0
   -7.1370    1.9029    6.6702 O   0  0  0  0  0  0  0  0  0  0  0  0
   -4.7764    1.5753    7.3242 N   0  0  0  0  0  0  0  0  0  0  0  0
   -4.5101    0.1488    7.4900 C   0  0  0  0  0  0  0  0  0  0  0  0
   -5.1324   -0.7474    6.4184 C   0  0  0  0  0  0  0  0  0  0  0  0
   -6.4543   -1.3347    6.7666 C   0  0  0  0  0  0  0  0  0  0  0  0
   -6.9973   -1.4190    8.0336 C   0  0  0  0  0  0  0  0  0  0  0  0
   -8.1609   -2.1281    7.9852 N   0  0  0  0  0  0  0  0  0  0  0  0
   -8.3983   -2.4821    6.7033 C   0  0  0  0  0  0  0  0  0  0  0  0
   -7.4379   -1.8980    5.8988 C   0  0  0  0  0  0  0  0  0  0  0  0
   -7.6765   -1.8558    4.4071 C   0  0  0  0  0  0  0  0  0  0  0  0
   -6.9954   -0.6967    3.6736 C   0  0  0  0  0  0  0  0  0  0  0  0
   -7.2421   -3.1598    3.7438 C   0  0  0  0  0  0  0  0  0  0  0  0
   -7.8997   -3.8650    2.9887 O   0  0  0  0  0  0  0  0  0  0  0  0
   -5.9662   -3.5115    4.0268 O   0  0  0  0  0  0  0  0  0  0  0  0
   -9.2120   -1.6477    4.2617 C   0  0  0  0  0  0  0  0  0  0  0  0
   -9.5422   -0.4594    4.8833 F   0  0  0  0  0  0  0  0  0  0  0  0
  -10.0846   -2.7305    4.9059 C   0  0  0  0  0  0  0  0  0  0  0  0
   -9.6295   -3.1870    6.2892 C   0  0  0  0  0  0  0  0  0  0  0  0
   -5.3797    4.0577    8.0179 H   0  0  0  0  0  0  0  0  0  0  0  0
   -6.6744    4.3757    6.8468 H   0  0  0  0  0  0  0  0  0  0  0  0
   -5.0274    4.0465    6.2610 H   0  0  0  0  0  0  0  0  0  0  0  0
   -4.0701    2.2503    7.6120 H   0  0  0  0  0  0  0  0  0  0  0  0
   -3.4206    0.0442    7.4585 H   0  0  0  0  0  0  0  0  0  0  0  0
   -4.7883   -0.1358    8.5048 H   0  0  0  0  0  0  0  0  0  0  0  0
   -5.2123   -0.1983    5.4830 H   0  0  0  0  0  0  0  0  0  0  0  0
   -4.4505   -1.5893    6.2395 H   0  0  0  0  0  0  0  0  0  0  0  0
   -6.6585   -1.0405    8.9849 H   0  0  0  0  0  0  0  0  0  0  0  0
   -8.7851   -2.3230    8.7593 H   0  0  0  0  0  0  0  0  0  0  0  0
   -7.1742    0.2645    4.1678 H   0  0  0  0  0  0  0  0  0  0  0  0
   -7.3647   -0.6142    2.6438 H   0  0  0  0  0  0  0  0  0  0  0  0
   -5.9138   -0.8461    3.5890 H   0  0  0  0  0  0  0  0  0  0  0  0
   -5.8640   -4.4121    3.6583 H   0  0  0  0  0  0  0  0  0  0  0  0
   -9.5004   -1.5408    3.2093 H   0  0  0  0  0  0  0  0  0  0  0  0
  -10.1527   -3.6040    4.2476 H   0  0  0  0  0  0  0  0  0  0  0  0
  -11.0996   -2.3284    4.9952 H   0  0  0  0  0  0  0  0  0  0  0  0
   -9.4408   -4.2661    6.2784 H   0  0  0  0  0  0  0  0  0  0  0  0
  -10.4380   -3.0058    7.0054 H   0  0  0  0  0  0  0  0  0  0  0  0
  1  2  1  0
  2  3  2  0
  2  4  1  0
  4  5  1  0
  5  6  1  0
  6  7  1  0
  7  8  2  0
  8  9  1  0
  9 10  1  0
 10 11  2  0
 11 12  1  0
 12 13  1  0
 12 14  1  0
 14 15  2  0
 14 16  1  0
 12 17  1  0
 17 18  1  0
 17 19  1  0
 19 20  1  0
 11  7  1  0
 20 10  1  0
  1 21  1  0
  1 22  1  0
  1 23  1  0
  4 24  1  0
  5 25  1  0
  5 26  1  0
  6 27  1  0
  6 28  1  0
  8 29  1  0
  9 30  1  0
 13 31  1  0
 13 32  1  0
 13 33  1  0
 16 34  1  0
 17 35  1  0
 19 36  1  0
 19 37  1  0
 20 38  1  0
 20 39  1  0
M  END
>  <Energy>  (1045) 
40.497130580192113

>  <compound_id>  (1045) 
1352

>  <target_id>  (1045) 
1

>  <reference_id>  (1045) 
84

>  <inspiration_ids>  (1045) 
[95, 84]

>  <energy_score>  (1045) 
1.666446198896267

>  <distance_score>  (1045) 
3.078599909599861

>  <path>  (1045) 
/opt/xchem-fragalysis-2/maxwin/BulkDock/SCRATCH/505733/C1352-P84/C1352-P84.minimised.mol

>  <scratch_subdir>  (1045) 
/opt/xchem-fragalysis-2/maxwin/BulkDock/SCRATCH/505733/C1352-P84

>  <fragmenstein_runtime>  (1045) 
3.8618147373199463

>  <fragmenstein_outcome>  (1045) 
too moved

>  <fragmenstein_mode>  (1045) 
expansion

>  <fragmenstein_error>  (1045) 


$$$$
C80-P95
     RDKit          2D

  0  0  0  0  0  0  0  0  0  0999 V2000
M  END
>  <compound_id>  (1046) 
80

>  <target_id>  (1046) 
1

>  <reference_id>  (1046) 
95

>  <inspiration_ids>  (1046) 
[95, 126]

>  <energy_score>  (1046) 
nan

>  <distance_score>  (1046) 
nan

>  <path>  (1046) 
/opt/xchem-fragalysis-2/maxwin/BulkDock/SCRATCH/505733/C80-P95/C80-P95.minimised.mol

>  <scratch_subdir>  (1046) 
/opt/xchem-fragalysis-2/maxwin/BulkDock/SCRATCH/505733/C80-P95

>  <fragmenstein_runtime>  (1046) 
0.3775758743286133

>  <fragmenstein_outcome>  (1046) 
too distant

>  <fragmenstein_mode>  (1046) 
expansion

>  <fragmenstein_error>  (1046) 
DistanceError: hit0

$$$$
C80-P95
     RDKit          2D

  0  0  0  0  0  0  0  0  0  0999 V2000
M  END
>  <compound_id>  (1047) 
80

>  <target_id>  (1047) 
1

>  <reference_id>  (1047) 
95

>  <inspiration_ids>  (1047) 
[95, 143]

>  <energy_score>  (1047) 
nan

>  <distance_score>  (1047) 
nan

>  <path>  (1047) 
/opt/xchem-fragalysis-2/maxwin/BulkDock/SCRATCH/505733/C80-P95/C80-P95.minimised.mol

>  <scratch_subdir>  (1047) 
/opt/xchem-fragalysis-2/maxwin/BulkDock/SCRATCH/505733/C80-P95

>  <fragmenstein_runtime>  (1047) 
2.885061264038086

>  <fragmenstein_outcome>  (1047) 
too distant

>  <fragmenstein_mode>  (1047) 
expansion

>  <fragmenstein_error>  (1047) 
DistanceError: hit0

$$$$
C1358-P95
     RDKit          3D

 39 40  0  0  0  0  0  0  0  0999 V2000
   -5.7770   -0.9386    0.4185 C   0  0  0  0  0  0  0  0  0  0  0  0
   -6.7665   -1.7236    1.2656 C   0  0  0  0  0  0  0  0  0  0  0  0
   -6.8237   -1.2060    2.6832 C   0  0  0  0  0  0  0  0  0  0  0  0
   -5.9504   -1.7867    3.6401 C   0  0  0  0  0  0  0  0  0  0  0  0
   -5.0829   -2.7457    3.2761 F   0  0  0  0  0  0  0  0  0  0  0  0
   -5.9614   -1.4222    4.9709 C   0  0  0  0  0  0  0  0  0  0  0  0
   -6.8453   -0.4442    5.3903 C   0  0  0  0  0  0  0  0  0  0  0  0
   -6.9927   -0.2055    6.7291 O   0  0  0  0  0  0  0  0  0  0  0  0
   -8.2728   -0.6711    7.1966 C   0  0  0  0  0  0  0  0  0  0  0  0
   -8.6344   -1.7919    6.5231 F   0  0  0  0  0  0  0  0  0  0  0  0
   -7.5868    0.2581    4.4469 C   0  0  0  0  0  0  0  0  0  0  0  0
   -8.3762    1.3634    4.6328 N   0  0  0  0  0  0  0  0  0  0  0  0
   -8.9962    1.7005    3.4775 C   0  0  0  0  0  0  0  0  0  0  0  0
   -8.6414    0.7730    2.5201 C   0  0  0  0  0  0  0  0  0  0  0  0
   -9.2983    0.7214    1.1789 C   0  0  0  0  0  0  0  0  0  0  0  0
  -10.4765   -0.2669    1.1989 C   0  0  0  0  0  0  0  0  0  0  0  0
  -11.0255   -0.5752   -0.0993 N   0  0  0  0  0  0  0  0  0  0  0  0
  -11.3192    0.3433   -1.3102 C   0  0  0  0  0  0  0  0  0  0  0  0
  -11.9911   -0.5303   -2.3470 C   0  0  0  0  0  0  0  0  0  0  0  0
  -11.0915    1.4752   -1.4726 O   0  0  0  0  0  0  0  0  0  0  0  0
   -7.6489   -0.1138    3.1058 C   0  0  0  0  0  0  0  0  0  0  0  0
   -5.7574   -1.3325   -0.6025 H   0  0  0  0  0  0  0  0  0  0  0  0
   -6.0457    0.1217    0.3682 H   0  0  0  0  0  0  0  0  0  0  0  0
   -4.7632   -1.0066    0.8276 H   0  0  0  0  0  0  0  0  0  0  0  0
   -7.7627   -1.6820    0.8149 H   0  0  0  0  0  0  0  0  0  0  0  0
   -6.4896   -2.7850    1.2664 H   0  0  0  0  0  0  0  0  0  0  0  0
   -5.3335   -1.9482    5.6814 H   0  0  0  0  0  0  0  0  0  0  0  0
   -8.1822   -0.9192    8.2568 H   0  0  0  0  0  0  0  0  0  0  0  0
   -9.0391    0.0990    7.0685 H   0  0  0  0  0  0  0  0  0  0  0  0
   -8.4755    1.8508    5.5121 H   0  0  0  0  0  0  0  0  0  0  0  0
   -9.6901    2.5308    3.4373 H   0  0  0  0  0  0  0  0  0  0  0  0
   -9.6557    1.7177    0.8906 H   0  0  0  0  0  0  0  0  0  0  0  0
   -8.5702    0.4310    0.4144 H   0  0  0  0  0  0  0  0  0  0  0  0
  -10.1786   -1.2235    1.6429 H   0  0  0  0  0  0  0  0  0  0  0  0
  -11.2953    0.1359    1.8055 H   0  0  0  0  0  0  0  0  0  0  0  0
  -11.4366   -1.4970   -0.2620 H   0  0  0  0  0  0  0  0  0  0  0  0
  -12.9563   -0.8788   -1.9696 H   0  0  0  0  0  0  0  0  0  0  0  0
  -11.3517   -1.3826   -2.5930 H   0  0  0  0  0  0  0  0  0  0  0  0
  -12.1597    0.0517   -3.2577 H   0  0  0  0  0  0  0  0  0  0  0  0
  1  2  1  0
  2  3  1  0
  3  4  2  0
  4  5  1  0
  4  6  1  0
  6  7  2  0
  7  8  1  0
  8  9  1  0
  9 10  1  0
  7 11  1  0
 11 12  1  0
 12 13  1  0
 13 14  2  0
 14 15  1  0
 15 16  1  0
 16 17  1  0
 17 18  1  0
 18 19  1  0
 18 20  2  0
 14 21  1  0
 21  3  1  0
 21 11  2  0
  1 22  1  0
  1 23  1  0
  1 24  1  0
  2 25  1  0
  2 26  1  0
  6 27  1  0
  9 28  1  0
  9 29  1  0
 12 30  1  0
 13 31  1  0
 15 32  1  0
 15 33  1  0
 16 34  1  0
 16 35  1  0
 17 36  1  0
 19 37  1  0
 19 38  1  0
 19 39  1  0
M  END
>  <Energy>  (1048) 
24.811114262935725

>  <compound_id>  (1048) 
1358

>  <target_id>  (1048) 
1

>  <reference_id>  (1048) 
95

>  <inspiration_ids>  (1048) 
[95, 182]

>  <energy_score>  (1048) 
-61.587923982145384

>  <distance_score>  (1048) 
2.6129867698787166

>  <path>  (1048) 
/opt/xchem-fragalysis-2/maxwin/BulkDock/SCRATCH/505733/C1358-P95/C1358-P95.minimised.mol

>  <scratch_subdir>  (1048) 
/opt/xchem-fragalysis-2/maxwin/BulkDock/SCRATCH/505733/C1358-P95

>  <fragmenstein_runtime>  (1048) 
5.819265842437744

>  <fragmenstein_outcome>  (1048) 
too moved

>  <fragmenstein_mode>  (1048) 
expansion

>  <fragmenstein_error>  (1048) 


$$$$
C1358-P182
     RDKit          3D

 39 40  0  0  0  0  0  0  0  0999 V2000
   -5.0590   -0.4717    0.7686 C   0  0  0  0  0  0  0  0  0  0  0  0
   -6.2221   -1.3164    1.2662 C   0  0  0  0  0  0  0  0  0  0  0  0
   -6.5375   -1.0362    2.7162 C   0  0  0  0  0  0  0  0  0  0  0  0
   -5.8136   -1.7562    3.7048 C   0  0  0  0  0  0  0  0  0  0  0  0
   -4.8718   -2.6464    3.3468 F   0  0  0  0  0  0  0  0  0  0  0  0
   -6.0296   -1.5833    5.0582 C   0  0  0  0  0  0  0  0  0  0  0  0
   -6.9904   -0.6798    5.4717 C   0  0  0  0  0  0  0  0  0  0  0  0
   -7.2824   -0.5049    6.7917 O   0  0  0  0  0  0  0  0  0  0  0  0
   -8.3443   -1.3731    7.2030 C   0  0  0  0  0  0  0  0  0  0  0  0
   -9.3494   -1.3421    6.2885 F   0  0  0  0  0  0  0  0  0  0  0  0
   -7.6394    0.1073    4.5283 C   0  0  0  0  0  0  0  0  0  0  0  0
   -8.5459    1.1106    4.7573 N   0  0  0  0  0  0  0  0  0  0  0  0
   -8.9494    1.6552    3.5859 C   0  0  0  0  0  0  0  0  0  0  0  0
   -8.3441    0.9585    2.5599 C   0  0  0  0  0  0  0  0  0  0  0  0
   -8.6488    1.2459    1.1289 C   0  0  0  0  0  0  0  0  0  0  0  0
   -9.7577    0.3388    0.5898 C   0  0  0  0  0  0  0  0  0  0  0  0
   -9.9701    0.5115   -0.8277 N   0  0  0  0  0  0  0  0  0  0  0  0
  -10.4108    1.7582   -1.6337 C   0  0  0  0  0  0  0  0  0  0  0  0
  -10.5597    1.3011   -3.0683 C   0  0  0  0  0  0  0  0  0  0  0  0
  -10.5952    2.8556   -1.2864 O   0  0  0  0  0  0  0  0  0  0  0  0
   -7.4652   -0.0372    3.1563 C   0  0  0  0  0  0  0  0  0  0  0  0
   -4.8634   -0.6826   -0.2875 H   0  0  0  0  0  0  0  0  0  0  0  0
   -5.2706    0.5981    0.8682 H   0  0  0  0  0  0  0  0  0  0  0  0
   -4.1437   -0.6852    1.3311 H   0  0  0  0  0  0  0  0  0  0  0  0
   -7.1062   -1.1318    0.6492 H   0  0  0  0  0  0  0  0  0  0  0  0
   -5.9889   -2.3804    1.1367 H   0  0  0  0  0  0  0  0  0  0  0  0
   -5.4675   -2.1721    5.7742 H   0  0  0  0  0  0  0  0  0  0  0  0
   -7.9844   -2.4016    7.3125 H   0  0  0  0  0  0  0  0  0  0  0  0
   -8.7380   -1.0178    8.1586 H   0  0  0  0  0  0  0  0  0  0  0  0
   -8.8462    1.3967    5.6794 H   0  0  0  0  0  0  0  0  0  0  0  0
   -9.6623    2.4698    3.5659 H   0  0  0  0  0  0  0  0  0  0  0  0
   -7.7409    1.1270    0.5267 H   0  0  0  0  0  0  0  0  0  0  0  0
   -8.9420    2.2970    1.0102 H   0  0  0  0  0  0  0  0  0  0  0  0
   -9.5262   -0.7181    0.7572 H   0  0  0  0  0  0  0  0  0  0  0  0
  -10.7062    0.5623    1.0903 H   0  0  0  0  0  0  0  0  0  0  0  0
   -9.9866   -0.3043   -1.4296 H   0  0  0  0  0  0  0  0  0  0  0  0
   -9.6112    0.8981   -3.4335 H   0  0  0  0  0  0  0  0  0  0  0  0
  -11.3442    0.5427   -3.1384 H   0  0  0  0  0  0  0  0  0  0  0  0
  -10.8405    2.1536   -3.6937 H   0  0  0  0  0  0  0  0  0  0  0  0
  1  2  1  0
  2  3  1  0
  3  4  2  0
  4  5  1  0
  4  6  1  0
  6  7  2  0
  7  8  1  0
  8  9  1  0
  9 10  1  0
  7 11  1  0
 11 12  1  0
 12 13  1  0
 13 14  2  0
 14 15  1  0
 15 16  1  0
 16 17  1  0
 17 18  1  0
 18 19  1  0
 18 20  2  0
 14 21  1  0
 21  3  1  0
 21 11  2  0
  1 22  1  0
  1 23  1  0
  1 24  1  0
  2 25  1  0
  2 26  1  0
  6 27  1  0
  9 28  1  0
  9 29  1  0
 12 30  1  0
 13 31  1  0
 15 32  1  0
 15 33  1  0
 16 34  1  0
 16 35  1  0
 17 36  1  0
 19 37  1  0
 19 38  1  0
 19 39  1  0
M  END
>  <Energy>  (1049) 
21.041858546156266

>  <compound_id>  (1049) 
1358

>  <target_id>  (1049) 
1

>  <reference_id>  (1049) 
182

>  <inspiration_ids>  (1049) 
[95, 182]

>  <energy_score>  (1049) 
-65.35717969892372

>  <distance_score>  (1049) 
2.6636786906458165

>  <path>  (1049) 
/opt/xchem-fragalysis-2/maxwin/BulkDock/SCRATCH/505733/C1358-P182/C1358-P182.minimised.mol

>  <scratch_subdir>  (1049) 
/opt/xchem-fragalysis-2/maxwin/BulkDock/SCRATCH/505733/C1358-P182

>  <fragmenstein_runtime>  (1049) 
5.989291429519653

>  <fragmenstein_outcome>  (1049) 
too moved

>  <fragmenstein_mode>  (1049) 
expansion

>  <fragmenstein_error>  (1049) 


$$$$
C1360-P96
     RDKit          3D

 49 49  0  0  0  0  0  0  0  0999 V2000
  -12.9704  -16.3209   35.8583 C   0  0  0  0  0  0  0  0  0  0  0  0
  -13.3233  -16.9799   34.6076 N   0  0  0  0  0  0  0  0  0  0  0  0
  -12.8950  -18.3755   34.5396 C   0  0  0  0  0  0  0  0  0  0  0  0
  -11.7025  -18.4241   33.8142 O   0  0  0  0  0  0  0  0  0  0  0  0
  -13.9651  -19.2330   33.8577 C   0  0  0  0  0  0  0  0  0  0  0  0
  -13.6097  -20.7115   33.6803 C   0  0  0  0  0  0  0  0  0  0  0  0
  -14.7339  -21.3536   33.0420 O   0  0  0  0  0  0  0  0  0  0  0  0
  -12.3799  -21.1766   32.9521 C   0  0  0  0  0  0  0  0  0  0  0  0
  -12.3304  -21.4338   31.5874 C   0  0  0  0  0  0  0  0  0  0  0  0
  -11.2665  -22.1586   31.0360 C   0  0  0  0  0  0  0  0  0  0  0  0
  -11.3393  -22.6187   29.7085 N   0  0  0  0  0  0  0  0  0  0  0  0
  -11.9861  -23.9359   29.6815 C   0  0  0  0  0  0  0  0  0  0  0  0
  -10.9570  -25.0362   29.4451 C   0  0  0  0  0  0  0  0  0  0  0  0
  -10.1269  -24.8241   28.1789 C   0  0  0  0  0  0  0  0  0  0  0  0
  -10.9563  -24.5181   26.9209 C   0  0  0  0  0  0  0  0  0  0  0  0
  -11.8609  -25.5813   26.5536 N   0  0  0  0  0  0  0  0  0  0  0  0
  -13.4050  -25.6333   26.5648 C   0  0  0  0  0  0  0  0  0  0  0  0
  -13.8079  -27.0396   26.1888 C   0  0  0  0  0  0  0  0  0  0  0  0
  -14.1861  -24.8022   26.7985 O   0  0  0  0  0  0  0  0  0  0  0  0
  -10.2505  -22.6473   31.8617 C   0  0  0  0  0  0  0  0  0  0  0  0
  -10.2620  -22.3592   33.2107 C   0  0  0  0  0  0  0  0  0  0  0  0
  -11.2986  -21.5873   33.7200 C   0  0  0  0  0  0  0  0  0  0  0  0
  -11.2831  -21.2325   35.0031 F   0  0  0  0  0  0  0  0  0  0  0  0
  -13.5675  -16.7014   36.6891 H   0  0  0  0  0  0  0  0  0  0  0  0
  -11.9058  -16.4213   36.0887 H   0  0  0  0  0  0  0  0  0  0  0  0
  -13.1907  -15.2515   35.7748 H   0  0  0  0  0  0  0  0  0  0  0  0
  -12.7935  -16.4723   33.8898 H   0  0  0  0  0  0  0  0  0  0  0  0
  -12.6835  -18.8100   35.5034 H   0  0  0  0  0  0  0  0  0  0  0  0
  -11.1384  -17.7200   34.1703 H   0  0  0  0  0  0  0  0  0  0  0  0
  -14.8832  -19.1759   34.4610 H   0  0  0  0  0  0  0  0  0  0  0  0
  -14.2756  -18.8419   32.8874 H   0  0  0  0  0  0  0  0  0  0  0  0
  -13.5969  -21.1660   34.6721 H   0  0  0  0  0  0  0  0  0  0  0  0
  -15.5432  -21.0740   33.4983 H   0  0  0  0  0  0  0  0  0  0  0  0
  -13.1991  -21.2008   30.9906 H   0  0  0  0  0  0  0  0  0  0  0  0
  -11.8630  -21.9593   29.1329 H   0  0  0  0  0  0  0  0  0  0  0  0
  -12.7381  -23.9369   28.8880 H   0  0  0  0  0  0  0  0  0  0  0  0
  -12.5474  -24.1582   30.6000 H   0  0  0  0  0  0  0  0  0  0  0  0
  -10.2796  -25.1267   30.3011 H   0  0  0  0  0  0  0  0  0  0  0  0
  -11.4850  -25.9951   29.3732 H   0  0  0  0  0  0  0  0  0  0  0  0
   -9.5247  -25.7208   28.0016 H   0  0  0  0  0  0  0  0  0  0  0  0
   -9.4246  -23.9985   28.3416 H   0  0  0  0  0  0  0  0  0  0  0  0
  -11.5357  -23.5972   27.0323 H   0  0  0  0  0  0  0  0  0  0  0  0
  -10.3005  -24.3679   26.0614 H   0  0  0  0  0  0  0  0  0  0  0  0
  -11.4915  -26.4751   26.2226 H   0  0  0  0  0  0  0  0  0  0  0  0
  -13.3763  -27.7552   26.8930 H   0  0  0  0  0  0  0  0  0  0  0  0
  -13.4918  -27.2602   25.1679 H   0  0  0  0  0  0  0  0  0  0  0  0
  -14.8975  -27.1282   26.2384 H   0  0  0  0  0  0  0  0  0  0  0  0
   -9.4502  -23.2533   31.4476 H   0  0  0  0  0  0  0  0  0  0  0  0
   -9.4831  -22.7398   33.8599 H   0  0  0  0  0  0  0  0  0  0  0  0
  1  2  1  0
  2  3  1  0
  3  4  1  0
  3  5  1  0
  5  6  1  0
  6  7  1  0
  6  8  1  0
  8  9  2  0
  9 10  1  0
 10 11  1  0
 11 12  1  0
 12 13  1  0
 13 14  1  0
 14 15  1  0
 15 16  1  0
 16 17  1  0
 17 18  1  0
 17 19  2  0
 10 20  2  0
 20 21  1  0
 21 22  2  0
 22 23  1  0
 22  8  1  0
  1 24  1  0
  1 25  1  0
  1 26  1  0
  2 27  1  0
  3 28  1  0
  4 29  1  0
  5 30  1  0
  5 31  1  0
  6 32  1  0
  7 33  1  0
  9 34  1  0
 11 35  1  0
 12 36  1  0
 12 37  1  0
 13 38  1  0
 13 39  1  0
 14 40  1  0
 14 41  1  0
 15 42  1  0
 15 43  1  0
 16 44  1  0
 18 45  1  0
 18 46  1  0
 18 47  1  0
 20 48  1  0
 21 49  1  0
M  END
>  <Energy>  (1050) 
-26.928390715031693

>  <compound_id>  (1050) 
1360

>  <target_id>  (1050) 
1

>  <reference_id>  (1050) 
96

>  <inspiration_ids>  (1050) 
[96, 32]

>  <energy_score>  (1050) 
-7.054983742139157

>  <distance_score>  (1050) 
2.26813033088121

>  <path>  (1050) 
/opt/xchem-fragalysis-2/maxwin/BulkDock/SCRATCH/505733/C1360-P96/C1360-P96.minimised.mol

>  <scratch_subdir>  (1050) 
/opt/xchem-fragalysis-2/maxwin/BulkDock/SCRATCH/505733/C1360-P96

>  <fragmenstein_runtime>  (1050) 
6.0309364795684814

>  <fragmenstein_outcome>  (1050) 
too moved

>  <fragmenstein_mode>  (1050) 
expansion

>  <fragmenstein_error>  (1050) 


$$$$
C1360-P32
     RDKit          3D

 49 49  0  0  0  0  0  0  0  0999 V2000
  -13.7830  -15.6272   35.0187 C   0  0  0  0  0  0  0  0  0  0  0  0
  -13.1247  -16.1769   33.8421 N   0  0  0  0  0  0  0  0  0  0  0  0
  -12.1314  -17.1903   34.1906 C   0  0  0  0  0  0  0  0  0  0  0  0
  -10.9923  -17.1057   33.3883 O   0  0  0  0  0  0  0  0  0  0  0  0
  -12.5731  -18.6399   34.1787 C   0  0  0  0  0  0  0  0  0  0  0  0
  -12.8524  -19.7385   33.1531 C   0  0  0  0  0  0  0  0  0  0  0  0
  -13.9693  -19.4703   32.2997 O   0  0  0  0  0  0  0  0  0  0  0  0
  -11.7503  -20.5719   32.5232 C   0  0  0  0  0  0  0  0  0  0  0  0
  -11.6209  -20.8106   31.1579 C   0  0  0  0  0  0  0  0  0  0  0  0
  -10.8025  -21.8545   30.6982 C   0  0  0  0  0  0  0  0  0  0  0  0
  -10.7329  -22.1628   29.3233 N   0  0  0  0  0  0  0  0  0  0  0  0
  -11.7129  -23.1702   28.9292 C   0  0  0  0  0  0  0  0  0  0  0  0
  -11.3233  -24.5803   29.3694 C   0  0  0  0  0  0  0  0  0  0  0  0
  -10.1831  -25.1764   28.5560 C   0  0  0  0  0  0  0  0  0  0  0  0
  -10.5401  -25.4070   27.0849 C   0  0  0  0  0  0  0  0  0  0  0  0
  -11.7864  -26.1234   26.9073 N   0  0  0  0  0  0  0  0  0  0  0  0
  -13.2183  -25.5984   26.6436 C   0  0  0  0  0  0  0  0  0  0  0  0
  -14.0861  -26.8189   26.4301 C   0  0  0  0  0  0  0  0  0  0  0  0
  -13.6275  -24.5081   26.6053 O   0  0  0  0  0  0  0  0  0  0  0  0
  -10.0655  -22.6356   31.6037 C   0  0  0  0  0  0  0  0  0  0  0  0
  -10.1430  -22.3879   32.9551 C   0  0  0  0  0  0  0  0  0  0  0  0
  -10.9905  -21.3790   33.3826 C   0  0  0  0  0  0  0  0  0  0  0  0
  -11.1344  -21.2231   34.6941 F   0  0  0  0  0  0  0  0  0  0  0  0
  -14.3394  -16.3976   35.5603 H   0  0  0  0  0  0  0  0  0  0  0  0
  -13.0683  -15.1518   35.6989 H   0  0  0  0  0  0  0  0  0  0  0  0
  -14.5007  -14.8620   34.7088 H   0  0  0  0  0  0  0  0  0  0  0  0
  -12.6302  -15.4161   33.3575 H   0  0  0  0  0  0  0  0  0  0  0  0
  -11.7725  -16.9652   35.2025 H   0  0  0  0  0  0  0  0  0  0  0  0
  -10.8318  -16.1526   33.2579 H   0  0  0  0  0  0  0  0  0  0  0  0
  -11.7313  -19.0740   34.7123 H   0  0  0  0  0  0  0  0  0  0  0  0
  -13.5077  -18.6164   34.7406 H   0  0  0  0  0  0  0  0  0  0  0  0
  -13.2880  -20.4881   33.8352 H   0  0  0  0  0  0  0  0  0  0  0  0
  -14.5823  -20.2196   32.4633 H   0  0  0  0  0  0  0  0  0  0  0  0
  -12.2109  -20.2478   30.4525 H   0  0  0  0  0  0  0  0  0  0  0  0
  -10.9007  -21.3105   28.7844 H   0  0  0  0  0  0  0  0  0  0  0  0
  -11.8102  -23.1200   27.8414 H   0  0  0  0  0  0  0  0  0  0  0  0
  -12.7025  -22.9008   29.3118 H   0  0  0  0  0  0  0  0  0  0  0  0
  -11.0596  -24.6359   30.4260 H   0  0  0  0  0  0  0  0  0  0  0  0
  -12.2056  -25.2243   29.2754 H   0  0  0  0  0  0  0  0  0  0  0  0
   -9.9583  -26.1417   29.0076 H   0  0  0  0  0  0  0  0  0  0  0  0
   -9.2791  -24.5627   28.6315 H   0  0  0  0  0  0  0  0  0  0  0  0
  -10.6212  -24.4568   26.5492 H   0  0  0  0  0  0  0  0  0  0  0  0
   -9.7556  -25.9981   26.6045 H   0  0  0  0  0  0  0  0  0  0  0  0
  -11.7669  -27.1321   26.7860 H   0  0  0  0  0  0  0  0  0  0  0  0
  -13.9620  -27.5243   27.2563 H   0  0  0  0  0  0  0  0  0  0  0  0
  -13.8245  -27.2959   25.4820 H   0  0  0  0  0  0  0  0  0  0  0  0
  -15.1361  -26.5141   26.3936 H   0  0  0  0  0  0  0  0  0  0  0  0
   -9.4011  -23.4166   31.2448 H   0  0  0  0  0  0  0  0  0  0  0  0
   -9.5910  -22.9845   33.6708 H   0  0  0  0  0  0  0  0  0  0  0  0
  1  2  1  0
  2  3  1  0
  3  4  1  0
  3  5  1  0
  5  6  1  0
  6  7  1  0
  6  8  1  0
  8  9  2  0
  9 10  1  0
 10 11  1  0
 11 12  1  0
 12 13  1  0
 13 14  1  0
 14 15  1  0
 15 16  1  0
 16 17  1  0
 17 18  1  0
 17 19  2  0
 10 20  2  0
 20 21  1  0
 21 22  2  0
 22 23  1  0
 22  8  1  0
  1 24  1  0
  1 25  1  0
  1 26  1  0
  2 27  1  0
  3 28  1  0
  4 29  1  0
  5 30  1  0
  5 31  1  0
  6 32  1  0
  7 33  1  0
  9 34  1  0
 11 35  1  0
 12 36  1  0
 12 37  1  0
 13 38  1  0
 13 39  1  0
 14 40  1  0
 14 41  1  0
 15 42  1  0
 15 43  1  0
 16 44  1  0
 18 45  1  0
 18 46  1  0
 18 47  1  0
 20 48  1  0
 21 49  1  0
M  END
>  <Energy>  (1051) 
4.6861186169505364

>  <compound_id>  (1051) 
1360

>  <target_id>  (1051) 
1

>  <reference_id>  (1051) 
32

>  <inspiration_ids>  (1051) 
[96, 32]

>  <energy_score>  (1051) 
24.559525589844185

>  <distance_score>  (1051) 
2.033251009331732

>  <path>  (1051) 
/opt/xchem-fragalysis-2/maxwin/BulkDock/SCRATCH/505733/C1360-P32/C1360-P32.minimised.mol

>  <scratch_subdir>  (1051) 
/opt/xchem-fragalysis-2/maxwin/BulkDock/SCRATCH/505733/C1360-P32

>  <fragmenstein_runtime>  (1051) 
5.717749118804932

>  <fragmenstein_outcome>  (1051) 
too moved

>  <fragmenstein_mode>  (1051) 
expansion

>  <fragmenstein_error>  (1051) 


$$$$
