A71EV2A-x3557_A_201_1_A71EV2A-x0911+A+147+1__LIG
     RDKit          3D

 22 23  0  0  0  0  0  0  0  0999 V2000
   10.3390   16.6760   19.1110 O   0  0  0  0  0  0  0  0  0  0  0  0
   10.7120   15.5210   19.3580 C   0  0  0  0  0  0  0  0  0  0  0  0
   10.9450   14.6160   18.4180 N   0  0  0  0  0  0  0  0  0  0  0  0
   10.8120   15.0190   20.7850 C   0  0  1  0  0  0  0  0  0  0  0  0
   12.0010   15.6350   21.5380 C   0  0  0  0  0  0  0  0  0  0  0  0
   12.0800   15.0840   22.9630 C   0  0  0  0  0  0  0  0  0  0  0  0
   10.7440   15.2580   23.6820 C   0  0  0  0  0  0  0  0  0  0  0  0
    9.4970   15.2340   21.5360 C   0  0  0  0  0  0  0  0  0  0  0  0
    9.6320   14.6980   22.8920 N   0  0  0  0  0  0  0  0  0  0  0  0
    8.8130   13.7110   23.3050 C   0  0  0  0  0  0  0  0  0  0  0  0
    7.8740   13.3080   22.6300 O   0  0  0  0  0  0  0  0  0  0  0  0
    9.1340   13.1300   24.6640 C   0  0  0  0  0  0  0  0  0  0  0  0
    8.0370   12.2140   25.1430 C   0  0  0  0  0  0  0  0  0  0  0  0
    7.0470   12.6700   26.0060 C   0  0  0  0  0  0  0  0  0  0  0  0
    6.1150   11.8020   26.5420 C   0  0  0  0  0  0  0  0  0  0  0  0
    8.0580   10.8590   24.8030 C   0  0  0  0  0  0  0  0  0  0  0  0
    9.0490   10.5080   23.9210 O   0  0  0  0  0  0  0  0  0  0  0  0
    9.2520    9.1160   23.6300 C   0  0  0  0  0  0  0  0  0  0  0  0
    7.1310    9.9850   25.3400 C   0  0  0  0  0  0  0  0  0  0  0  0
    6.1580   10.4640   26.2040 C   0  0  0  0  0  0  0  0  0  0  0  0
    5.2410    9.5450   26.6440 O   0  0  0  0  0  0  0  0  0  0  0  0
    4.1880   10.0030   27.5060 C   0  0  0  0  0  0  0  0  0  0  0  0
 22 21  1  0
 21 20  1  0
 20 15  1  0
 15 14  2  0
 14 13  1  0
 13 12  1  0
 12 10  1  0
 11 10  2  0
 10  9  1  0
  9  7  1  0
  7  6  1  0
  6  5  1  0
  5  4  1  0
  4  2  1  6
  3  2  1  0
  2  1  2  0
  8  4  1  0
  9  8  1  0
 16 13  2  0
 17 16  1  0
 18 17  1  0
 19 16  1  0
 20 19  2  0
M  END
$$$$
