A71EV2A-x5539_A_201_5_A71EV2A-x0911+A+147+1__LIG
     RDKit          3D

 21 22  0  0  0  0  0  0  0  0999 V2000
   10.3540   16.6610   19.2020 O   0  0  0  0  0  0  0  0  0  0  0  0
   10.7140   15.5020   19.4450 C   0  0  0  0  0  0  0  0  0  0  0  0
   11.0370   14.6210   18.5020 N   0  0  0  0  0  0  0  0  0  0  0  0
   10.6860   14.9580   20.8620 C   0  0  1  0  0  0  0  0  0  0  0  0
   11.7330   15.6460   21.7470 C   0  0  0  0  0  0  0  0  0  0  0  0
   11.6530   15.1030   23.1790 C   0  0  0  0  0  0  0  0  0  0  0  0
   10.2380   15.2670   23.7320 C   0  0  0  0  0  0  0  0  0  0  0  0
    9.2780   15.1790   21.4310 C   0  0  0  0  0  0  0  0  0  0  0  0
    9.2190   14.7180   22.8190 N   0  0  0  0  0  0  0  0  0  0  0  0
    8.3170   13.7890   23.1830 C   0  0  0  0  0  0  0  0  0  0  0  0
    7.4880   13.3190   22.4520 O   0  0  0  0  0  0  0  0  0  0  0  0
    8.3650   13.5410   24.5260 O   0  0  0  0  0  0  0  0  0  0  0  0
    7.5570   12.4940   24.9930 C   0  0  0  0  0  0  0  0  0  0  0  0
    6.2720   12.7240   25.4710 C   0  0  0  0  0  0  0  0  0  0  0  0
    5.5390   11.6560   25.9750 C   0  0  0  0  0  0  0  0  0  0  0  0
    6.0680   10.3800   25.9680 C   0  0  0  0  0  0  0  0  0  0  0  0
    7.3410   10.1490   25.4650 C   0  0  0  0  0  0  0  0  0  0  0  0
    8.1000   11.2100   24.9810 C   0  0  0  0  0  0  0  0  0  0  0  0
    9.7680   11.0560   24.3890 S   0  0  0  0  0  0  0  0  0  0  0  0
   10.0780    9.2680   24.3000 C   0  0  0  0  0  0  0  0  0  0  0  0
    9.4240    8.6530   23.1270 C   0  0  0  0  0  0  0  0  0  0  0  0
 21 20  1  0
 20 19  1  0
 19 18  1  0
 18 17  1  0
 17 16  2  0
 16 15  1  0
 15 14  2  0
 14 13  1  0
 18 13  2  0
 13 12  1  0
 12 10  1  0
 11 10  2  0
 10  9  1  0
  9  7  1  0
  7  6  1  0
  6  5  1  0
  5  4  1  0
  4  2  1  6
  3  2  1  0
  2  1  2  0
  8  4  1  0
  9  8  1  0
M  END
$$$$
