XX01ZVNS2B-x0589_B_301_1_XX01ZVNS2B-x4590+B+203+1__LIG
     RDKit          3D

  8  8  0  0  0  0  0  0  0  0999 V2000
  -10.4350    3.8480  -18.4710 Br  0  0  0  0  0  0  0  0  0  0  0  0
   -8.7540    4.3500  -17.7440 C   0  0  0  0  0  0  0  0  0  0  0  0
   -7.6840    4.5890  -18.5800 C   0  0  0  0  0  0  0  0  0  0  0  0
   -6.4870    4.9890  -18.0120 C   0  0  0  0  0  0  0  0  0  0  0  0
   -6.3890    5.1280  -16.6450 C   0  0  0  0  0  0  0  0  0  0  0  0
   -8.6400    4.4910  -16.3780 C   0  0  0  0  0  0  0  0  0  0  0  0
   -7.4560    4.8760  -15.8560 N   0  0  0  0  0  0  0  0  0  0  0  0
   -7.3340    5.0290  -14.3900 C   0  0  0  0  0  0  0  0  0  0  0  0
  8  7  1  0
  7  5  1  0
  5  4  2  0
  4  3  1  0
  3  2  2  0
  2  1  1  0
  6  2  1  0
  7  6  2  0
M  CHG  1   7   1
M  END
$$$$
