A71EV2A-x4873_A_201_1_A71EV2A-x0911+A+147+1__LIG
     RDKit          3D

 21 22  0  0  0  0  0  0  0  0999 V2000
    6.0210   13.7980   25.8910 Cl  0  0  0  0  0  0  0  0  0  0  0  0
    6.6520   12.2370   25.5460 C   0  0  0  0  0  0  0  0  0  0  0  0
    5.9710   11.1100   26.0020 C   0  0  0  0  0  0  0  0  0  0  0  0
    4.8200   11.3620   26.6870 O   0  0  0  0  0  0  0  0  0  0  0  0
    4.1610   10.2610   27.3050 C   0  0  0  0  0  0  0  0  0  0  0  0
    7.8370   12.1080   24.8200 C   0  0  0  0  0  0  0  0  0  0  0  0
    8.3320   10.8330   24.5670 C   0  0  0  0  0  0  0  0  0  0  0  0
    7.6500    9.7170   25.0250 C   0  0  0  0  0  0  0  0  0  0  0  0
    6.4710    9.8490   25.7370 C   0  0  0  0  0  0  0  0  0  0  0  0
    8.5000   13.2650   24.3480 N   0  0  0  0  0  0  0  0  0  0  0  0
    8.3880   13.7600   23.0990 C   0  0  0  0  0  0  0  0  0  0  0  0
    7.5840   13.3230   22.2960 O   0  0  0  0  0  0  0  0  0  0  0  0
    9.1790   14.8260   22.8080 N   0  0  0  0  0  0  0  0  0  0  0  0
    9.2770   15.3230   21.4360 C   0  0  0  0  0  0  0  0  0  0  0  0
   10.6230   14.9390   20.8250 C   0  0  1  0  0  0  0  0  0  0  0  0
   10.6650   15.4660   19.4010 C   0  0  0  0  0  0  0  0  0  0  0  0
   10.4160   16.6460   19.1520 O   0  0  0  0  0  0  0  0  0  0  0  0
   10.9570   14.5820   18.4640 N   0  0  0  0  0  0  0  0  0  0  0  0
   11.7160   15.5700   21.6870 C   0  0  0  0  0  0  0  0  0  0  0  0
   11.6220   15.0600   23.1190 C   0  0  0  0  0  0  0  0  0  0  0  0
   10.2420   15.3110   23.6950 C   0  0  0  0  0  0  0  0  0  0  0  0
  5  4  1  0
  4  3  1  0
  3  9  2  0
  9  8  1  0
  8  7  2  0
  7  6  1  0
 10  6  1  0
 11 10  1  0
 12 11  2  0
 13 11  1  0
 13 21  1  0
 21 20  1  0
 20 19  1  0
 19 15  1  0
 15 16  1  6
 18 16  1  0
 17 16  2  0
 15 14  1  0
 14 13  1  0
  6  2  2  0
  3  2  1  0
  2  1  1  0
M  END
$$$$
