A71EV2A-x3208_A_201_1_A71EV2A-x0911+A+147+1__LIG
     RDKit          3D

 23 24  0  0  0  0  0  0  0  0999 V2000
    9.4220   10.3180   23.4460 Cl  0  0  0  0  0  0  0  0  0  0  0  0
    8.1390   10.7170   24.5470 C   0  0  0  0  0  0  0  0  0  0  0  0
    7.2920    9.7090   24.9670 C   0  0  0  0  0  0  0  0  0  0  0  0
    6.2560    9.9990   25.8370 C   0  0  0  0  0  0  0  0  0  0  0  0
    6.0720   11.2970   26.3000 C   0  0  0  0  0  0  0  0  0  0  0  0
    5.0710   11.6100   27.3670 C   0  0  0  0  0  0  0  0  0  0  0  0
    5.5940   12.2970   28.3530 F   0  0  0  0  0  0  0  0  0  0  0  0
    4.6150   10.5330   27.9750 F   0  0  0  0  0  0  0  0  0  0  0  0
    4.0210   12.3330   26.9250 F   0  0  0  0  0  0  0  0  0  0  0  0
    6.9270   12.2940   25.8410 C   0  0  0  0  0  0  0  0  0  0  0  0
    7.9810   12.0300   24.9700 C   0  0  0  0  0  0  0  0  0  0  0  0
    8.9600   13.1180   24.6030 C   0  0  0  0  0  0  0  0  0  0  0  0
    8.6670   13.7040   23.2340 C   0  0  0  0  0  0  0  0  0  0  0  0
    7.7590   13.2790   22.5380 O   0  0  0  0  0  0  0  0  0  0  0  0
    9.4750   14.7050   22.8240 N   0  0  0  0  0  0  0  0  0  0  0  0
   10.5530   15.2860   23.6420 C   0  0  0  0  0  0  0  0  0  0  0  0
   11.8940   15.0660   22.9570 C   0  0  0  0  0  0  0  0  0  0  0  0
   11.8580   15.6340   21.5380 C   0  0  0  0  0  0  0  0  0  0  0  0
    9.3950   15.2250   21.4550 C   0  0  0  0  0  0  0  0  0  0  0  0
   10.7210   14.9830   20.7260 C   0  0  1  0  0  0  0  0  0  0  0  0
   10.6860   15.4780   19.2900 C   0  0  0  0  0  0  0  0  0  0  0  0
   10.3080   16.6230   19.0200 O   0  0  0  0  0  0  0  0  0  0  0  0
   11.0280   14.5890   18.3620 N   0  0  0  0  0  0  0  0  0  0  0  0
 23 21  1  0
 22 21  2  0
 20 21  1  6
 20 18  1  0
 18 17  1  0
 17 16  1  0
 16 15  1  0
 15 13  1  0
 14 13  2  0
 13 12  1  0
 12 11  1  0
 11 10  2  0
 10  5  1  0
  6  5  1  0
  9  6  1  0
  8  6  1  0
  7  6  1  0
  5  4  2  0
  4  3  1  0
  3  2  2  0
 11  2  1  0
  2  1  1  0
 19 15  1  0
 20 19  1  0
M  END
$$$$
