A71EV2A-x3177_A_201_1_A71EV2A-x0911+A+147+1__LIG
     RDKit          3D

 18 20  0  0  0  0  0  0  0  0999 V2000
    9.4750   14.3050   24.5310 O   0  0  0  0  0  0  0  0  0  0  0  0
    9.8730   13.3810   23.8280 C   0  0  0  0  0  0  0  0  0  0  0  0
   10.8390   13.5450   22.8970 N   0  0  0  0  0  0  0  0  0  0  0  0
   11.5400   14.8210   22.7830 C   0  0  2  0  0  0  0  0  0  0  0  0
   11.1480   15.7850   21.7080 C   0  0  2  0  0  0  0  0  0  0  0  0
   10.0220   15.4620   20.7440 C   0  0  0  0  0  0  0  0  0  0  0  0
    8.7460   15.6360   21.3340 O   0  0  0  0  0  0  0  0  0  0  0  0
   12.4390   15.0340   21.6060 C   0  0  0  0  0  0  0  0  0  0  0  0
    9.2420   12.0110   23.9700 C   0  0  0  0  0  0  0  0  0  0  0  0
    9.7110   10.9320   23.3470 N   0  0  0  0  0  0  0  0  0  0  0  0
    8.1230   11.6680   24.8250 C   0  0  0  0  0  0  0  0  0  0  0  0
    7.9480   10.2910   24.6430 C   0  0  0  0  0  0  0  0  0  0  0  0
    8.9130    9.8810   23.7690 N   0  0  0  0  0  0  0  0  0  0  0  0
    9.1500    8.5350   23.2670 C   0  0  0  0  0  0  0  0  0  0  0  0
    6.9710    9.5810   25.3300 C   0  0  0  0  0  0  0  0  0  0  0  0
    6.1950   10.2580   26.2610 C   0  0  0  0  0  0  0  0  0  0  0  0
    6.3790   11.6230   26.4810 C   0  0  0  0  0  0  0  0  0  0  0  0
    7.3240   12.3350   25.7540 C   0  0  0  0  0  0  0  0  0  0  0  0
 14 13  1  0
 13 10  1  0
 10  9  2  0
  9  2  1  0
  2  1  2  0
  3  2  1  0
  4  3  1  6
  4  8  1  0
  8  5  1  0
  5  4  1  0
  5  6  1  6
  7  6  1  0
 11  9  1  0
 11 18  2  0
 18 17  1  0
 17 16  2  0
 16 15  1  0
 15 12  2  0
 12 11  1  0
 13 12  1  0
M  END
$$$$
