A71EV2A-x4519_C_201_1_A71EV2A-x0911+A+147+1__LIG
     RDKit          3D

 22 24  0  0  0  0  0  0  0  0999 V2000
    9.5410    8.9760   23.3860 Br  0  0  0  0  0  0  0  0  0  0  0  0
    8.4240   10.0910   24.4100 C   0  0  0  0  0  0  0  0  0  0  0  0
    7.2390    9.5660   24.9850 C   0  0  0  0  0  0  0  0  0  0  0  0
    6.4620   10.3630   25.7510 C   0  0  0  0  0  0  0  0  0  0  0  0
    8.7850   11.3790   24.5750 C   0  0  0  0  0  0  0  0  0  0  0  0
    7.9670   12.2000   25.3230 N   0  0  0  0  0  0  0  0  0  0  0  0
    6.8100   11.7230   25.9420 C   0  0  0  0  0  0  0  0  0  0  0  0
    6.2920   12.8220   26.5880 C   0  0  0  0  0  0  0  0  0  0  0  0
    7.0730   13.9480   26.3760 N   0  0  0  0  0  0  0  0  0  0  0  0
    8.0670   13.5430   25.6070 C   0  0  0  0  0  0  0  0  0  0  0  0
    9.1680   14.4170   25.0910 C   0  0  0  0  0  0  0  0  0  0  0  0
    9.0160   14.5780   23.5870 C   0  0  0  0  0  0  0  0  0  0  0  0
    8.1400   13.9910   22.9500 O   0  0  0  0  0  0  0  0  0  0  0  0
    9.8980   15.4130   22.9930 N   0  0  0  0  0  0  0  0  0  0  0  0
   11.0800   16.0150   23.6320 C   0  0  0  0  0  0  0  0  0  0  0  0
   12.3460   15.6280   22.8700 C   0  0  0  0  0  0  0  0  0  0  0  0
   12.2030   15.9630   21.3840 C   0  0  0  0  0  0  0  0  0  0  0  0
    9.7300   15.7760   21.5850 C   0  0  0  0  0  0  0  0  0  0  0  0
   10.9480   15.3130   20.7760 C   0  0  1  0  0  0  0  0  0  0  0  0
   10.7610   15.7470   19.3330 C   0  0  0  0  0  0  0  0  0  0  0  0
   10.4260   16.9050   19.0580 O   0  0  0  0  0  0  0  0  0  0  0  0
   10.9270   14.8030   18.4150 N   0  0  0  0  0  0  0  0  0  0  0  0
 22 20  1  0
 21 20  2  0
 19 20  1  6
 19 17  1  0
 17 16  1  0
 16 15  1  0
 15 14  1  0
 14 12  1  0
 13 12  2  0
 12 11  1  0
 11 10  1  0
 10  9  2  0
  9  8  1  0
  8  7  2  0
  7  4  1  0
  4  3  2  0
  3  2  1  0
  2  1  1  0
  5  2  2  0
  6  5  1  0
 10  6  1  0
  7  6  1  0
 18 14  1  0
 19 18  1  0
M  END
$$$$
