A71EV2A-x4321_C_201_1_A71EV2A-x0911+A+147+1__LIG
     RDKit          3D

 21 22  0  0  0  0  0  0  0  0999 V2000
   10.4320   16.7650   19.1570 O   0  0  0  0  0  0  0  0  0  0  0  0
   10.7760   15.5980   19.3930 C   0  0  0  0  0  0  0  0  0  0  0  0
   11.0030   14.7010   18.4370 N   0  0  0  0  0  0  0  0  0  0  0  0
   10.9010   15.0950   20.8220 C   0  0  1  0  0  0  0  0  0  0  0  0
   12.0500   15.7970   21.5660 C   0  0  0  0  0  0  0  0  0  0  0  0
   12.1110   15.3520   23.0310 C   0  0  0  0  0  0  0  0  0  0  0  0
   10.7440   15.5140   23.7200 C   0  0  0  0  0  0  0  0  0  0  0  0
    9.5780   15.2810   21.5630 C   0  0  0  0  0  0  0  0  0  0  0  0
    9.6920   14.8270   22.9530 N   0  0  0  0  0  0  0  0  0  0  0  0
    8.8810   13.8470   23.4200 C   0  0  0  0  0  0  0  0  0  0  0  0
    8.0210   13.3210   22.7170 O   0  0  0  0  0  0  0  0  0  0  0  0
    9.0740   13.4330   24.8710 C   0  0  0  0  0  0  0  0  0  0  0  0
    8.1580   12.2940   25.2780 C   0  0  0  0  0  0  0  0  0  0  0  0
    8.3980   10.9670   24.8850 C   0  0  0  0  0  0  0  0  0  0  0  0
    9.6270   10.5990   24.0780 C   0  0  0  0  0  0  0  0  0  0  0  0
    9.7220    9.1660   23.8080 C   0  0  0  0  0  0  0  0  0  0  0  0
    9.7820    8.0570   23.5800 N   0  0  0  0  0  0  0  0  0  0  0  0
    7.0650   12.5660   26.0970 C   0  0  0  0  0  0  0  0  0  0  0  0
    6.2210   11.5520   26.5190 C   0  0  0  0  0  0  0  0  0  0  0  0
    6.4490   10.2560   26.1230 C   0  0  0  0  0  0  0  0  0  0  0  0
    7.5250    9.9630   25.3030 C   0  0  0  0  0  0  0  0  0  0  0  0
 17 16  3  0
 16 15  1  0
 15 14  1  0
 14 21  2  0
 21 20  1  0
 20 19  2  0
 19 18  1  0
 18 13  2  0
 14 13  1  0
 13 12  1  0
 12 10  1  0
 11 10  2  0
 10  9  1  0
  9  7  1  0
  7  6  1  0
  6  5  1  0
  5  4  1  0
  4  2  1  6
  3  2  1  0
  2  1  2  0
  8  4  1  0
  9  8  1  0
M  END
$$$$
