A71EV2A-x4510_A_201_1_A71EV2A-x0911+A+147+1__LIG
     RDKit          3D

 23 24  0  0  0  0  0  0  0  0999 V2000
    9.4390    8.9130   23.8770 F   0  0  0  0  0  0  0  0  0  0  0  0
    9.5020   10.1810   24.2460 C   0  0  0  0  0  0  0  0  0  0  0  0
    9.7840   10.8740   23.1360 F   0  0  0  0  0  0  0  0  0  0  0  0
   10.5530   10.2530   25.0340 F   0  0  0  0  0  0  0  0  0  0  0  0
    8.2420   10.6570   24.9330 C   0  0  0  0  0  0  0  0  0  0  0  0
    7.4630    9.7480   25.4650 N   0  0  0  0  0  0  0  0  0  0  0  0
    6.4900   10.5160   26.0460 N   0  0  0  0  0  0  0  0  0  0  0  0
    5.4790    9.8780   26.8780 C   0  0  0  0  0  0  0  0  0  0  0  0
    6.6540   11.8360   25.8410 C   0  0  0  0  0  0  0  0  0  0  0  0
    7.8000   11.9690   25.1400 C   0  0  0  0  0  0  0  0  0  0  0  0
    8.4620   13.2990   24.8270 C   0  0  2  0  0  0  0  0  0  0  0  0
    7.7580   14.4610   25.5420 C   0  0  0  0  0  0  0  0  0  0  0  0
    8.5300   13.5790   23.3350 C   0  0  0  0  0  0  0  0  0  0  0  0
    7.6220   13.2400   22.5980 O   0  0  0  0  0  0  0  0  0  0  0  0
    9.5540   14.3430   22.8810 N   0  0  0  0  0  0  0  0  0  0  0  0
    9.4530   14.9730   21.5560 C   0  0  0  0  0  0  0  0  0  0  0  0
   10.7440   14.7590   20.7630 C   0  0  1  0  0  0  0  0  0  0  0  0
   10.6970   15.2420   19.3250 C   0  0  0  0  0  0  0  0  0  0  0  0
   10.2550   16.3620   19.0420 O   0  0  0  0  0  0  0  0  0  0  0  0
   11.1630   14.3980   18.4180 N   0  0  0  0  0  0  0  0  0  0  0  0
   11.8380   15.4670   21.5690 C   0  0  0  0  0  0  0  0  0  0  0  0
   12.0320   14.7620   22.9090 C   0  0  0  0  0  0  0  0  0  0  0  0
   10.7320   14.7060   23.6990 C   0  0  0  0  0  0  0  0  0  0  0  0
 11 12  1  1
 13 11  1  0
 14 13  2  0
 15 13  1  0
 15 23  1  0
 23 22  1  0
 22 21  1  0
 21 17  1  0
 17 18  1  6
 20 18  1  0
 19 18  2  0
 17 16  1  0
 16 15  1  0
 11 10  1  0
 10  9  2  0
  9  7  1  0
  8  7  1  0
  7  6  1  0
  6  5  2  0
 10  5  1  0
  5  2  1  0
  3  2  1  0
  4  2  1  0
  2  1  1  0
M  END
$$$$
