A5151a
     RDKit          3D

 21 23  0  0  0  0  0  0  0  0999 V2000
    7.7460   13.4130   22.3950 O   0  0  0  0  0  0  0  0  0  0  0  0
    8.5480   13.9680   23.1310 C   0  0  0  0  0  0  0  0  0  0  0  0
    9.3920   14.9190   22.6820 N   0  0  0  0  0  0  0  0  0  0  0  0
   10.3880   15.5910   23.5210 C   0  0  0  0  0  0  0  0  0  0  0  0
   11.7780   15.4130   22.9500 C   0  0  0  0  0  0  0  0  0  0  0  0
   11.8250   15.8570   21.4910 C   0  0  0  0  0  0  0  0  0  0  0  0
    9.3950   15.3800   21.2930 C   0  0  0  0  0  0  0  0  0  0  0  0
   10.7660   15.1310   20.6590 C   0  0  1  0  0  0  0  0  0  0  0  0
   10.7480   15.6520   19.2320 C   0  0  0  0  0  0  0  0  0  0  0  0
   10.5480   16.8460   18.9920 O   0  0  0  0  0  0  0  0  0  0  0  0
   10.9590   14.7550   18.2830 N   0  0  0  0  0  0  0  0  0  0  0  0
    8.6380   13.6120   24.6040 C   0  0  0  0  0  0  0  0  0  0  0  0
    8.0670   12.2420   24.8930 C   0  0  0  0  0  0  0  0  0  0  0  0
    8.6160   11.0720   24.3460 C   0  0  0  0  0  0  0  0  0  0  0  0
   10.0150   11.0090   23.2840 S   0  0  0  0  0  0  0  0  0  0  0  0
   10.1730    9.2130   23.5310 C   0  0  0  0  0  0  0  0  0  0  0  0
    8.8040    8.6880   23.9400 C   0  0  0  0  0  0  0  0  0  0  0  0
    8.0710    9.8170   24.6140 C   0  0  0  0  0  0  0  0  0  0  0  0
    6.9600    9.7270   25.4440 C   0  0  0  0  0  0  0  0  0  0  0  0
    6.4070   10.8700   25.9950 C   0  0  0  0  0  0  0  0  0  0  0  0
    6.9560   12.1130   25.7220 C   0  0  0  0  0  0  0  0  0  0  0  0
 11  9  1  0
 10  9  2  0
  8  9  1  6
  8  6  1  0
  6  5  1  0
  5  4  1  0
  4  3  1  0
  3  2  1  0
  2  1  2  0
 12  2  1  0
 13 12  1  0
 13 21  2  0
 21 20  1  0
 20 19  2  0
 19 18  1  0
 18 14  2  0
 14 13  1  0
 15 14  1  0
 16 15  1  0
 17 16  1  0
 18 17  1  0
  7  3  1  0
  8  7  1  0
M  END
>  <smiles>  (1) 
NC(=O)[C@H]1CCCN(C(=O)Cc2cccc3c2SCC3)C1

>  <inchikey>  (1) 
MYWVCJKERPOZPN-ZDUSSCGKSA-N

>  <alias>  (1) 
A5151a

$$$$
A0451a
     RDKit          3D

 14 15  0  0  0  0  0  0  0  0999 V2000
   10.5800   14.1140   24.6010 O   0  0  0  0  0  0  0  0  0  0  0  0
   10.7620   13.1860   23.8320 C   0  0  0  0  0  0  0  0  0  0  0  0
   11.7610   13.1720   22.9560 N   0  0  0  0  0  0  0  0  0  0  0  0
   12.1050   14.3360   22.1600 C   0  0  0  0  0  0  0  0  0  0  0  0
    9.8950   11.9830   23.8690 C   0  0  0  0  0  0  0  0  0  0  0  0
    8.6880   11.7750   24.6420 C   0  0  0  0  0  0  0  0  0  0  0  0
    8.2420   10.4780   24.3480 C   0  0  0  0  0  0  0  0  0  0  0  0
    9.1190    9.9240   23.4400 N   0  0  0  0  0  0  0  0  0  0  0  0
    9.0080    8.5980   22.8510 C   0  0  0  0  0  0  0  0  0  0  0  0
   10.1020   10.8310   23.1690 C   0  0  0  0  0  0  0  0  0  0  0  0
    7.9540   12.5500   25.5390 C   0  0  0  0  0  0  0  0  0  0  0  0
    6.8040   12.0280   26.1160 C   0  0  0  0  0  0  0  0  0  0  0  0
    6.3840   10.7400   25.8200 C   0  0  0  0  0  0  0  0  0  0  0  0
    7.1010    9.9460   24.9350 C   0  0  0  0  0  0  0  0  0  0  0  0
  4  3  1  0
  3  2  1  0
  2  1  2  0
  5  2  1  0
  5 10  2  0
 10  8  1  0
  9  8  1  0
  8  7  1  0
  7 14  2  0
 14 13  1  0
 13 12  2  0
 12 11  1  0
 11  6  2  0
  6  5  1  0
  7  6  1  0
M  END
>  <smiles>  (2) 
CNC(=O)c1cn(C)c2ccccc12

>  <inchikey>  (2) 
OHXYWSIWHXTWCT-UHFFFAOYSA-N

>  <alias>  (2) 
A0451a

$$$$
A0514a
     RDKit          3D

 12 13  0  0  0  0  0  0  0  0999 V2000
    5.4930   15.0400   27.4440 N   0  0  0  0  0  0  0  0  0  0  0  0
    5.9660   13.9080   26.9080 C   0  0  0  0  0  0  0  0  0  0  0  0
    5.1190   12.3890   27.1770 S   0  0  0  0  0  0  0  0  0  0  0  0
    7.0170   13.8400   26.1330 N   0  0  0  0  0  0  0  0  0  0  0  0
    7.2110   12.5330   25.6780 C   0  0  0  0  0  0  0  0  0  0  0  0
    6.2710   11.6040   26.1400 C   0  0  0  0  0  0  0  0  0  0  0  0
    6.3300   10.2700   25.7660 C   0  0  0  0  0  0  0  0  0  0  0  0
    7.3480    9.8530   24.9290 C   0  0  0  0  0  0  0  0  0  0  0  0
    8.2300   12.1080   24.8230 C   0  0  0  0  0  0  0  0  0  0  0  0
    8.2790   10.7670   24.4520 C   0  0  0  0  0  0  0  0  0  0  0  0
    9.2540   10.4370   23.5440 O   0  0  0  0  0  0  0  0  0  0  0  0
    9.4010    9.0690   23.1500 C   0  0  0  0  0  0  0  0  0  0  0  0
 12 11  1  0
 11 10  1  0
 10  8  1  0
  8  7  2  0
  7  6  1  0
  6  3  1  0
  3  2  1  0
  2  1  1  0
  4  2  2  0
  5  4  1  0
  6  5  2  0
  9  5  1  0
 10  9  2  0
M  END
>  <smiles>  (3) 
COc1ccc2sc(N)nc2c1

>  <inchikey>  (3) 
OMIHQJBWAPWLBO-UHFFFAOYSA-N

>  <alias>  (3) 
A0514a

$$$$
A0514b
     RDKit          3D

 12 13  0  0  0  0  0  0  0  0999 V2000
   23.9030   22.4170   17.1810 N   0  0  0  0  0  0  0  0  0  0  0  0
   24.8050   21.9120   18.0230 C   0  0  0  0  0  0  0  0  0  0  0  0
   26.5040   22.3590   17.8780 S   0  0  0  0  0  0  0  0  0  0  0  0
   24.5080   21.1430   19.0370 N   0  0  0  0  0  0  0  0  0  0  0  0
   25.6450   20.8540   19.7840 C   0  0  0  0  0  0  0  0  0  0  0  0
   26.8310   21.4310   19.3110 C   0  0  0  0  0  0  0  0  0  0  0  0
   28.0400   21.2230   19.9630 C   0  0  0  0  0  0  0  0  0  0  0  0
   28.0670   20.4070   21.0780 C   0  0  0  0  0  0  0  0  0  0  0  0
   25.6800   20.0370   20.9130 C   0  0  0  0  0  0  0  0  0  0  0  0
   26.9010   19.8120   21.5370 C   0  0  0  0  0  0  0  0  0  0  0  0
   27.1260   18.9550   22.5850 O   0  0  0  0  0  0  0  0  0  0  0  0
   25.9990   18.2760   23.1490 C   0  0  0  0  0  0  0  0  0  0  0  0
 12 11  1  0
 11 10  1  0
 10  8  1  0
  8  7  2  0
  7  6  1  0
  6  3  1  0
  3  2  1  0
  2  1  1  0
  4  2  2  0
  5  4  1  0
  6  5  2  0
  9  5  1  0
 10  9  2  0
M  END
>  <smiles>  (4) 
COc1ccc2sc(N)nc2c1

>  <inchikey>  (4) 
OMIHQJBWAPWLBO-UHFFFAOYSA-N

>  <alias>  (4) 
A0514b

$$$$
A0517a
     RDKit          3D

 18 19  0  0  0  0  0  0  0  0999 V2000
   29.8660    5.9390   19.5640 F   0  0  0  0  0  0  0  0  0  0  0  0
   30.0690    7.0330   18.7920 C   0  0  0  0  0  0  0  0  0  0  0  0
   29.6320    8.2460   19.2430 C   0  0  0  0  0  0  0  0  0  0  0  0
   29.8710    9.3600   18.4600 C   0  0  0  0  0  0  0  0  0  0  0  0
   30.7060    6.8760   17.6060 C   0  0  0  0  0  0  0  0  0  0  0  0
   30.9450    7.9900   16.8400 C   0  0  0  0  0  0  0  0  0  0  0  0
   30.5410    9.2480   17.2620 C   0  0  0  0  0  0  0  0  0  0  0  0
   30.7810   10.4660   16.4220 C   0  0  0  0  0  0  0  0  0  0  0  0
   31.9740   10.4560   15.5940 N   0  0  0  0  0  0  0  0  0  0  0  0
   33.1700   10.6320   16.1310 C   0  0  0  0  0  0  0  0  0  0  0  0
   33.3130   10.8120   17.3000 O   0  0  0  0  0  0  0  0  0  0  0  0
   34.3380   10.5610   15.2140 C   0  0  0  0  0  0  0  0  0  0  0  0
   34.3300   10.3530   13.8560 C   0  0  0  0  0  0  0  0  0  0  0  0
   35.6900   10.6000   15.5400 C   0  0  0  0  0  0  0  0  0  0  0  0
   36.4490   10.4020   14.5090 N   0  0  0  0  0  0  0  0  0  0  0  0
   35.5920   10.2750   13.4780 N   0  0  0  0  0  0  0  0  0  0  0  0
   36.1080   10.2200   12.1110 C   0  0  0  0  0  0  0  0  0  0  0  0
   35.5800    9.0740   11.3240 C   0  0  0  0  0  0  0  0  0  0  0  0
 18 17  1  0
 17 16  1  0
 16 13  1  0
 13 12  2  0
 14 12  1  0
 15 14  2  0
 16 15  1  0
 12 10  1  0
 11 10  2  0
 10  9  1  0
  9  8  1  0
  8  7  1  0
  7  4  2  0
  4  3  1  0
  3  2  2  0
  2  1  1  0
  5  2  1  0
  6  5  2  0
  7  6  1  0
M  END
>  <smiles>  (5) 
CCn1cc(C(=O)NCc2ccc(F)cc2)cn1

>  <inchikey>  (5) 
JRTRCSIVSIKKCQ-UHFFFAOYSA-N

>  <alias>  (5) 
A0517a

$$$$
A0525a
     RDKit          3D

 11 11  0  0  0  0  0  0  0  0999 V2000
    8.0530   22.3090   26.2050 O   0  0  0  0  0  0  0  0  0  0  0  0
    9.2070   22.5100   25.7780 C   0  0  0  0  0  0  0  0  0  0  0  0
    9.6880   23.7420   25.2060 C   0  0  0  0  0  0  0  0  0  0  0  0
   10.9280   23.8080   24.6560 C   0  0  0  0  0  0  0  0  0  0  0  0
   10.0940   21.4760   25.7710 N   0  0  0  0  0  0  0  0  0  0  0  0
   11.3330   21.5280   25.2100 C   0  0  0  0  0  0  0  0  0  0  0  0
   11.7720   22.6360   24.6170 C   0  0  0  0  0  0  0  0  0  0  0  0
   12.9240   22.6460   23.8550 O   0  0  0  0  0  0  0  0  0  0  0  0
   14.1400   22.7220   24.5010 C   0  0  0  0  0  0  0  0  0  0  0  0
   14.0570   23.7370   25.3690 F   0  0  0  0  0  0  0  0  0  0  0  0
   14.3840   21.5620   25.1910 F   0  0  0  0  0  0  0  0  0  0  0  0
 10  9  1  0
 11  9  1  0
  9  8  1  0
  8  7  1  0
  7  4  1  0
  4  3  2  0
  3  2  1  0
  2  1  2  0
  5  2  1  0
  6  5  1  0
  7  6  2  0
M  END
>  <smiles>  (6) 
O=c1ccc(OC(F)F)c[nH]1

>  <inchikey>  (6) 
VRWFXRMPZMWPKH-UHFFFAOYSA-N

>  <alias>  (6) 
A0525a

$$$$
A0528a
     RDKit          3D

 15 16  0  0  0  0  0  0  0  0999 V2000
   10.0980   16.1610   21.7630 O   0  0  0  0  0  0  0  0  0  0  0  0
   11.0240   15.4160   22.0390 C   0  0  0  0  0  0  0  0  0  0  0  0
   12.3220   15.7020   21.9000 N   0  0  0  0  0  0  0  0  0  0  0  0
   12.8350   16.7130   20.9870 C   0  0  0  0  0  0  0  0  0  0  0  0
   10.9280   13.9920   22.5750 C   0  0  1  0  0  0  0  0  0  0  0  0
   12.3590   13.6760   23.0450 C   0  0  0  0  0  0  0  0  0  0  0  0
   13.2070   14.8990   22.7210 C   0  0  0  0  0  0  0  0  0  0  0  0
   10.0050   13.9260   23.6780 O   0  0  0  0  0  0  0  0  0  0  0  0
    9.4550   12.7040   24.0210 C   0  0  0  0  0  0  0  0  0  0  0  0
    9.8850   11.5010   23.4740 C   0  0  0  0  0  0  0  0  0  0  0  0
    9.2570   10.3550   23.8970 C   0  0  0  0  0  0  0  0  0  0  0  0
    9.7030    9.1680   23.4060 F   0  0  0  0  0  0  0  0  0  0  0  0
    8.2400   10.3420   24.8120 C   0  0  0  0  0  0  0  0  0  0  0  0
    7.8230   11.5520   25.3410 C   0  0  0  0  0  0  0  0  0  0  0  0
    8.4270   12.7370   24.9500 C   0  0  0  0  0  0  0  0  0  0  0  0
  4  3  1  0
  3  7  1  0
  7  6  1  0
  6  5  1  0
  5  8  1  1
  9  8  1  0
  9 15  2  0
 15 14  1  0
 14 13  2  0
 13 11  1  0
 12 11  1  0
 11 10  2  0
 10  9  1  0
  5  2  1  0
  3  2  1  0
  2  1  2  0
M  END
>  <smiles>  (7) 
CN1CC[C@@H](Oc2cccc(F)c2)C1=O

>  <inchikey>  (7) 
JWLJWMCLUCDWSD-SNVBAGLBSA-N

>  <alias>  (7) 
A0528a

$$$$
A0528b
     RDKit          3D

 15 16  0  0  0  0  0  0  0  0999 V2000
   27.5430   19.5880   22.4250 O   0  0  0  0  0  0  0  0  0  0  0  0
   27.0550   20.0800   21.4300 C   0  0  0  0  0  0  0  0  0  0  0  0
   25.7600   20.3530   21.2480 N   0  0  0  0  0  0  0  0  0  0  0  0
   24.6800   19.6730   21.9560 C   0  0  0  0  0  0  0  0  0  0  0  0
   27.7760   20.5100   20.1670 C   0  0  1  0  0  0  0  0  0  0  0  0
   26.9170   21.6720   19.6940 C   0  0  0  0  0  0  0  0  0  0  0  0
   25.5220   21.3830   20.2460 C   0  0  0  0  0  0  0  0  0  0  0  0
   29.1240   20.8400   20.5190 O   0  0  0  0  0  0  0  0  0  0  0  0
   29.8980   21.5630   19.6380 C   0  0  0  0  0  0  0  0  0  0  0  0
   30.6430   20.9020   18.6740 C   0  0  0  0  0  0  0  0  0  0  0  0
   31.5150   21.6580   17.9290 C   0  0  0  0  0  0  0  0  0  0  0  0
   32.3140   21.0180   17.0480 F   0  0  0  0  0  0  0  0  0  0  0  0
   31.6560   23.0100   18.0630 C   0  0  0  0  0  0  0  0  0  0  0  0
   30.8880   23.6510   19.0180 C   0  0  0  0  0  0  0  0  0  0  0  0
   30.0040   22.9360   19.8050 C   0  0  0  0  0  0  0  0  0  0  0  0
  4  3  1  0
  3  7  1  0
  7  6  1  0
  6  5  1  0
  5  8  1  1
  9  8  1  0
  9 15  2  0
 15 14  1  0
 14 13  2  0
 13 11  1  0
 12 11  1  0
 11 10  2  0
 10  9  1  0
  5  2  1  0
  3  2  1  0
  2  1  2  0
M  END
>  <smiles>  (8) 
CN1CC[C@@H](Oc2cccc(F)c2)C1=O

>  <inchikey>  (8) 
JWLJWMCLUCDWSD-SNVBAGLBSA-N

>  <alias>  (8) 
A0528b

$$$$
A0540a
     RDKit          3D

 18 19  0  0  0  0  0  0  0  0999 V2000
   14.6260   23.4330   23.0830 N   0  0  0  0  0  0  0  0  0  0  0  0
   13.6660   23.2300   23.6310 C   0  0  0  0  0  0  0  0  0  0  0  0
   12.4820   22.9530   24.3550 C   0  0  0  0  0  0  0  0  0  0  0  0
   11.4660   23.9000   24.4110 C   0  0  0  0  0  0  0  0  0  0  0  0
   10.3170   23.6330   25.1270 C   0  0  0  0  0  0  0  0  0  0  0  0
   12.3290   21.7420   25.0190 C   0  0  0  0  0  0  0  0  0  0  0  0
   11.1770   21.4940   25.7220 C   0  0  0  0  0  0  0  0  0  0  0  0
   10.1600   22.4320   25.7930 C   0  0  0  0  0  0  0  0  0  0  0  0
    8.9300   22.1260   26.6000 C   0  0  0  0  0  0  0  0  0  0  0  0
    9.2870   22.1770   28.0300 N   0  0  0  0  0  0  0  0  0  0  0  0
    8.1230   22.0100   28.9190 C   0  0  0  0  0  0  0  0  0  0  0  0
    7.4740   20.6450   28.8770 C   0  0  0  0  0  0  0  0  0  0  0  0
    6.2440   20.4500   28.2630 C   0  0  0  0  0  0  0  0  0  0  0  0
    5.6540   19.1990   28.2250 C   0  0  0  0  0  0  0  0  0  0  0  0
    8.1050   19.5460   29.4400 C   0  0  0  0  0  0  0  0  0  0  0  0
    7.5320   18.2850   29.3880 C   0  0  0  0  0  0  0  0  0  0  0  0
    6.3190   18.1520   28.7800 C   0  0  0  0  0  0  0  0  0  0  0  0
    5.7580   16.9180   28.7040 F   0  0  0  0  0  0  0  0  0  0  0  0
 18 17  1  0
 17 14  1  0
 14 13  2  0
 13 12  1  0
 12 11  1  0
 11 10  1  0
 10  9  1  0
  9  8  1  0
  8  5  2  0
  5  4  1  0
  4  3  2  0
  3  2  1  0
  2  1  3  0
  6  3  1  0
  7  6  2  0
  8  7  1  0
 15 12  2  0
 16 15  1  0
 17 16  2  0
M  END
>  <smiles>  (9) 
N#Cc1ccc(CNCc2ccc(F)cc2)cc1

>  <inchikey>  (9) 
DLXXWXOFLPDGAD-UHFFFAOYSA-N

>  <alias>  (9) 
A0540a

$$$$
A0554b
     RDKit          3D

 13 14  0  0  0  0  0  0  0  0999 V2000
    3.2790   -3.8440    5.9560 O   0  0  0  0  0  0  0  0  0  0  0  0
    3.7720   -4.7830    5.3370 C   0  0  0  0  0  0  0  0  0  0  0  0
    4.6230   -4.5750    4.1250 C   0  0  0  0  0  0  0  0  0  0  0  0
    3.5680   -6.0810    5.6620 N   0  0  0  0  0  0  0  0  0  0  0  0
    3.2740   -6.7180    6.8900 C   0  0  0  0  0  0  0  0  0  0  0  0
    4.1070   -7.7480    7.3490 C   0  0  0  0  0  0  0  0  0  0  0  0
    5.3080   -8.2050    6.8630 N   0  0  0  0  0  0  0  0  0  0  0  0
    5.6940   -9.2970    7.6000 C   0  0  0  0  0  0  0  0  0  0  0  0
    4.7750   -9.5580    8.5620 C   0  0  0  0  0  0  0  0  0  0  0  0
    3.7400   -8.5770    8.4330 C   0  0  0  0  0  0  0  0  0  0  0  0
    2.5210   -8.3400    9.0720 C   0  0  0  0  0  0  0  0  0  0  0  0
    1.6940   -7.3210    8.6330 C   0  0  0  0  0  0  0  0  0  0  0  0
    2.0680   -6.5110    7.5670 C   0  0  0  0  0  0  0  0  0  0  0  0
  3  2  1  0
  2  1  2  0
  4  2  1  0
  5  4  1  0
  5 13  2  0
 13 12  1  0
 12 11  2  0
 11 10  1  0
 10  9  1  0
  9  8  2  0
  8  7  1  0
  7  6  1  0
  6  5  1  0
 10  6  2  0
M  END
>  <smiles>  (10) 
CC(=O)Nc1cccc2cc[nH]c12

>  <inchikey>  (10) 
DCOHDTHCOCZQTO-UHFFFAOYSA-N

>  <alias>  (10) 
A0554b

$$$$
A0554a
     RDKit          3D

 13 14  0  0  0  0  0  0  0  0999 V2000
   10.9670   13.8430   24.6240 O   0  0  0  0  0  0  0  0  0  0  0  0
   11.0770   13.5370   23.4490 C   0  0  0  0  0  0  0  0  0  0  0  0
   11.9730   14.2950   22.5090 C   0  0  0  0  0  0  0  0  0  0  0  0
   10.4350   12.4710   22.9060 N   0  0  0  0  0  0  0  0  0  0  0  0
    9.5150   11.5930   23.5110 C   0  0  0  0  0  0  0  0  0  0  0  0
    8.4980   12.0030   24.3880 C   0  0  0  0  0  0  0  0  0  0  0  0
    8.1670   13.2530   24.8500 N   0  0  0  0  0  0  0  0  0  0  0  0
    7.0570   13.1450   25.6510 C   0  0  0  0  0  0  0  0  0  0  0  0
    6.6630   11.8500   25.7280 C   0  0  0  0  0  0  0  0  0  0  0  0
    7.5640   11.0880   24.9210 C   0  0  0  0  0  0  0  0  0  0  0  0
    7.6590    9.7480   24.5500 C   0  0  0  0  0  0  0  0  0  0  0  0
    8.6790    9.3350   23.7130 C   0  0  0  0  0  0  0  0  0  0  0  0
    9.5850   10.2390   23.1970 C   0  0  0  0  0  0  0  0  0  0  0  0
  3  2  1  0
  2  1  2  0
  4  2  1  0
  5  4  1  0
  5 13  2  0
 13 12  1  0
 12 11  2  0
 11 10  1  0
 10  9  1  0
  9  8  2  0
  8  7  1  0
  7  6  1  0
  6  5  1  0
 10  6  2  0
M  END
>  <smiles>  (11) 
CC(=O)Nc1cccc2cc[nH]c12

>  <inchikey>  (11) 
DCOHDTHCOCZQTO-UHFFFAOYSA-N

>  <alias>  (11) 
A0554a

$$$$
A0556a
     RDKit          3D

 14 15  0  0  0  0  0  0  0  0999 V2000
    5.5240   11.7430   26.3370 O   0  0  0  0  0  0  0  0  0  0  0  0
    6.1730   10.7380   26.2980 C   0  0  0  0  0  0  0  0  0  0  0  0
    7.2770   10.6190   25.3570 C   0  0  0  0  0  0  0  0  0  0  0  0
    7.7920   11.6780   24.8170 C   0  0  0  0  0  0  0  0  0  0  0  0
    7.3650   12.8900   25.1850 N   0  0  0  0  0  0  0  0  0  0  0  0
    8.7680   11.2510   23.9760 C   0  0  0  0  0  0  0  0  0  0  0  0
    7.8530    9.4780   24.9550 N   0  0  0  0  0  0  0  0  0  0  0  0
    8.7760    9.9200   24.0870 N   0  0  0  0  0  0  0  0  0  0  0  0
    9.6770    8.9740   23.4490 C   0  0  0  0  0  0  0  0  0  0  0  0
    6.0130    9.7270   27.1510 N   0  0  0  0  0  0  0  0  0  0  0  0
    4.7960    9.6060   27.9500 C   0  0  0  0  0  0  0  0  0  0  0  0
    3.4950    9.1580   27.2110 C   0  0  0  0  0  0  0  0  0  0  0  0
    3.1750    8.5750   28.5780 C   0  0  0  0  0  0  0  0  0  0  0  0
    4.6670    8.4600   28.7970 C   0  0  0  0  0  0  0  0  0  0  0  0
  9  8  1  0
  8  6  1  0
  6  4  2  0
  5  4  1  0
  4  3  1  0
  7  3  2  0
  8  7  1  0
  3  2  1  0
  2  1  2  0
 10  2  1  0
 11 10  1  0
 11 14  1  0
 14 13  1  0
 13 12  1  0
 12 11  1  0
M  END
>  <smiles>  (12) 
Cn1cc(N)c(C(=O)NC2CCC2)n1

>  <inchikey>  (12) 
NILOPFIVQCAHIP-UHFFFAOYSA-N

>  <alias>  (12) 
A0556a

$$$$
A0566a
     RDKit          3D

 13 14  0  0  0  0  0  0  0  0999 V2000
   12.1700   13.6410   24.3760 O   0  0  0  0  0  0  0  0  0  0  0  0
   11.1980   13.7110   23.6240 C   0  0  0  0  0  0  0  0  0  0  0  0
   11.1150   14.7190   22.7640 N   0  0  0  0  0  0  0  0  0  0  0  0
   12.3000   15.4000   22.2810 C   0  0  0  0  0  0  0  0  0  0  0  0
   10.1670   12.5890   23.5270 C   0  0  0  0  0  0  0  0  0  0  0  0
    8.9750   12.5120   24.3180 C   0  0  0  0  0  0  0  0  0  0  0  0
    8.2720   13.4950   24.9720 N   0  0  0  0  0  0  0  0  0  0  0  0
    7.1650   12.9350   25.5440 C   0  0  0  0  0  0  0  0  0  0  0  0
    7.1360   11.6020   25.2960 C   0  0  0  0  0  0  0  0  0  0  0  0
    8.2700   11.3000   24.4920 C   0  0  0  0  0  0  0  0  0  0  0  0
    8.7280   10.1570   23.8390 C   0  0  0  0  0  0  0  0  0  0  0  0
    9.8250   10.2340   23.0070 C   0  0  0  0  0  0  0  0  0  0  0  0
   10.5290   11.4370   22.8350 C   0  0  0  0  0  0  0  0  0  0  0  0
  4  3  1  0
  3  2  1  0
  2  1  2  0
  5  2  1  0
  5 13  2  0
 13 12  1  0
 12 11  2  0
 11 10  1  0
 10  9  1  0
  9  8  2  0
  8  7  1  0
  7  6  1  0
  6  5  1  0
 10  6  2  0
M  END
>  <smiles>  (13) 
CNC(=O)c1cccc2cc[nH]c12

>  <inchikey>  (13) 
OKVUYVXDTGOYRU-UHFFFAOYSA-N

>  <alias>  (13) 
A0566a

$$$$
A0586a
     RDKit          3D

 15 16  0  0  0  0  0  0  0  0999 V2000
    6.7220   14.2200    6.5410 O   0  0  0  0  0  0  0  0  0  0  0  0
    6.8560   14.7880    5.2310 S   0  0  0  0  0  0  0  0  0  0  0  0
    7.7560   15.8870    5.0410 O   0  0  0  0  0  0  0  0  0  0  0  0
    5.4010   15.2910    4.7790 N   0  0  0  0  0  0  0  0  0  0  0  0
    7.3690   13.4940    4.1470 C   0  0  0  0  0  0  0  0  0  0  0  0
    7.2140   12.1700    4.5230 C   0  0  0  0  0  0  0  0  0  0  0  0
    7.5290   11.1710    3.6190 C   0  0  0  0  0  0  0  0  0  0  0  0
    7.8610   13.8270    2.8940 C   0  0  0  0  0  0  0  0  0  0  0  0
    8.1770   12.8160    1.9930 C   0  0  0  0  0  0  0  0  0  0  0  0
    8.6270   13.1670    0.7440 N   0  0  0  0  0  0  0  0  0  0  0  0
    9.9440   13.7810    0.6140 C   0  0  0  0  0  0  0  0  0  0  0  0
    8.0090   11.4730    2.3470 C   0  0  0  0  0  0  0  0  0  0  0  0
    8.3460   10.3870    1.3540 C   0  0  0  0  0  0  0  0  0  0  0  0
    8.5240   10.8530   -0.0970 C   0  0  0  0  0  0  0  0  0  0  0  0
    8.2120   12.3160   -0.3620 C   0  0  0  0  0  0  0  0  0  0  0  0
 11 10  1  0
 10 15  1  0
 15 14  1  0
 14 13  1  0
 13 12  1  0
 12  7  2  0
  7  6  1  0
  6  5  2  0
  8  5  1  0
  9  8  2  0
 10  9  1  0
 12  9  1  0
  5  2  1  0
  3  2  2  0
  2  1  2  0
  4  2  1  0
M  END
>  <smiles>  (14) 
CN1CCCc2ccc(S(N)(=O)=O)cc21

>  <inchikey>  (14) 
OUJFDUTZTPBMDN-UHFFFAOYSA-N

>  <alias>  (14) 
A0586a

$$$$
A0269a
     RDKit          3D

 15 16  0  0  0  0  0  0  0  0999 V2000
   17.8760   -3.2250   19.1950 O   0  0  0  0  0  0  0  0  0  0  0  0
   17.0190   -4.0340   19.4600 C   0  0  0  0  0  0  0  0  0  0  0  0
   15.9080   -4.4040   18.5280 C   0  0  0  0  0  0  0  0  0  0  0  0
   14.8620   -3.6830   17.9450 C   0  0  0  0  0  0  0  0  0  0  0  0
   13.8640   -4.3250   17.2670 C   0  0  0  0  0  0  0  0  0  0  0  0
   13.8710   -5.6460   17.1570 C   0  0  0  0  0  0  0  0  0  0  0  0
   14.8630   -6.3640   17.6780 C   0  0  0  0  0  0  0  0  0  0  0  0
   15.8920   -5.7690   18.3620 C   0  0  0  0  0  0  0  0  0  0  0  0
   16.7350   -4.4360   20.6750 N   0  0  0  0  0  0  0  0  0  0  0  0
   17.7120   -4.9240   21.5690 C   0  0  1  0  0  0  0  0  0  0  0  0
   18.4920   -3.6610   21.7900 C   0  0  0  0  0  0  0  0  0  0  0  0
   18.4880   -3.2310   23.1780 N   0  0  0  0  0  0  0  0  0  0  0  0
   18.9950   -4.2750   23.9950 C   0  0  0  0  0  0  0  0  0  0  0  0
   18.0030   -5.4890   23.9570 C   0  0  0  0  0  0  0  0  0  0  0  0
   16.9830   -5.3030   22.8370 C   0  0  0  0  0  0  0  0  0  0  0  0
  2  1  2  0
  9  2  1  0
 10  9  1  6
 10 15  1  0
 15 14  1  0
 14 13  1  0
 13 12  1  0
 12 11  1  0
 11 10  1  0
  3  2  1  0
  3  8  2  0
  8  7  1  0
  7  6  2  0
  6  5  1  0
  5  4  2  0
  4  3  1  0
M  END
>  <smiles>  (15) 
O=C(N[C@@H]1CCCNC1)c1ccccc1

>  <inchikey>  (15) 
ZFLKDMGBVZHBAC-LLVKDONJSA-N

>  <alias>  (15) 
A0269a

$$$$
A0608a
     RDKit          3D

 17 18  0  0  0  0  0  0  0  0999 V2000
   21.4860   11.7020    2.6450 O   0  0  0  0  0  0  0  0  0  0  0  0
   21.0130   12.7770    2.3220 C   0  0  0  0  0  0  0  0  0  0  0  0
   19.6280   13.1720    2.7820 C   0  0  0  0  0  0  0  0  0  0  0  0
   18.2910   13.0520    2.0900 C   0  0  0  0  0  0  0  0  0  0  0  0
   17.2910   13.9380    2.3960 C   0  0  0  0  0  0  0  0  0  0  0  0
   16.0320   13.8040    1.8680 C   0  0  0  0  0  0  0  0  0  0  0  0
   17.9890   12.0050    1.2430 C   0  0  0  0  0  0  0  0  0  0  0  0
   16.7300   11.8770    0.6920 C   0  0  0  0  0  0  0  0  0  0  0  0
   15.7170   12.7660    1.0130 C   0  0  0  0  0  0  0  0  0  0  0  0
   14.2920   12.5460    0.5520 C   0  0  0  0  0  0  0  0  0  0  0  0
   21.6830   13.7040    1.6400 N   0  0  0  0  0  0  0  0  0  0  0  0
   23.0870   14.0880    1.8710 C   0  0  0  0  0  0  0  0  0  0  0  0
   23.1830   15.5420    2.2590 C   0  0  1  0  0  0  0  0  0  0  0  0
   24.3180   16.1880    1.6670 O   0  0  0  0  0  0  0  0  0  0  0  0
   23.9450   17.4500    1.1550 C   0  0  0  0  0  0  0  0  0  0  0  0
   22.5190   17.7030    1.6180 C   0  0  0  0  0  0  0  0  0  0  0  0
   22.0170   16.3390    1.8540 C   0  0  0  0  0  0  0  0  0  0  0  0
 10  9  1  0
  9  6  1  0
  6  5  2  0
  5  4  1  0
  4  3  1  0
  3  2  1  0
  2  1  2  0
 11  2  1  0
 12 11  1  0
 13 12  1  6
 13 17  1  0
 17 16  1  0
 16 15  1  0
 15 14  1  0
 14 13  1  0
  7  4  2  0
  8  7  1  0
  9  8  2  0
M  END
>  <smiles>  (16) 
Cc1ccc(CC(=O)NC[C@@H]2CCCO2)cc1

>  <inchikey>  (16) 
GNNODMPIMQHVQL-ZDUSSCGKSA-N

>  <alias>  (16) 
A0608a

$$$$
A0152a
     RDKit          3D

 17 18  0  0  0  0  0  0  0  0999 V2000
    8.6480   21.4220   31.7390 O   0  0  0  0  0  0  0  0  0  0  0  0
    8.4980   21.1160   30.5560 C   0  0  0  0  0  0  0  0  0  0  0  0
    7.9920   19.9750   30.1800 N   0  0  0  0  0  0  0  0  0  0  0  0
    7.1940   19.7870   28.9820 C   0  0  0  0  0  0  0  0  0  0  0  0
    7.9020   20.3870   27.7900 C   0  0  0  0  0  0  0  0  0  0  0  0
    8.5960   22.1680   29.5020 C   0  0  0  0  0  0  0  0  0  0  0  0
    8.5860   21.6530   28.1280 N   0  0  0  0  0  0  0  0  0  0  0  0
    9.3140   22.4130   27.2920 C   0  0  0  0  0  0  0  0  0  0  0  0
   10.1770   23.1680   27.6940 O   0  0  0  0  0  0  0  0  0  0  0  0
    9.0900   22.2650   25.8070 C   0  0  0  0  0  0  0  0  0  0  0  0
   10.1350   22.9050   25.0730 O   0  0  0  0  0  0  0  0  0  0  0  0
   11.3760   22.3700   25.1380 C   0  0  0  0  0  0  0  0  0  0  0  0
   12.0330   23.3270   24.4120 C   0  0  0  0  0  0  0  0  0  0  0  0
   13.4010   23.2680   24.3150 C   0  0  0  0  0  0  0  0  0  0  0  0
   14.0890   22.2510   24.8870 C   0  0  0  0  0  0  0  0  0  0  0  0
   13.4230   21.2690   25.5770 C   0  0  0  0  0  0  0  0  0  0  0  0
   12.0580   21.3260   25.7240 C   0  0  0  0  0  0  0  0  0  0  0  0
  9  8  2  0
 10  8  1  0
 11 10  1  0
 12 11  1  0
 12 17  2  0
 17 16  1  0
 16 15  2  0
 15 14  1  0
 14 13  2  0
 13 12  1  0
  8  7  1  0
  7  5  1  0
  5  4  1  0
  4  3  1  0
  3  2  1  0
  2  1  2  0
  6  2  1  0
  7  6  1  0
M  END
>  <smiles>  (17) 
O=C1CN(C(=O)COc2ccccc2)CCN1

>  <inchikey>  (17) 
VQOCCTAPSDVOOO-UHFFFAOYSA-N

>  <alias>  (17) 
A0152a

$$$$
A0152b
     RDKit          3D

 17 18  0  0  0  0  0  0  0  0999 V2000
   18.5650   -4.9670   22.6390 O   0  0  0  0  0  0  0  0  0  0  0  0
   17.7180   -4.3810   22.0130 C   0  0  0  0  0  0  0  0  0  0  0  0
   17.2150   -4.8900   20.9170 N   0  0  0  0  0  0  0  0  0  0  0  0
   17.5030   -4.3400   19.6100 C   0  0  0  0  0  0  0  0  0  0  0  0
   18.4480   -3.1610   19.8280 C   0  0  0  0  0  0  0  0  0  0  0  0
   17.5160   -2.9030   22.1860 C   0  0  0  0  0  0  0  0  0  0  0  0
   17.9730   -2.2990   20.9320 N   0  0  0  0  0  0  0  0  0  0  0  0
   17.9410   -0.9550   20.9450 C   0  0  0  0  0  0  0  0  0  0  0  0
   17.3110   -0.2940   20.1370 O   0  0  0  0  0  0  0  0  0  0  0  0
   18.6480   -0.3370   22.1250 C   0  0  0  0  0  0  0  0  0  0  0  0
   18.1580    0.9790   22.2520 O   0  0  0  0  0  0  0  0  0  0  0  0
   17.8240    1.5520   23.4580 C   0  0  0  0  0  0  0  0  0  0  0  0
   17.1580    2.7370   23.7180 C   0  0  0  0  0  0  0  0  0  0  0  0
   17.5430    3.4150   24.8520 C   0  0  0  0  0  0  0  0  0  0  0  0
   18.5590    2.9170   25.6930 C   0  0  0  0  0  0  0  0  0  0  0  0
   19.1400    1.7230   25.4370 C   0  0  0  0  0  0  0  0  0  0  0  0
   18.7110    1.0040   24.3620 C   0  0  0  0  0  0  0  0  0  0  0  0
  9  8  2  0
 10  8  1  0
 11 10  1  0
 12 11  1  0
 12 17  2  0
 17 16  1  0
 16 15  2  0
 15 14  1  0
 14 13  2  0
 13 12  1  0
  8  7  1  0
  7  5  1  0
  5  4  1  0
  4  3  1  0
  3  2  1  0
  2  1  2  0
  6  2  1  0
  7  6  1  0
M  END
>  <smiles>  (18) 
O=C1CN(C(=O)COc2ccccc2)CCN1

>  <inchikey>  (18) 
VQOCCTAPSDVOOO-UHFFFAOYSA-N

>  <alias>  (18) 
A0152b

$$$$
A0194a
     RDKit          3D

 15 16  0  0  0  0  0  0  0  0999 V2000
   17.6470   -5.2070   23.0850 F   0  0  0  0  0  0  0  0  0  0  0  0
   18.3460   -4.1240   23.4880 C   0  0  0  0  0  0  0  0  0  0  0  0
   18.9760   -4.1800   24.7160 C   0  0  0  0  0  0  0  0  0  0  0  0
   19.6930   -3.0500   25.1080 C   0  0  0  0  0  0  0  0  0  0  0  0
   19.7720   -1.9360   24.2870 C   0  0  0  0  0  0  0  0  0  0  0  0
   19.1360   -1.9280   23.0670 C   0  0  0  0  0  0  0  0  0  0  0  0
   18.4110   -3.0340   22.6530 C   0  0  0  0  0  0  0  0  0  0  0  0
   18.9490   -5.4290   25.5620 C   0  0  0  0  0  0  0  0  0  0  0  0
   17.8870   -5.4410   26.5750 N   0  0  0  0  0  0  0  0  0  0  0  0
   18.3790   -5.8800   27.8930 C   0  0  0  0  0  0  0  0  0  0  0  0
   19.1650   -4.7430   28.5210 C   0  0  0  0  0  0  0  0  0  0  0  0
   18.4350   -4.1980   29.7210 C   0  0  0  0  0  0  0  0  0  0  0  0
   18.3030   -5.1860   30.7510 O   0  0  0  0  0  0  0  0  0  0  0  0
   17.9760   -6.4890   30.2280 C   0  0  0  0  0  0  0  0  0  0  0  0
   17.3390   -6.4020   28.8630 C   0  0  0  0  0  0  0  0  0  0  0  0
  2  1  1  0
  2  7  2  0
  7  6  1  0
  6  5  2  0
  5  4  1  0
  4  3  2  0
  3  2  1  0
  8  3  1  0
  9  8  1  0
 10  9  1  0
 10 15  1  0
 15 14  1  0
 14 13  1  0
 13 12  1  0
 12 11  1  0
 11 10  1  0
M  END
>  <smiles>  (19) 
Fc1ccccc1CNC1CCOCC1

>  <inchikey>  (19) 
VJDVDWXYFZNXLH-UHFFFAOYSA-N

>  <alias>  (19) 
A0194a

$$$$
A0237a
     RDKit          3D

 15 16  0  0  0  0  0  0  0  0999 V2000
    6.7120   12.7210   29.0980 O   0  0  0  0  0  0  0  0  0  0  0  0
    6.0670   11.7720   28.6550 C   0  0  0  0  0  0  0  0  0  0  0  0
    6.1020   10.4100   29.2970 C   0  0  0  0  0  0  0  0  0  0  0  0
    6.9920   10.2450   30.5280 C   0  0  0  0  0  0  0  0  0  0  0  0
    5.7240   10.0130   31.3880 C   0  0  0  0  0  0  0  0  0  0  0  0
    4.8660    9.9730   30.0970 C   0  0  0  0  0  0  0  0  0  0  0  0
    5.3130   11.8700   27.5640 N   0  0  0  0  0  0  0  0  0  0  0  0
    5.8310   12.3940   26.3140 C   0  0  0  0  0  0  0  0  0  0  0  0
    6.8900   11.5260   25.6770 C   0  0  0  0  0  0  0  0  0  0  0  0
    8.0380   12.0810   25.1500 C   0  0  0  0  0  0  0  0  0  0  0  0
    8.9000   11.3140   24.3960 C   0  0  0  0  0  0  0  0  0  0  0  0
    6.6870   10.1770   25.4450 C   0  0  0  0  0  0  0  0  0  0  0  0
    7.4970    9.4100   24.6940 N   0  0  0  0  0  0  0  0  0  0  0  0
    8.5970    9.9750   24.1630 C   0  0  0  0  0  0  0  0  0  0  0  0
    9.4770    9.1180   23.3050 C   0  0  0  0  0  0  0  0  0  0  0  0
 15 14  1  0
 14 11  1  0
 11 10  2  0
 10  9  1  0
  9  8  1  0
  8  7  1  0
  7  2  1  0
  2  1  2  0
  3  2  1  0
  3  6  1  0
  6  5  1  0
  5  4  1  0
  4  3  1  0
 12  9  2  0
 13 12  1  0
 14 13  2  0
M  END
>  <smiles>  (20) 
Cc1ccc(CNC(=O)C2CCC2)cn1

>  <inchikey>  (20) 
SQKAEGRLXBUQKF-UHFFFAOYSA-N

>  <alias>  (20) 
A0237a

$$$$
A0239a
     RDKit          3D

 15 16  0  0  0  0  0  0  0  0999 V2000
   19.9820   12.9770    2.5010 O   0  0  0  0  0  0  0  0  0  0  0  0
   19.9430   14.1570    2.5430 C   0  0  0  0  0  0  0  0  0  0  0  0
   18.6710   14.9180    2.2660 C   0  0  0  0  0  0  0  0  0  0  0  0
   18.6490   16.2620    2.6300 C   0  0  0  0  0  0  0  0  0  0  0  0
   21.0600   14.8590    2.7900 N   0  0  0  0  0  0  0  0  0  0  0  0
   22.2450   14.0810    3.0890 C   0  0  0  0  0  0  0  0  0  0  0  0
   22.8280   13.6390    1.7860 C   0  0  0  0  0  0  0  0  0  0  0  0
   23.8810   12.8320    1.5920 N   0  0  0  0  0  0  0  0  0  0  0  0
   23.8770   12.5710    0.3060 C   0  0  0  0  0  0  0  0  0  0  0  0
   22.9640   13.2240   -0.3220 N   0  0  0  0  0  0  0  0  0  0  0  0
   22.3030   13.9500    0.6200 N   0  0  0  0  0  0  0  0  0  0  0  0
   25.0100   12.4710    2.4390 C   0  0  0  0  0  0  0  0  0  0  0  0
   26.0680   11.7520    1.6890 C   0  0  0  0  0  0  0  0  0  0  0  0
   26.0620   12.1600    0.2840 C   0  0  0  0  0  0  0  0  0  0  0  0
   24.8560   11.6260   -0.2460 C   0  0  0  0  0  0  0  0  0  0  0  0
  4  3  1  0
  3  2  1  0
  2  1  2  0
  5  2  1  0
  6  5  1  0
  7  6  1  0
  7 11  2  0
 11 10  1  0
 10  9  2  0
  9 15  1  0
 15 14  1  0
 14 13  1  0
 13 12  1  0
 12  8  1  0
  8  7  1  0
  9  8  1  0
M  END
>  <smiles>  (21) 
CCC(=O)NCc1nnc2n1CCCC2

>  <inchikey>  (21) 
IOOTXFHTMOUUHM-UHFFFAOYSA-N

>  <alias>  (21) 
A0239a

$$$$
A0354a
     RDKit          3D

 14 15  0  0  0  0  0  0  0  0999 V2000
    2.9350   13.2850    2.5670 O   0  0  0  0  0  0  0  0  0  0  0  0
    3.3350   14.4230    2.4720 C   0  0  0  0  0  0  0  0  0  0  0  0
    2.3590   15.6440    2.6040 C   0  0  0  0  0  0  0  0  0  0  0  0
    2.8470   17.0120    2.1390 C   0  0  0  0  0  0  0  0  0  0  0  0
    2.7050   16.7420    3.6050 C   0  0  0  0  0  0  0  0  0  0  0  0
    4.6090   14.6790    2.2320 N   0  0  0  0  0  0  0  0  0  0  0  0
    5.7550   13.9380    2.7640 C   0  0  2  0  0  0  0  0  0  0  0  0
    6.4140   13.1850    1.6210 C   0  0  0  0  0  0  0  0  0  0  0  0
    5.5450   13.0160    3.9760 C   0  0  0  0  0  0  0  0  0  0  0  0
    7.0190   13.2160    4.9150 S   0  0  0  0  0  0  0  0  0  0  0  0
    6.6370   13.9090    6.0770 O   0  0  0  0  0  0  0  0  0  0  0  0
    7.7890   12.0310    4.9850 O   0  0  0  0  0  0  0  0  0  0  0  0
    7.7370   14.2650    3.9210 C   0  0  0  0  0  0  0  0  0  0  0  0
    6.6210   15.0640    3.2590 C   0  0  0  0  0  0  0  0  0  0  0  0
  7  8  1  6
  7 14  1  0
 14 13  1  0
 13 10  1  0
 11 10  2  0
 12 10  2  0
 10  9  1  0
  9  7  1  0
  7  6  1  0
  6  2  1  0
  2  1  2  0
  3  2  1  0
  3  5  1  0
  5  4  1  0
  4  3  1  0
M  END
>  <smiles>  (22) 
C[C@]1(NC(=O)C2CC2)CCS(=O)(=O)C1

>  <inchikey>  (22) 
LMUYJJAKMZKBHS-VIFPVBQESA-N

>  <alias>  (22) 
A0354a

$$$$
A0375a
     RDKit          3D

 12 12  0  0  0  0  0  0  0  0999 V2000
    3.2370    7.0960   26.1170 S   0  0  0  0  0  0  0  0  0  0  0  0
    3.4350    8.1840   27.4040 C   0  0  0  0  0  0  0  0  0  0  0  0
    2.4110    8.7400   28.0280 N   0  0  0  0  0  0  0  0  0  0  0  0
    4.6700    8.5720   27.7740 N   0  0  0  0  0  0  0  0  0  0  0  0
    5.0860    9.5940   28.6670 C   0  0  0  0  0  0  0  0  0  0  0  0
    5.2100    9.2960   30.0400 C   0  0  0  0  0  0  0  0  0  0  0  0
    4.7410    8.0690   30.4070 O   0  0  0  0  0  0  0  0  0  0  0  0
    3.4870    8.0240   31.0850 C   0  0  0  0  0  0  0  0  0  0  0  0
    5.4450   10.8630   28.2180 C   0  0  0  0  0  0  0  0  0  0  0  0
    5.9550   11.7930   29.1080 C   0  0  0  0  0  0  0  0  0  0  0  0
    6.0960   11.4820   30.4450 C   0  0  0  0  0  0  0  0  0  0  0  0
    5.7200   10.2350   30.9210 C   0  0  0  0  0  0  0  0  0  0  0  0
  8  7  1  0
  7  6  1  0
  6 12  2  0
 12 11  1  0
 11 10  2  0
 10  9  1  0
  9  5  2  0
  6  5  1  0
  5  4  1  0
  4  2  1  0
  2  1  2  0
  3  2  1  0
M  END
>  <smiles>  (23) 
COc1ccccc1NC(N)=S

>  <inchikey>  (23) 
HXCHZMHFZXNFIX-UHFFFAOYSA-N

>  <alias>  (23) 
A0375a

$$$$
A0375b
     RDKit          3D

 12 12  0  0  0  0  0  0  0  0999 V2000
   11.9100   12.7410   25.3030 S   0  0  0  0  0  0  0  0  0  0  0  0
   11.4960   13.2920   23.7630 C   0  0  0  0  0  0  0  0  0  0  0  0
   12.3720   13.8490   22.9560 N   0  0  0  0  0  0  0  0  0  0  0  0
   10.2390   13.1620   23.3100 N   0  0  0  0  0  0  0  0  0  0  0  0
    9.1360   12.6010   23.9950 C   0  0  0  0  0  0  0  0  0  0  0  0
    9.1190   11.2080   24.1760 C   0  0  0  0  0  0  0  0  0  0  0  0
   10.1610   10.5420   23.5920 O   0  0  0  0  0  0  0  0  0  0  0  0
    9.9220    9.2220   23.1100 C   0  0  0  0  0  0  0  0  0  0  0  0
    8.0970   13.3690   24.5170 C   0  0  0  0  0  0  0  0  0  0  0  0
    7.0680   12.7520   25.2080 C   0  0  0  0  0  0  0  0  0  0  0  0
    7.0630   11.3810   25.3840 C   0  0  0  0  0  0  0  0  0  0  0  0
    8.0940   10.6020   24.8830 C   0  0  0  0  0  0  0  0  0  0  0  0
  8  7  1  0
  7  6  1  0
  6 12  2  0
 12 11  1  0
 11 10  2  0
 10  9  1  0
  9  5  2  0
  6  5  1  0
  5  4  1  0
  4  2  1  0
  2  1  2  0
  3  2  1  0
M  END
>  <smiles>  (24) 
COc1ccccc1NC(N)=S

>  <inchikey>  (24) 
HXCHZMHFZXNFIX-UHFFFAOYSA-N

>  <alias>  (24) 
A0375b

$$$$
A0375c
     RDKit          3D

 12 12  0  0  0  0  0  0  0  0999 V2000
   17.2880   -5.3120   11.5740 S   0  0  0  0  0  0  0  0  0  0  0  0
   16.7910   -6.9160   11.3780 C   0  0  0  0  0  0  0  0  0  0  0  0
   17.4980   -7.9560   11.8200 N   0  0  0  0  0  0  0  0  0  0  0  0
   15.6400   -7.1790   10.7440 N   0  0  0  0  0  0  0  0  0  0  0  0
   15.0870   -8.4430   10.4690 C   0  0  0  0  0  0  0  0  0  0  0  0
   13.8290   -8.7390   11.0050 C   0  0  0  0  0  0  0  0  0  0  0  0
   13.3360   -7.8000   11.8710 O   0  0  0  0  0  0  0  0  0  0  0  0
   11.9570   -7.8890   12.2360 C   0  0  0  0  0  0  0  0  0  0  0  0
   15.7030   -9.3630    9.6240 C   0  0  0  0  0  0  0  0  0  0  0  0
   15.0540  -10.5440    9.3010 C   0  0  0  0  0  0  0  0  0  0  0  0
   13.8020  -10.8130    9.8100 C   0  0  0  0  0  0  0  0  0  0  0  0
   13.1850   -9.9170   10.6690 C   0  0  0  0  0  0  0  0  0  0  0  0
  8  7  1  0
  7  6  1  0
  6 12  2  0
 12 11  1  0
 11 10  2  0
 10  9  1  0
  9  5  2  0
  6  5  1  0
  5  4  1  0
  4  2  1  0
  2  1  2  0
  3  2  1  0
M  END
>  <smiles>  (25) 
COc1ccccc1NC(N)=S

>  <inchikey>  (25) 
HXCHZMHFZXNFIX-UHFFFAOYSA-N

>  <alias>  (25) 
A0375c

$$$$
A0836a
     RDKit          3D

 16 17  0  0  0  0  0  0  0  0999 V2000
    5.4350   13.3750   26.9030 N   0  0  0  0  0  0  0  0  0  0  0  0
    5.9190   12.0340   27.2140 C   0  0  2  0  0  0  0  0  0  0  0  0
    6.4980   11.9090   28.6140 C   0  0  0  0  0  0  0  0  0  0  0  0
    7.4600   12.8020   29.0630 C   0  0  0  0  0  0  0  0  0  0  0  0
    8.0280   12.6570   30.3180 C   0  0  0  0  0  0  0  0  0  0  0  0
    7.6440   11.6150   31.1370 C   0  0  0  0  0  0  0  0  0  0  0  0
    6.6880   10.7220   30.7030 C   0  0  0  0  0  0  0  0  0  0  0  0
    6.1170   10.8680   29.4510 C   0  0  0  0  0  0  0  0  0  0  0  0
    6.9290   11.5200   26.2010 C   0  0  0  0  0  0  0  0  0  0  0  0
    6.9880   10.1660   25.9120 C   0  0  0  0  0  0  0  0  0  0  0  0
    7.8720    9.6730   24.9710 C   0  0  0  0  0  0  0  0  0  0  0  0
    7.7940   12.3740   25.5290 C   0  0  0  0  0  0  0  0  0  0  0  0
    8.6900   11.8930   24.5900 C   0  0  0  0  0  0  0  0  0  0  0  0
    8.7300   10.5350   24.3120 C   0  0  0  0  0  0  0  0  0  0  0  0
    9.6390   10.0890   23.3860 O   0  0  0  0  0  0  0  0  0  0  0  0
    9.7970    8.6840   23.2110 C   0  0  0  0  0  0  0  0  0  0  0  0
 16 15  1  0
 15 14  1  0
 14 11  1  0
 11 10  2  0
 10  9  1  0
 12  9  2  0
 13 12  1  0
 14 13  2  0
  9  2  1  0
  2  1  1  6
  3  2  1  0
  3  8  2  0
  8  7  1  0
  7  6  2  0
  6  5  1  0
  5  4  2  0
  4  3  1  0
M  END
>  <smiles>  (26) 
COc1ccc([C@H](N)c2ccccc2)cc1

>  <inchikey>  (26) 
MXDBCXKVTJDKNP-CQSZACIVSA-N

>  <alias>  (26) 
A0836a

$$$$
A0836b
     RDKit          3D

 16 17  0  0  0  0  0  0  0  0999 V2000
    0.8100   15.2180   19.1410 N   0  0  0  0  0  0  0  0  0  0  0  0
    0.3990   13.8240   18.9360 C   0  0  2  0  0  0  0  0  0  0  0  0
    1.5610   12.8490   19.0450 C   0  0  0  0  0  0  0  0  0  0  0  0
    2.6300   12.9050   18.1640 C   0  0  0  0  0  0  0  0  0  0  0  0
    3.6950   12.0290   18.2900 C   0  0  0  0  0  0  0  0  0  0  0  0
    3.7040   11.0870   19.2920 C   0  0  0  0  0  0  0  0  0  0  0  0
    2.6520   11.0200   20.1730 C   0  0  0  0  0  0  0  0  0  0  0  0
    1.5850   11.8940   20.0510 C   0  0  0  0  0  0  0  0  0  0  0  0
   -0.4310   13.6700   17.6690 C   0  0  0  0  0  0  0  0  0  0  0  0
   -0.7990   12.4250   17.1820 C   0  0  0  0  0  0  0  0  0  0  0  0
   -1.5630   12.3040   16.0360 C   0  0  0  0  0  0  0  0  0  0  0  0
   -0.8470   14.7950   16.9760 C   0  0  0  0  0  0  0  0  0  0  0  0
   -1.6120   14.6880   15.8300 C   0  0  0  0  0  0  0  0  0  0  0  0
   -1.9690   13.4410   15.3590 C   0  0  0  0  0  0  0  0  0  0  0  0
   -2.7160   13.4240   14.2100 O   0  0  0  0  0  0  0  0  0  0  0  0
   -4.1340   13.4180   14.3370 C   0  0  0  0  0  0  0  0  0  0  0  0
 16 15  1  0
 15 14  1  0
 14 11  1  0
 11 10  2  0
 10  9  1  0
 12  9  2  0
 13 12  1  0
 14 13  2  0
  9  2  1  0
  2  1  1  6
  3  2  1  0
  3  8  2  0
  8  7  1  0
  7  6  2  0
  6  5  1  0
  5  4  2  0
  4  3  1  0
M  END
>  <smiles>  (27) 
COc1ccc([C@H](N)c2ccccc2)cc1

>  <inchikey>  (27) 
MXDBCXKVTJDKNP-CQSZACIVSA-N

>  <alias>  (27) 
A0836b

$$$$
A0853a
     RDKit          3D

 15 17  0  0  0  0  0  0  0  0999 V2000
   -0.5200   12.4570   21.6190 O   0  0  0  0  0  0  0  0  0  0  0  0
    0.2240   13.2410   21.0430 C   0  0  0  0  0  0  0  0  0  0  0  0
    1.1310   13.9790   21.6900 N   0  0  0  0  0  0  0  0  0  0  0  0
    0.9360   15.4050   21.9410 C   0  0  0  0  0  0  0  0  0  0  0  0
    0.4640   15.8250   23.2840 C   0  0  0  0  0  0  0  0  0  0  0  0
   -0.4430   15.9240   22.1100 C   0  0  0  0  0  0  0  0  0  0  0  0
    0.1410   13.4340   19.5660 C   0  0  0  0  0  0  0  0  0  0  0  0
    0.7340   12.5090   18.7100 C   0  0  0  0  0  0  0  0  0  0  0  0
    0.6350   12.7190   17.3570 C   0  0  0  0  0  0  0  0  0  0  0  0
    1.0520   11.9040   16.3290 O   0  0  0  0  0  0  0  0  0  0  0  0
    0.4170   12.4460   15.1690 C   0  0  0  0  0  0  0  0  0  0  0  0
    0.0490   13.7890   15.4760 O   0  0  0  0  0  0  0  0  0  0  0  0
   -0.0080   13.8190   16.8480 C   0  0  0  0  0  0  0  0  0  0  0  0
   -0.6060   14.7500   17.6720 C   0  0  0  0  0  0  0  0  0  0  0  0
   -0.5290   14.5450   19.0390 C   0  0  0  0  0  0  0  0  0  0  0  0
  2  1  2  0
  3  2  1  0
  4  3  1  0
  4  6  1  0
  6  5  1  0
  5  4  1  0
  7  2  1  0
  7 15  2  0
 15 14  1  0
 14 13  2  0
 13 12  1  0
 12 11  1  0
 11 10  1  0
 10  9  1  0
 13  9  1  0
  9  8  2  0
  8  7  1  0
M  END
>  <smiles>  (28) 
O=C(NC1CC1)c1ccc2c(c1)OCO2

>  <inchikey>  (28) 
OUGQMSXIPFSZBI-UHFFFAOYSA-N

>  <alias>  (28) 
A0853a

$$$$
A0863a
     RDKit          3D

 14 14  0  0  0  0  0  0  0  0999 V2000
   27.7580   20.3250   19.0390 O   0  0  0  0  0  0  0  0  0  0  0  0
   28.1430   21.0370   19.9400 C   0  0  0  0  0  0  0  0  0  0  0  0
   27.3410   21.3460   20.9790 N   0  0  0  0  0  0  0  0  0  0  0  0
   27.6460   22.1370   22.1730 C   0  0  0  0  0  0  0  0  0  0  0  0
   26.6580   21.9320   23.2970 C   0  0  0  0  0  0  0  0  0  0  0  0
   25.9410   20.9030   20.8390 C   0  0  0  0  0  0  0  0  0  0  0  0
   25.7170   19.5050   21.3010 C   0  0  0  0  0  0  0  0  0  0  0  0
   29.5310   21.5930   19.8540 C   0  0  0  0  0  0  0  0  0  0  0  0
   29.8470   22.9310   20.0940 C   0  0  0  0  0  0  0  0  0  0  0  0
   31.1050   23.4270   19.7940 C   0  0  0  0  0  0  0  0  0  0  0  0
   32.0810   22.6070   19.2250 C   0  0  0  0  0  0  0  0  0  0  0  0
   33.3400   23.1050   18.9240 N   0  0  0  0  0  0  0  0  0  0  0  0
   31.7600   21.2680   18.9750 C   0  0  0  0  0  0  0  0  0  0  0  0
   30.5110   20.7680   19.3010 C   0  0  0  0  0  0  0  0  0  0  0  0
  7  6  1  0
  6  3  1  0
  4  3  1  0
  5  4  1  0
  3  2  1  0
  2  1  2  0
  8  2  1  0
  8 14  2  0
 14 13  1  0
 13 11  2  0
 12 11  1  0
 11 10  1  0
 10  9  2  0
  9  8  1  0
M  END
>  <smiles>  (29) 
CCN(CC)C(=O)c1ccc(N)cc1

>  <inchikey>  (29) 
RNVOPVJRSRXPSX-UHFFFAOYSA-N

>  <alias>  (29) 
A0863a

$$$$
A0884a
     RDKit          3D

 14 14  0  0  0  0  0  0  0  0999 V2000
   12.3890   14.1920   22.3820 O   0  0  0  0  0  0  0  0  0  0  0  0
   11.5640   13.6870   23.1630 C   0  0  0  0  0  0  0  0  0  0  0  0
   11.4810   14.0480   24.4380 N   0  0  0  0  0  0  0  0  0  0  0  0
   10.7240   12.6720   22.7770 N   0  0  0  0  0  0  0  0  0  0  0  0
    9.7260   11.9940   23.5260 C   0  0  0  0  0  0  0  0  0  0  0  0
    9.6180   10.6190   23.3720 C   0  0  0  0  0  0  0  0  0  0  0  0
    8.6080    9.9300   24.0230 C   0  0  0  0  0  0  0  0  0  0  0  0
    7.7080   10.6000   24.8380 C   0  0  0  0  0  0  0  0  0  0  0  0
    8.8310   12.6670   24.3580 C   0  0  0  0  0  0  0  0  0  0  0  0
    7.8330   11.9700   25.0300 C   0  0  0  0  0  0  0  0  0  0  0  0
    7.0280   12.7300   25.9270 N   0  0  0  0  0  0  0  0  0  0  0  0
    5.9550   12.3550   26.6750 C   0  0  0  0  0  0  0  0  0  0  0  0
    4.9720   13.0750   26.8320 O   0  0  0  0  0  0  0  0  0  0  0  0
    6.0720   11.0230   27.3600 C   0  0  0  0  0  0  0  0  0  0  0  0
 14 12  1  0
 13 12  2  0
 12 11  1  0
 11 10  1  0
 10  8  1  0
  8  7  2  0
  7  6  1  0
  6  5  2  0
  5  4  1  0
  4  2  1  0
  2  1  2  0
  3  2  1  0
  9  5  1  0
 10  9  2  0
M  END
>  <smiles>  (30) 
CC(=O)Nc1cccc(NC(N)=O)c1

>  <inchikey>  (30) 
GVNXANNAMKHSRF-UHFFFAOYSA-N

>  <alias>  (30) 
A0884a

$$$$
A0911a
     RDKit          3D

 15 16  0  0  0  0  0  0  0  0999 V2000
   -1.0810   14.9630   19.5170 O   0  0  0  0  0  0  0  0  0  0  0  0
   -0.3860   14.0760   19.0580 C   0  0  0  0  0  0  0  0  0  0  0  0
   -0.3360   13.8240   17.5650 C   0  0  2  0  0  0  0  0  0  0  0  0
   -1.1140   14.8470   16.7710 C   0  0  0  0  0  0  0  0  0  0  0  0
   -1.3840   14.2350   15.4500 N   0  0  0  0  0  0  0  0  0  0  0  0
   -1.3980   12.7610   15.6350 C   0  0  0  0  0  0  0  0  0  0  0  0
   -1.0200   12.5150   17.1400 C   0  0  0  0  0  0  0  0  0  0  0  0
    0.3510   13.2890   19.8800 N   0  0  0  0  0  0  0  0  0  0  0  0
   -0.0420   13.1670   21.2780 C   0  0  0  0  0  0  0  0  0  0  0  0
    1.5170   12.5430   19.4980 C   0  0  0  0  0  0  0  0  0  0  0  0
    2.4470   13.0930   18.6250 C   0  0  0  0  0  0  0  0  0  0  0  0
    3.5950   12.3850   18.3150 C   0  0  0  0  0  0  0  0  0  0  0  0
    3.8220   11.1450   18.8700 C   0  0  0  0  0  0  0  0  0  0  0  0
    2.9040   10.6020   19.7380 C   0  0  0  0  0  0  0  0  0  0  0  0
    1.7470   11.2920   20.0540 C   0  0  0  0  0  0  0  0  0  0  0  0
  9  8  1  0
  8  2  1  0
  2  1  2  0
  3  2  1  1
  3  7  1  0
  7  6  1  0
  6  5  1  0
  5  4  1  0
  4  3  1  0
 10  8  1  0
 10 15  2  0
 15 14  1  0
 14 13  2  0
 13 12  1  0
 12 11  2  0
 11 10  1  0
M  END
>  <smiles>  (31) 
CN(C(=O)[C@H]1CCNC1)c1ccccc1

>  <inchikey>  (31) 
VZIWWLIHHFDZEO-JTQLQIEISA-N

>  <alias>  (31) 
A0911a

$$$$
A1292a
     RDKit          3D

 13 14  0  0  0  0  0  0  0  0999 V2000
    5.9780   10.7830   26.9290 O   0  0  0  0  0  0  0  0  0  0  0  0
    6.4670   11.7110   26.2880 C   0  0  0  0  0  0  0  0  0  0  0  0
    6.0270   12.9740   26.4190 N   0  0  0  0  0  0  0  0  0  0  0  0
    5.0290   13.3490   27.4210 C   0  0  0  0  0  0  0  0  0  0  0  0
    4.8460   14.7860   27.7410 C   0  0  0  0  0  0  0  0  0  0  0  0
    5.5000   13.8800   28.7240 C   0  0  0  0  0  0  0  0  0  0  0  0
    7.5740   11.4560   25.3030 C   0  0  0  0  0  0  0  0  0  0  0  0
    7.7770   10.1590   24.7870 C   0  0  0  0  0  0  0  0  0  0  0  0
    6.9760    9.1240   25.1380 O   0  0  0  0  0  0  0  0  0  0  0  0
    8.4060   12.4860   24.8560 C   0  0  0  0  0  0  0  0  0  0  0  0
    9.3870   12.2430   23.9100 C   0  0  0  0  0  0  0  0  0  0  0  0
    9.5830   10.9730   23.4170 C   0  0  0  0  0  0  0  0  0  0  0  0
    8.7930    9.9270   23.8580 C   0  0  0  0  0  0  0  0  0  0  0  0
  9  8  1  0
  8 13  2  0
 13 12  1  0
 12 11  2  0
 11 10  1  0
 10  7  2  0
  8  7  1  0
  7  2  1  0
  2  1  2  0
  3  2  1  0
  4  3  1  0
  4  6  1  0
  6  5  1  0
  5  4  1  0
M  END
>  <smiles>  (32) 
O=C(NC1CC1)c1ccccc1O

>  <inchikey>  (32) 
UWYBOEZQGCFECQ-UHFFFAOYSA-N

>  <alias>  (32) 
A1292a

$$$$
A1346a
     RDKit          3D

 29 31  0  0  0  0  0  0  0  0999 V2000
    9.3100   16.7550   20.7580 Cl  0  0  0  0  0  0  0  0  0  0  0  0
    9.1450   15.1050   21.3920 C   0  0  0  0  0  0  0  0  0  0  0  0
    7.7420   14.6560   21.7470 C   0  0  0  0  0  0  0  0  0  0  0  0
    7.4680   13.4720   21.6300 O   0  0  0  0  0  0  0  0  0  0  0  0
    6.8720   15.5540   22.2050 N   0  0  0  0  0  0  0  0  0  0  0  0
    5.5930   15.1870   22.8010 C   0  0  0  0  0  0  0  0  0  0  0  0
    5.6870   15.2090   24.3340 C   0  0  1  0  0  0  0  0  0  0  0  0
    4.3310   15.2670   25.0140 C   0  0  0  0  0  0  0  0  0  0  0  0
    3.8530   14.2080   25.7420 C   0  0  0  0  0  0  0  0  0  0  0  0
    2.5880   14.2550   26.3760 C   0  0  0  0  0  0  0  0  0  0  0  0
    2.0920   13.1910   27.1710 C   0  0  0  0  0  0  0  0  0  0  0  0
    0.8770   13.2900   27.7880 C   0  0  0  0  0  0  0  0  0  0  0  0
    0.1010   14.4310   27.6430 C   0  0  0  0  0  0  0  0  0  0  0  0
    0.5390   15.4770   26.8830 C   0  0  0  0  0  0  0  0  0  0  0  0
    1.7990   15.4230   26.2350 C   0  0  0  0  0  0  0  0  0  0  0  0
    2.3200   16.4970   25.4790 C   0  0  0  0  0  0  0  0  0  0  0  0
    3.5540   16.4150   24.9030 C   0  0  0  0  0  0  0  0  0  0  0  0
    6.5380   14.1280   24.8280 N   0  0  0  0  0  0  0  0  0  0  0  0
    7.3580   14.2770   25.8750 C   0  0  0  0  0  0  0  0  0  0  0  0
    7.5860   15.3720   26.3820 O   0  0  0  0  0  0  0  0  0  0  0  0
    7.9830   13.0250   26.4510 C   0  0  0  0  0  0  0  0  0  0  0  0
    7.9820   11.7740   25.6120 C   0  0  0  0  0  0  0  0  0  0  0  0
    7.2080   10.6070   25.8160 C   0  0  0  0  0  0  0  0  0  0  0  0
    6.0700   10.4080   26.7630 C   0  0  0  0  0  0  0  0  0  0  0  0
    8.8440   11.4130   24.5800 C   0  0  0  0  0  0  0  0  0  0  0  0
    9.8480   12.2510   23.8680 C   0  0  0  0  0  0  0  0  0  0  0  0
    8.5980   10.1340   24.2750 N   0  0  0  0  0  0  0  0  0  0  0  0
    7.5840    9.6190   25.0210 N   0  0  0  0  0  0  0  0  0  0  0  0
    9.2900    9.2790   23.3180 C   0  0  0  0  0  0  0  0  0  0  0  0
 24 23  1  0
 23 28  2  0
 28 27  1  0
 29 27  1  0
 27 25  1  0
 26 25  1  0
 25 22  2  0
 23 22  1  0
 22 21  1  0
 21 19  1  0
 20 19  2  0
 19 18  1  0
 18  7  1  0
  7  6  1  6
  6  5  1  0
  5  3  1  0
  4  3  2  0
  3  2  1  0
  2  1  1  0
  8  7  1  0
  8 17  2  0
 17 16  1  0
 16 15  2  0
 15 14  1  0
 14 13  2  0
 13 12  1  0
 12 11  2  0
 11 10  1  0
 15 10  1  0
 10  9  2  0
  9  8  1  0
M  END
>  <smiles>  (33) 
Cc1nn(C)c(C)c1CC(=O)N[C@@H](CNC(=O)CCl)c1ccc2ccccc2c1

>  <inchikey>  (33) 
BKBFLODZEQEWBQ-FQEVSTJZSA-N

>  <alias>  (33) 
A1346a

$$$$
A1775a
     RDKit          3D

 13 13  0  0  0  0  0  0  0  0999 V2000
   12.3120    9.0470   21.5260 O   0  0  0  0  0  0  0  0  0  0  0  0
   12.2440   10.1160   22.1090 C   0  0  0  0  0  0  0  0  0  0  0  0
   13.1670   11.2610   21.7910 C   0  0  0  0  0  0  0  0  0  0  0  0
   14.2250   10.9600   20.7460 C   0  0  0  0  0  0  0  0  0  0  0  0
   11.1720   10.3660   23.1130 C   0  0  0  0  0  0  0  0  0  0  0  0
   11.0310   11.5950   23.7540 C   0  0  0  0  0  0  0  0  0  0  0  0
    9.9440   11.8430   24.5730 C   0  0  0  0  0  0  0  0  0  0  0  0
   10.2210    9.3770   23.3480 C   0  0  0  0  0  0  0  0  0  0  0  0
    9.1410    9.6160   24.1780 C   0  0  0  0  0  0  0  0  0  0  0  0
    8.9920   10.8510   24.7760 C   0  0  0  0  0  0  0  0  0  0  0  0
    7.8390   10.9720   25.5210 O   0  0  0  0  0  0  0  0  0  0  0  0
    7.4740   12.2870   25.9910 C   0  0  0  0  0  0  0  0  0  0  0  0
    6.1310   12.1990   26.5390 C   0  0  0  0  0  0  0  0  0  0  0  0
 13 12  1  0
 12 11  1  0
 11 10  1  0
 10  7  2  0
  7  6  1  0
  6  5  2  0
  5  2  1  0
  2  1  2  0
  3  2  1  0
  4  3  1  0
  8  5  1  0
  9  8  2  0
 10  9  1  0
M  END
>  <smiles>  (34) 
CCOc1ccc(C(=O)CC)cc1

>  <inchikey>  (34) 
XZJXCESWBMDSBO-UHFFFAOYSA-N

>  <alias>  (34) 
A1775a

$$$$
A2293a
     RDKit          3D

 24 27  0  0  0  0  0  0  0  0999 V2000
   10.3290   14.5820   23.3500 O   0  0  0  0  0  0  0  0  0  0  0  0
   10.7010   13.5310   22.8360 C   0  0  0  0  0  0  0  0  0  0  0  0
   10.0260   12.2380   23.1870 C   0  0  0  0  0  0  0  0  0  0  0  0
   10.3760   11.0940   22.6150 N   0  0  0  0  0  0  0  0  0  0  0  0
    9.0290   12.0210   24.1840 C   0  0  0  0  0  0  0  0  0  0  0  0
    8.7680   10.6440   24.1480 C   0  0  0  0  0  0  0  0  0  0  0  0
    7.8150   10.0500   24.9630 C   0  0  0  0  0  0  0  0  0  0  0  0
    7.1280   10.8830   25.8430 C   0  0  0  0  0  0  0  0  0  0  0  0
    7.3870   12.2410   25.8920 C   0  0  0  0  0  0  0  0  0  0  0  0
    8.3430   12.8280   25.0830 C   0  0  0  0  0  0  0  0  0  0  0  0
    9.6150   10.1230   23.2150 N   0  0  0  0  0  0  0  0  0  0  0  0
    9.8690    8.7200   22.9110 C   0  0  0  0  0  0  0  0  0  0  0  0
   11.7210   13.4440   21.9840 N   0  0  0  0  0  0  0  0  0  0  0  0
   12.4830   14.6440   21.5960 C   0  0  0  0  0  0  0  0  0  0  0  0
   12.5950   14.7620   20.0630 C   0  0  1  0  0  0  0  0  0  0  0  0
   11.2680   14.6390   19.4510 N   0  0  0  0  0  0  0  0  0  0  0  0
   10.3470   15.7240   19.7600 C   0  0  0  0  0  0  0  0  0  0  0  0
   10.9750   17.0910   19.6580 C   0  0  0  0  0  0  0  0  0  0  0  0
   12.3730   17.2490   19.6600 C   0  0  0  0  0  0  0  0  0  0  0  0
   13.2890   16.0450   19.6200 C   0  0  0  0  0  0  0  0  0  0  0  0
   10.1580   18.2150   19.5290 C   0  0  0  0  0  0  0  0  0  0  0  0
   10.7060   19.4810   19.4090 C   0  0  0  0  0  0  0  0  0  0  0  0
   12.0750   19.6410   19.4360 C   0  0  0  0  0  0  0  0  0  0  0  0
   12.9070   18.5360   19.5610 C   0  0  0  0  0  0  0  0  0  0  0  0
 12 11  1  0
 11  4  1  0
  4  3  2  0
  3  2  1  0
  2  1  2  0
 13  2  1  0
 14 13  1  0
 15 14  1  1
 15 20  1  0
 20 19  1  0
 19 24  2  0
 24 23  1  0
 23 22  2  0
 22 21  1  0
 21 18  2  0
 19 18  1  0
 18 17  1  0
 17 16  1  0
 16 15  1  0
  5  3  1  0
  5 10  2  0
 10  9  1  0
  9  8  2  0
  8  7  1  0
  7  6  2  0
  6  5  1  0
 11  6  1  0
M  END
>  <smiles>  (35) 
Cn1nc(C(=O)NC[C@@H]2Cc3ccccc3CN2)c2ccccc21

>  <inchikey>  (35) 
FCRASUWOKLJVQY-HNNXBMFYSA-N

>  <alias>  (35) 
A2293a

$$$$
A2304a
     RDKit          3D

 18 20  0  0  0  0  0  0  0  0999 V2000
   10.7260   14.6060   23.7040 O   0  0  0  0  0  0  0  0  0  0  0  0
   10.7390   13.5900   22.9910 C   0  0  0  0  0  0  0  0  0  0  0  0
   11.3590   13.5330   21.7810 N   0  0  0  0  0  0  0  0  0  0  0  0
   11.9640   14.6240   21.1270 C   0  0  0  0  0  0  0  0  0  0  0  0
   12.3910   15.8430   21.6160 C   0  0  0  0  0  0  0  0  0  0  0  0
   12.8810   16.5180   20.5690 N   0  0  0  0  0  0  0  0  0  0  0  0
   12.7940   15.8050   19.4310 N   0  0  0  0  0  0  0  0  0  0  0  0
   12.2220   14.6470   19.7550 C   0  0  0  0  0  0  0  0  0  0  0  0
   10.0800   12.3090   23.4390 C   0  0  0  0  0  0  0  0  0  0  0  0
   10.3770   11.1480   22.8490 N   0  0  0  0  0  0  0  0  0  0  0  0
    9.0450   12.1360   24.4120 C   0  0  0  0  0  0  0  0  0  0  0  0
    8.7330   10.7670   24.3600 C   0  0  0  0  0  0  0  0  0  0  0  0
    9.5440   10.2150   23.4140 N   0  0  0  0  0  0  0  0  0  0  0  0
    9.6750    8.8120   23.0560 C   0  0  0  0  0  0  0  0  0  0  0  0
    7.7550   10.2050   25.1750 C   0  0  0  0  0  0  0  0  0  0  0  0
    7.0760   11.0490   26.0510 C   0  0  0  0  0  0  0  0  0  0  0  0
    7.3700   12.4030   26.1070 C   0  0  0  0  0  0  0  0  0  0  0  0
    8.3460   12.9610   25.2960 C   0  0  0  0  0  0  0  0  0  0  0  0
 14 13  1  0
 13 10  1  0
 10  9  2  0
  9  2  1  0
  2  1  2  0
  3  2  1  0
  4  3  1  0
  4  8  1  0
  8  7  2  0
  7  6  1  0
  6  5  1  0
  5  4  2  0
 11  9  1  0
 11 18  2  0
 18 17  1  0
 17 16  2  0
 16 15  1  0
 15 12  2  0
 12 11  1  0
 13 12  1  0
M  END
>  <smiles>  (36) 
Cn1nc(C(=O)Nc2cn[nH]c2)c2ccccc21

>  <inchikey>  (36) 
JXKYXHWVMLLNCD-UHFFFAOYSA-N

>  <alias>  (36) 
A2304a

$$$$
A2339a
     RDKit          3D

 17 19  0  0  0  0  0  0  0  0999 V2000
    5.8280   12.4150   27.1850 F   0  0  0  0  0  0  0  0  0  0  0  0
    6.5740   11.7590   26.2550 C   0  0  0  0  0  0  0  0  0  0  0  0
    7.4470   12.5030   25.4950 C   0  0  0  0  0  0  0  0  0  0  0  0
    6.4300   10.3880   26.1460 C   0  0  0  0  0  0  0  0  0  0  0  0
    7.2200    9.7060   25.2300 C   0  0  0  0  0  0  0  0  0  0  0  0
    8.1300   10.4280   24.4680 C   0  0  0  0  0  0  0  0  0  0  0  0
    9.0540   10.0360   23.5430 N   0  0  0  0  0  0  0  0  0  0  0  0
    9.3790    8.6870   23.1090 C   0  0  0  0  0  0  0  0  0  0  0  0
    8.2470   11.8170   24.5830 C   0  0  0  0  0  0  0  0  0  0  0  0
    9.2770   12.1800   23.6540 C   0  0  0  0  0  0  0  0  0  0  0  0
    9.7630   11.1030   23.0400 N   0  0  0  0  0  0  0  0  0  0  0  0
    9.7990   13.5490   23.3260 C   0  0  0  0  0  0  0  0  0  0  0  0
    9.5650   14.5000   24.0640 O   0  0  0  0  0  0  0  0  0  0  0  0
   10.5110   13.6480   22.1960 N   0  0  0  0  0  0  0  0  0  0  0  0
   11.0950   14.9050   21.7290 C   0  0  0  0  0  0  0  0  0  0  0  0
   12.1060   14.8480   20.6600 C   0  0  0  0  0  0  0  0  0  0  0  0
   10.7550   15.3730   20.3720 C   0  0  0  0  0  0  0  0  0  0  0  0
  8  7  1  0
  7 11  1  0
 11 10  2  0
 12 10  1  0
 13 12  2  0
 14 12  1  0
 15 14  1  0
 15 17  1  0
 17 16  1  0
 16 15  1  0
 10  9  1  0
  9  3  1  0
  3  2  2  0
  2  1  1  0
  4  2  1  0
  5  4  2  0
  6  5  1  0
  9  6  2  0
  7  6  1  0
M  END
>  <smiles>  (37) 
Cn1nc(C(=O)NC2CC2)c2cc(F)ccc21

>  <inchikey>  (37) 
LJCPETRSDJEEFS-UHFFFAOYSA-N

>  <alias>  (37) 
A2339a

$$$$
A2454a
     RDKit          3D

 14 14  0  0  0  0  0  0  0  0999 V2000
    5.5060   13.7100   26.6430 O   0  0  0  0  0  0  0  0  0  0  0  0
    6.3000   13.3380   25.7680 C   0  0  0  0  0  0  0  0  0  0  0  0
    6.6130   14.0950   24.7150 N   0  0  0  0  0  0  0  0  0  0  0  0
    6.8710   12.0950   25.8040 N   0  0  0  0  0  0  0  0  0  0  0  0
    7.7870   11.4920   24.9080 C   0  0  0  0  0  0  0  0  0  0  0  0
    7.5990   10.1530   24.5900 C   0  0  0  0  0  0  0  0  0  0  0  0
    8.4700    9.5230   23.7170 C   0  0  0  0  0  0  0  0  0  0  0  0
    9.5290   10.2150   23.1530 C   0  0  0  0  0  0  0  0  0  0  0  0
    8.8570   12.1890   24.3530 C   0  0  0  0  0  0  0  0  0  0  0  0
    9.7230   11.5540   23.4670 C   0  0  0  0  0  0  0  0  0  0  0  0
   10.7920   12.2820   22.8950 N   0  0  0  0  0  0  0  0  0  0  0  0
   11.5160   13.2770   23.4650 C   0  0  0  0  0  0  0  0  0  0  0  0
   11.5180   13.4890   24.6750 O   0  0  0  0  0  0  0  0  0  0  0  0
   12.3030   14.1220   22.5090 C   0  0  0  0  0  0  0  0  0  0  0  0
 14 12  1  0
 13 12  2  0
 12 11  1  0
 11 10  1  0
 10  8  1  0
  8  7  2  0
  7  6  1  0
  6  5  2  0
  5  4  1  0
  4  2  1  0
  3  2  1  0
  2  1  2  0
  9  5  1  0
 10  9  2  0
M  END
>  <smiles>  (38) 
CC(=O)Nc1cccc(NC(N)=O)c1

>  <inchikey>  (38) 
GVNXANNAMKHSRF-UHFFFAOYSA-N

>  <alias>  (38) 
A2454a

$$$$
A2846a
     RDKit          3D

 20 22  0  0  0  0  0  0  0  0999 V2000
   10.2800   14.1940   24.6720 O   0  0  0  0  0  0  0  0  0  0  0  0
   10.3520   13.3380   23.7910 C   0  0  0  0  0  0  0  0  0  0  0  0
    9.5840   12.0480   23.9080 C   0  0  0  0  0  0  0  0  0  0  0  0
    9.9420   10.9660   23.2140 N   0  0  0  0  0  0  0  0  0  0  0  0
    8.4760   11.7600   24.7700 C   0  0  0  0  0  0  0  0  0  0  0  0
    8.2090   10.4010   24.5590 C   0  0  0  0  0  0  0  0  0  0  0  0
    7.2280    9.7310   25.2760 C   0  0  0  0  0  0  0  0  0  0  0  0
    6.4980   10.4500   26.2140 C   0  0  0  0  0  0  0  0  0  0  0  0
    6.7430   11.8000   26.4240 C   0  0  0  0  0  0  0  0  0  0  0  0
    7.7230   12.4640   25.7050 C   0  0  0  0  0  0  0  0  0  0  0  0
    9.0920    9.9690   23.6140 N   0  0  0  0  0  0  0  0  0  0  0  0
    9.1980    8.6470   23.0260 C   0  0  0  0  0  0  0  0  0  0  0  0
   11.1030   13.4660   22.6980 N   0  0  0  0  0  0  0  0  0  0  0  0
   12.0910   14.5240   22.5610 C   0  0  0  0  0  0  0  0  0  0  0  0
   12.3860   14.8450   21.1130 C   0  0  0  0  0  0  0  0  0  0  0  0
   11.2600   15.5580   20.4330 C   0  0  0  0  0  0  0  0  0  0  0  0
   10.6040   16.6180   21.0290 N   0  0  0  0  0  0  0  0  0  0  0  0
    9.7260   16.9670   20.1640 C   0  0  0  0  0  0  0  0  0  0  0  0
    9.7250   16.2530   19.0180 O   0  0  0  0  0  0  0  0  0  0  0  0
   10.7290   15.3500   19.2210 C   0  0  0  0  0  0  0  0  0  0  0  0
 12 11  1  0
 11  4  1  0
  4  3  2  0
  3  2  1  0
  2  1  2  0
 13  2  1  0
 14 13  1  0
 15 14  1  0
 16 15  1  0
 16 20  2  0
 20 19  1  0
 19 18  1  0
 18 17  2  0
 17 16  1  0
  5  3  1  0
  5 10  2  0
 10  9  1  0
  9  8  2  0
  8  7  1  0
  7  6  2  0
  6  5  1  0
 11  6  1  0
M  END
>  <smiles>  (39) 
Cn1nc(C(=O)NCCc2cocn2)c2ccccc21

>  <inchikey>  (39) 
ONGQCMNCDUWDOR-UHFFFAOYSA-N

>  <alias>  (39) 
A2846a

$$$$
A2972a
     RDKit          3D

 19 21  0  0  0  0  0  0  0  0999 V2000
   11.0450   13.9570   24.5530 O   0  0  0  0  0  0  0  0  0  0  0  0
   10.9000   13.1160   23.6690 C   0  0  0  0  0  0  0  0  0  0  0  0
   10.0430   11.8880   23.9120 C   0  0  0  0  0  0  0  0  0  0  0  0
   10.2800   10.7670   23.2370 N   0  0  0  0  0  0  0  0  0  0  0  0
    8.9530   11.7070   24.8410 C   0  0  0  0  0  0  0  0  0  0  0  0
    8.5620   10.3720   24.6630 C   0  0  0  0  0  0  0  0  0  0  0  0
    7.5330    9.8100   25.4050 C   0  0  0  0  0  0  0  0  0  0  0  0
    6.8890   10.6000   26.3460 C   0  0  0  0  0  0  0  0  0  0  0  0
    7.2620   11.9220   26.5340 C   0  0  0  0  0  0  0  0  0  0  0  0
    8.2880   12.4850   25.7880 C   0  0  0  0  0  0  0  0  0  0  0  0
    9.3890    9.8410   23.7190 N   0  0  0  0  0  0  0  0  0  0  0  0
    9.5050    8.4520   23.3030 C   0  0  0  0  0  0  0  0  0  0  0  0
   11.4860   13.1930   22.4680 N   0  0  0  0  0  0  0  0  0  0  0  0
   12.2020   14.3860   22.0470 C   0  0  0  0  0  0  0  0  0  0  0  0
   11.6070   15.0280   20.8330 C   0  0  0  0  0  0  0  0  0  0  0  0
   10.6980   16.0710   20.9490 N   0  0  0  0  0  0  0  0  0  0  0  0
   10.2770   16.3060   19.7140 C   0  0  0  0  0  0  0  0  0  0  0  0
   10.8790   15.5080   18.8220 N   0  0  0  0  0  0  0  0  0  0  0  0
   11.7320   14.6940   19.5200 C   0  0  0  0  0  0  0  0  0  0  0  0
 12 11  1  0
 11  4  1  0
  4  3  2  0
  3  2  1  0
  2  1  2  0
 13  2  1  0
 14 13  1  0
 15 14  1  0
 15 19  2  0
 19 18  1  0
 18 17  1  0
 17 16  2  0
 16 15  1  0
  5  3  1  0
  5 10  2  0
 10  9  1  0
  9  8  2  0
  8  7  1  0
  7  6  2  0
  6  5  1  0
 11  6  1  0
M  END
>  <smiles>  (40) 
Cn1nc(C(=O)NCc2c[nH]cn2)c2ccccc21

>  <inchikey>  (40) 
FWZMGOFFERWMMX-UHFFFAOYSA-N

>  <alias>  (40) 
A2972a

$$$$
A3066a
     RDKit          3D

 14 15  0  0  0  0  0  0  0  0999 V2000
   11.0310   14.0620   24.4790 O   0  0  0  0  0  0  0  0  0  0  0  0
   10.8820   13.2880   23.5340 C   0  0  0  0  0  0  0  0  0  0  0  0
   11.4910   13.4660   22.3690 N   0  0  0  0  0  0  0  0  0  0  0  0
   12.4080   14.5740   22.1450 C   0  0  0  0  0  0  0  0  0  0  0  0
   10.0580   12.0720   23.6730 C   0  0  0  0  0  0  0  0  0  0  0  0
    8.9440   11.8670   24.5670 C   0  0  0  0  0  0  0  0  0  0  0  0
    8.5660   10.5200   24.4390 C   0  0  0  0  0  0  0  0  0  0  0  0
    9.3940    9.9330   23.5030 N   0  0  0  0  0  0  0  0  0  0  0  0
    9.3820    8.5320   23.1040 C   0  0  0  0  0  0  0  0  0  0  0  0
   10.2710   10.8760   23.0480 C   0  0  0  0  0  0  0  0  0  0  0  0
    8.2380   12.6890   25.4500 C   0  0  0  0  0  0  0  0  0  0  0  0
    7.1860   12.1600   26.1790 C   0  0  0  0  0  0  0  0  0  0  0  0
    6.8330   10.8180   26.0450 C   0  0  0  0  0  0  0  0  0  0  0  0
    7.5190    9.9820   25.1740 C   0  0  0  0  0  0  0  0  0  0  0  0
  4  3  1  0
  3  2  1  0
  2  1  2  0
  5  2  1  0
  5 10  2  0
 10  8  1  0
  9  8  1  0
  8  7  1  0
  7 14  2  0
 14 13  1  0
 13 12  2  0
 12 11  1  0
 11  6  2  0
  6  5  1  0
  7  6  1  0
M  END
>  <smiles>  (41) 
CNC(=O)c1cn(C)c2ccccc12

>  <inchikey>  (41) 
OHXYWSIWHXTWCT-UHFFFAOYSA-N

>  <alias>  (41) 
A3066a

$$$$
A3175a
     RDKit          3D

 20 22  0  0  0  0  0  0  0  0999 V2000
    6.2300   12.0170   26.9990 O   0  0  0  0  0  0  0  0  0  0  0  0
    6.4460   10.9170   26.4770 C   0  0  0  0  0  0  0  0  0  0  0  0
    7.5230   10.7380   25.4740 C   0  0  0  0  0  0  0  0  0  0  0  0
    8.4330   11.7460   24.9720 C   0  0  0  0  0  0  0  0  0  0  0  0
    8.6550   13.0900   25.2630 C   0  0  0  0  0  0  0  0  0  0  0  0
    9.6610   13.7820   24.5980 C   0  0  0  0  0  0  0  0  0  0  0  0
   10.4440   13.1490   23.6400 C   0  0  0  0  0  0  0  0  0  0  0  0
   10.2420   11.8110   23.3330 C   0  0  0  0  0  0  0  0  0  0  0  0
    9.2420   11.1200   24.0090 C   0  0  0  0  0  0  0  0  0  0  0  0
    8.8720    9.7910   23.9400 N   0  0  0  0  0  0  0  0  0  0  0  0
    9.5060    8.7730   23.1120 C   0  0  0  0  0  0  0  0  0  0  0  0
    7.8420    9.5770   24.8170 C   0  0  0  0  0  0  0  0  0  0  0  0
    5.7520    9.8200   26.7930 N   0  0  0  0  0  0  0  0  0  0  0  0
    4.7150    9.8600   27.8020 C   0  0  0  0  0  0  0  0  0  0  0  0
    5.1360    9.2950   29.1100 C   0  0  0  0  0  0  0  0  0  0  0  0
    4.5680    8.4040   29.9400 C   0  0  0  0  0  0  0  0  0  0  0  0
    6.2690    9.7910   29.6530 O   0  0  0  0  0  0  0  0  0  0  0  0
    6.4400    9.2100   30.9400 N   0  0  0  0  0  0  0  0  0  0  0  0
    5.3890    8.3640   31.0770 C   0  0  0  0  0  0  0  0  0  0  0  0
    5.2080    7.5350   32.3110 C   0  0  0  0  0  0  0  0  0  0  0  0
 20 19  1  0
 19 16  1  0
 16 15  2  0
 15 14  1  0
 14 13  1  0
 13  2  1  0
  2  1  2  0
  3  2  1  0
  3 12  2  0
 12 10  1  0
 11 10  1  0
 10  9  1  0
  9  8  1  0
  8  7  2  0
  7  6  1  0
  6  5  2  0
  5  4  1  0
  4  3  1  0
  9  4  2  0
 17 15  1  0
 18 17  1  0
 19 18  2  0
M  END
>  <smiles>  (42) 
Cc1cc(CNC(=O)c2cn(C)c3ccccc23)on1

>  <inchikey>  (42) 
RYIGIXMEYULONZ-UHFFFAOYSA-N

>  <alias>  (42) 
A3175a

$$$$
A3176a
     RDKit          3D

 18 19  0  0  0  0  0  0  0  0999 V2000
    9.2050   14.6080   24.1040 O   0  0  0  0  0  0  0  0  0  0  0  0
    9.6580   13.6160   23.5320 C   0  0  0  0  0  0  0  0  0  0  0  0
   10.6900   13.6770   22.6820 N   0  0  0  0  0  0  0  0  0  0  0  0
   11.5280   14.8730   22.6240 C   0  0  1  0  0  0  0  0  0  0  0  0
   12.6850   14.7690   23.6050 C   0  0  0  0  0  0  0  0  0  0  0  0
   12.0310   15.0670   21.1760 C   0  0  0  0  0  0  0  0  0  0  0  0
   10.9050   15.1610   20.3180 O   0  0  0  0  0  0  0  0  0  0  0  0
   11.2400   14.9010   18.9650 C   0  0  0  0  0  0  0  0  0  0  0  0
    9.0640   12.2510   23.7870 C   0  0  0  0  0  0  0  0  0  0  0  0
    7.9700   11.9280   24.6650 C   0  0  0  0  0  0  0  0  0  0  0  0
    7.8250   10.5370   24.5600 C   0  0  0  0  0  0  0  0  0  0  0  0
    8.7800   10.1070   23.6860 N   0  0  0  0  0  0  0  0  0  0  0  0
    9.0830    8.7380   23.2910 C   0  0  0  0  0  0  0  0  0  0  0  0
    9.5470   11.1520   23.2020 N   0  0  0  0  0  0  0  0  0  0  0  0
    7.1660   12.6250   25.5610 C   0  0  0  0  0  0  0  0  0  0  0  0
    6.2450   11.9300   26.3390 C   0  0  0  0  0  0  0  0  0  0  0  0
    6.1070   10.5540   26.2170 C   0  0  0  0  0  0  0  0  0  0  0  0
    6.8940    9.8410   25.3210 C   0  0  0  0  0  0  0  0  0  0  0  0
  8  7  1  0
  7  6  1  0
  6  4  1  0
  4  5  1  1
  4  3  1  0
  3  2  1  0
  2  1  2  0
  9  2  1  0
  9 14  2  0
 14 12  1  0
 13 12  1  0
 12 11  1  0
 11 18  2  0
 18 17  1  0
 17 16  2  0
 16 15  1  0
 15 10  2  0
 10  9  1  0
 11 10  1  0
M  END
>  <smiles>  (43) 
COC[C@H](C)NC(=O)c1nn(C)c2ccccc12

>  <inchikey>  (43) 
UFYNWTYMVOYUIH-VIFPVBQESA-N

>  <alias>  (43) 
A3176a

$$$$
A3181a
     RDKit          3D

 20 22  0  0  0  0  0  0  0  0999 V2000
   10.0590   14.3710   24.6280 O   0  0  0  0  0  0  0  0  0  0  0  0
   10.1800   13.4730   23.7940 C   0  0  0  0  0  0  0  0  0  0  0  0
    9.4030   12.1970   23.9340 C   0  0  0  0  0  0  0  0  0  0  0  0
    9.8110   11.1350   23.2410 N   0  0  0  0  0  0  0  0  0  0  0  0
    8.3140   11.8530   24.8060 C   0  0  0  0  0  0  0  0  0  0  0  0
    8.1030   10.4840   24.5930 C   0  0  0  0  0  0  0  0  0  0  0  0
    7.1280    9.7740   25.2880 C   0  0  0  0  0  0  0  0  0  0  0  0
    6.3740   10.4610   26.2310 C   0  0  0  0  0  0  0  0  0  0  0  0
    6.5850   11.8220   26.4630 C   0  0  0  0  0  0  0  0  0  0  0  0
    7.5290   12.5330   25.7390 C   0  0  0  0  0  0  0  0  0  0  0  0
    9.0130   10.0890   23.6650 N   0  0  0  0  0  0  0  0  0  0  0  0
    9.2240    8.7590   23.1100 C   0  0  0  0  0  0  0  0  0  0  0  0
   11.0000   13.5230   22.7420 N   0  0  0  0  0  0  0  0  0  0  0  0
   12.0520   14.5290   22.6290 C   0  0  0  0  0  0  0  0  0  0  0  0
   12.3670   14.8400   21.1830 C   0  0  0  0  0  0  0  0  0  0  0  0
   11.2780   15.5410   20.5070 N   0  0  0  0  0  0  0  0  0  0  0  0
   10.7360   16.6680   21.0360 N   0  0  0  0  0  0  0  0  0  0  0  0
    9.8510   17.0030   20.1200 C   0  0  0  0  0  0  0  0  0  0  0  0
    9.7970   16.1890   19.0430 N   0  0  0  0  0  0  0  0  0  0  0  0
   10.7060   15.2830   19.3330 C   0  0  0  0  0  0  0  0  0  0  0  0
 12 11  1  0
 11  4  1  0
  4  3  2  0
  3  2  1  0
  2  1  2  0
 13  2  1  0
 14 13  1  0
 15 14  1  0
 16 15  1  0
 16 20  1  0
 20 19  2  0
 19 18  1  0
 18 17  2  0
 17 16  1  0
  5  3  1  0
  5 10  2  0
 10  9  1  0
  9  8  2  0
  8  7  1  0
  7  6  2  0
  6  5  1  0
 11  6  1  0
M  END
>  <smiles>  (44) 
Cn1nc(C(=O)NCCn2cncn2)c2ccccc21

>  <inchikey>  (44) 
UIOOLKZMABSWFR-UHFFFAOYSA-N

>  <alias>  (44) 
A3181a

$$$$
A3181b
     RDKit          3D

 20 22  0  0  0  0  0  0  0  0999 V2000
   23.4590   19.8740   22.7410 O   0  0  0  0  0  0  0  0  0  0  0  0
   22.8550   20.5390   21.8860 C   0  0  0  0  0  0  0  0  0  0  0  0
   23.5570   21.0260   20.6620 C   0  0  0  0  0  0  0  0  0  0  0  0
   22.8780   21.5940   19.6670 N   0  0  0  0  0  0  0  0  0  0  0  0
   24.9660   20.9970   20.3710 C   0  0  0  0  0  0  0  0  0  0  0  0
   25.0760   21.6090   19.1150 C   0  0  0  0  0  0  0  0  0  0  0  0
   26.3130   21.8050   18.5060 C   0  0  0  0  0  0  0  0  0  0  0  0
   27.4470   21.3750   19.1730 C   0  0  0  0  0  0  0  0  0  0  0  0
   27.3570   20.7630   20.4180 C   0  0  0  0  0  0  0  0  0  0  0  0
   26.1150   20.5690   21.0230 C   0  0  0  0  0  0  0  0  0  0  0  0
   23.8090   21.9500   18.7320 N   0  0  0  0  0  0  0  0  0  0  0  0
   23.3800   22.5880   17.4930 C   0  0  0  0  0  0  0  0  0  0  0  0
   21.5750   20.9220   22.0040 N   0  0  0  0  0  0  0  0  0  0  0  0
   20.7060   20.3650   23.0390 C   0  0  0  0  0  0  0  0  0  0  0  0
   20.1270   19.0250   22.5420 C   0  0  0  0  0  0  0  0  0  0  0  0
   19.2540   19.2460   21.3920 N   0  0  0  0  0  0  0  0  0  0  0  0
   19.7310   19.2830   20.1230 N   0  0  0  0  0  0  0  0  0  0  0  0
   18.6340   19.4550   19.4180 C   0  0  0  0  0  0  0  0  0  0  0  0
   17.4980   19.5600   20.1420 N   0  0  0  0  0  0  0  0  0  0  0  0
   17.9370   19.4210   21.3740 C   0  0  0  0  0  0  0  0  0  0  0  0
 12 11  1  0
 11  4  1  0
  4  3  2  0
  3  2  1  0
  2  1  2  0
 13  2  1  0
 14 13  1  0
 15 14  1  0
 16 15  1  0
 16 20  1  0
 20 19  2  0
 19 18  1  0
 18 17  2  0
 17 16  1  0
  5  3  1  0
  5 10  2  0
 10  9  1  0
  9  8  2  0
  8  7  1  0
  7  6  2  0
  6  5  1  0
 11  6  1  0
M  END
>  <smiles>  (45) 
Cn1nc(C(=O)NCCn2cncn2)c2ccccc21

>  <inchikey>  (45) 
UIOOLKZMABSWFR-UHFFFAOYSA-N

>  <alias>  (45) 
A3181b

$$$$
A3188a
     RDKit          3D

 22 24  0  0  0  0  0  0  0  0999 V2000
   10.3860   16.7120   19.0700 O   0  0  0  0  0  0  0  0  0  0  0  0
   10.8220   15.5840   19.3160 C   0  0  0  0  0  0  0  0  0  0  0  0
   11.2310   14.7450   18.3760 N   0  0  0  0  0  0  0  0  0  0  0  0
   10.8990   15.0680   20.7430 C   0  0  1  0  0  0  0  0  0  0  0  0
   11.9300   15.8560   21.5620 C   0  0  0  0  0  0  0  0  0  0  0  0
   12.0100   15.3240   22.9890 C   0  0  0  0  0  0  0  0  0  0  0  0
   10.6450   15.4010   23.6520 C   0  0  0  0  0  0  0  0  0  0  0  0
    9.5320   15.1530   21.4320 C   0  0  0  0  0  0  0  0  0  0  0  0
    9.6060   14.7400   22.8380 N   0  0  0  0  0  0  0  0  0  0  0  0
    8.6810   13.8980   23.3540 C   0  0  0  0  0  0  0  0  0  0  0  0
    7.8150   13.3800   22.6590 O   0  0  0  0  0  0  0  0  0  0  0  0
    8.7120   13.6780   24.8570 C   0  0  0  0  0  0  0  0  0  0  0  0
    7.9630   12.4310   25.2660 C   0  0  0  0  0  0  0  0  0  0  0  0
    6.9360   12.5030   26.2090 C   0  0  0  0  0  0  0  0  0  0  0  0
    6.2510   11.3710   26.6170 C   0  0  0  0  0  0  0  0  0  0  0  0
    6.5610   10.1320   26.0840 C   0  0  0  0  0  0  0  0  0  0  0  0
    7.5870   10.0150   25.1310 C   0  0  0  0  0  0  0  0  0  0  0  0
    8.2940   11.1680   24.7300 C   0  0  0  0  0  0  0  0  0  0  0  0
    9.2740   10.6880   23.8090 C   0  0  0  0  0  0  0  0  0  0  0  0
    8.0610    8.8800   24.5060 N   0  0  0  0  0  0  0  0  0  0  0  0
    9.0850    9.3660   23.7400 N   0  0  0  0  0  0  0  0  0  0  0  0
    9.9320    8.4480   22.9810 C   0  0  0  0  0  0  0  0  0  0  0  0
 22 21  1  0
 21 19  1  0
 19 18  2  0
 18 13  1  0
 13 12  1  0
 12 10  1  0
 11 10  2  0
 10  9  1  0
  9  7  1  0
  7  6  1  0
  6  5  1  0
  5  4  1  0
  4  2  1  6
  3  2  1  0
  2  1  2  0
  8  4  1  0
  9  8  1  0
 14 13  2  0
 15 14  1  0
 16 15  2  0
 17 16  1  0
 18 17  1  0
 20 17  2  0
 21 20  1  0
M  END
>  <smiles>  (46) 
Cn1cc2c(CC(=O)N3CCC[C@H](C(N)=O)C3)cccc2n1

>  <inchikey>  (46) 
GWEIDNCYZCGNCA-LBPRGKRZSA-N

>  <alias>  (46) 
A3188a

$$$$
A3189a
     RDKit          3D

 22 24  0  0  0  0  0  0  0  0999 V2000
   10.5290   16.6330   19.1640 O   0  0  0  0  0  0  0  0  0  0  0  0
   10.9410   15.4970   19.3970 C   0  0  0  0  0  0  0  0  0  0  0  0
   11.3960   14.6930   18.4510 N   0  0  0  0  0  0  0  0  0  0  0  0
   10.9770   14.9520   20.8140 C   0  0  1  0  0  0  0  0  0  0  0  0
   12.1160   15.6030   21.6150 C   0  0  0  0  0  0  0  0  0  0  0  0
   12.1300   15.1350   23.0690 C   0  0  0  0  0  0  0  0  0  0  0  0
   10.7840   15.3830   23.7180 C   0  0  0  0  0  0  0  0  0  0  0  0
    9.6470   15.2170   21.5290 C   0  0  0  0  0  0  0  0  0  0  0  0
    9.7040   14.7730   22.9270 N   0  0  0  0  0  0  0  0  0  0  0  0
    8.7890   13.9150   23.4320 C   0  0  0  0  0  0  0  0  0  0  0  0
    7.9920   13.3200   22.7150 O   0  0  0  0  0  0  0  0  0  0  0  0
    8.7640   13.7410   24.9390 C   0  0  0  0  0  0  0  0  0  0  0  0
    8.0210   12.4910   25.3480 C   0  0  0  0  0  0  0  0  0  0  0  0
    6.9810   12.5640   26.2740 C   0  0  0  0  0  0  0  0  0  0  0  0
    6.2900   11.4320   26.6750 C   0  0  0  0  0  0  0  0  0  0  0  0
    6.6140   10.1920   26.1530 C   0  0  0  0  0  0  0  0  0  0  0  0
    7.6520   10.0790   25.2140 C   0  0  0  0  0  0  0  0  0  0  0  0
    8.3570   11.2270   24.8150 C   0  0  0  0  0  0  0  0  0  0  0  0
    9.3450   10.7410   23.8870 C   0  0  0  0  0  0  0  0  0  0  0  0
    8.1360    8.9600   24.5950 N   0  0  0  0  0  0  0  0  0  0  0  0
    9.1550    9.4210   23.8150 N   0  0  0  0  0  0  0  0  0  0  0  0
    9.9140    8.4780   22.9950 C   0  0  0  0  0  0  0  0  0  0  0  0
 22 21  1  0
 21 19  1  0
 19 18  2  0
 18 13  1  0
 13 12  1  0
 12 10  1  0
 11 10  2  0
 10  9  1  0
  9  7  1  0
  7  6  1  0
  6  5  1  0
  5  4  1  0
  4  2  1  6
  3  2  1  0
  2  1  2  0
  8  4  1  0
  9  8  1  0
 14 13  2  0
 15 14  1  0
 16 15  2  0
 17 16  1  0
 18 17  1  0
 20 17  2  0
 21 20  1  0
M  END
>  <smiles>  (47) 
Cn1cc2c(CC(=O)N3CCC[C@H](C(N)=O)C3)cccc2n1

>  <inchikey>  (47) 
GWEIDNCYZCGNCA-LBPRGKRZSA-N

>  <alias>  (47) 
A3189a

$$$$
A3191a
     RDKit          3D

 21 23  0  0  0  0  0  0  0  0999 V2000
    7.8510   13.4760   22.5870 O   0  0  0  0  0  0  0  0  0  0  0  0
    8.6660   13.9930   23.3360 C   0  0  0  0  0  0  0  0  0  0  0  0
    9.5300   14.9410   22.9040 N   0  0  0  0  0  0  0  0  0  0  0  0
   10.5240   15.6350   23.7390 C   0  0  0  0  0  0  0  0  0  0  0  0
   11.9130   15.5240   23.1370 C   0  0  0  0  0  0  0  0  0  0  0  0
   11.9150   15.9340   21.6620 C   0  0  0  0  0  0  0  0  0  0  0  0
    9.4840   15.4130   21.5180 C   0  0  0  0  0  0  0  0  0  0  0  0
   10.8400   15.1950   20.8480 C   0  0  1  0  0  0  0  0  0  0  0  0
   10.7980   15.6860   19.4110 C   0  0  0  0  0  0  0  0  0  0  0  0
   10.5230   16.8650   19.1420 O   0  0  0  0  0  0  0  0  0  0  0  0
   11.0960   14.7880   18.4900 N   0  0  0  0  0  0  0  0  0  0  0  0
    8.7110   13.6410   24.8140 C   0  0  0  0  0  0  0  0  0  0  0  0
    8.1240   12.2750   25.0900 C   0  0  0  0  0  0  0  0  0  0  0  0
    8.5910   11.1240   24.4210 C   0  0  0  0  0  0  0  0  0  0  0  0
    9.6320   10.8080   23.4760 C   0  0  0  0  0  0  0  0  0  0  0  0
    9.5700    9.4940   23.2720 C   0  0  0  0  0  0  0  0  0  0  0  0
    8.5600    8.8990   24.0000 O   0  0  0  0  0  0  0  0  0  0  0  0
    7.9690    9.9160   24.7070 C   0  0  0  0  0  0  0  0  0  0  0  0
    6.9190    9.7750   25.5970 C   0  0  0  0  0  0  0  0  0  0  0  0
    6.4880   10.9070   26.2630 C   0  0  0  0  0  0  0  0  0  0  0  0
    7.0900   12.1340   26.0240 C   0  0  0  0  0  0  0  0  0  0  0  0
 11  9  1  0
 10  9  2  0
  8  9  1  6
  8  6  1  0
  6  5  1  0
  5  4  1  0
  4  3  1  0
  3  2  1  0
  2  1  2  0
 12  2  1  0
 13 12  1  0
 13 21  1  0
 21 20  2  0
 20 19  1  0
 19 18  2  0
 18 17  1  0
 17 16  1  0
 16 15  2  0
 15 14  1  0
 14 13  2  0
 18 14  1  0
  7  3  1  0
  8  7  1  0
M  END
>  <smiles>  (48) 
NC(=O)[C@H]1CCCN(C(=O)Cc2cccc3occc23)C1

>  <inchikey>  (48) 
CRNUDQYYIFSPOP-LBPRGKRZSA-N

>  <alias>  (48) 
A3191a

$$$$
A3201a
     RDKit          3D

 20 21  0  0  0  0  0  0  0  0999 V2000
   10.1450   16.2400   19.3030 O   0  0  0  0  0  0  0  0  0  0  0  0
   10.6980   15.1570   19.5140 C   0  0  0  0  0  0  0  0  0  0  0  0
   11.1900   14.4010   18.5440 N   0  0  0  0  0  0  0  0  0  0  0  0
   10.8180   14.6010   20.9230 C   0  0  1  0  0  0  0  0  0  0  0  0
   12.0300   15.1940   21.6610 C   0  0  0  0  0  0  0  0  0  0  0  0
   12.1660   14.6120   23.0700 C   0  0  0  0  0  0  0  0  0  0  0  0
   10.8710   14.7630   23.8700 C   0  0  0  0  0  0  0  0  0  0  0  0
    9.5590   14.8570   21.7580 C   0  0  0  0  0  0  0  0  0  0  0  0
    9.6950   14.3020   23.1100 N   0  0  0  0  0  0  0  0  0  0  0  0
    8.7270   13.5030   23.6110 C   0  0  0  0  0  0  0  0  0  0  0  0
    7.6300   13.3960   23.0800 O   0  0  0  0  0  0  0  0  0  0  0  0
    9.0620   12.7000   24.8520 C   0  0  0  0  0  0  0  0  0  0  0  0
    9.0650   11.2240   24.5320 C   0  0  0  0  0  0  0  0  0  0  0  0
    8.0770   10.3100   24.9440 C   0  0  0  0  0  0  0  0  0  0  0  0
    7.1490   10.8180   25.7890 O   0  0  0  0  0  0  0  0  0  0  0  0
    6.2220    9.9100   26.3910 C   0  0  0  0  0  0  0  0  0  0  0  0
   10.0500   10.7140   23.6980 C   0  0  0  0  0  0  0  0  0  0  0  0
   10.0220    9.3930   23.3100 C   0  0  0  0  0  0  0  0  0  0  0  0
    9.0040    8.6050   23.7620 C   0  0  0  0  0  0  0  0  0  0  0  0
    8.0300    9.0410   24.5700 N   0  0  0  0  0  0  0  0  0  0  0  0
 16 15  1  0
 15 14  1  0
 14 20  2  0
 20 19  1  0
 19 18  2  0
 18 17  1  0
 17 13  2  0
 14 13  1  0
 13 12  1  0
 12 10  1  0
 11 10  2  0
 10  9  1  0
  9  7  1  0
  7  6  1  0
  6  5  1  0
  5  4  1  0
  4  2  1  6
  3  2  1  0
  2  1  2  0
  8  4  1  0
  9  8  1  0
M  END
>  <smiles>  (49) 
COc1ncccc1CC(=O)N1CCC[C@H](C(N)=O)C1

>  <inchikey>  (49) 
DPQNQDXNIINHJH-NSHDSACASA-N

>  <alias>  (49) 
A3201a

$$$$
A3207a
     RDKit          3D

 19 20  0  0  0  0  0  0  0  0999 V2000
    7.8670   13.2600   22.5100 O   0  0  0  0  0  0  0  0  0  0  0  0
    8.7650   13.7120   23.2170 C   0  0  0  0  0  0  0  0  0  0  0  0
    9.5030   14.7790   22.8470 N   0  0  0  0  0  0  0  0  0  0  0  0
   10.5030   15.4670   23.6810 C   0  0  0  0  0  0  0  0  0  0  0  0
   11.8980   15.3280   23.0730 C   0  0  0  0  0  0  0  0  0  0  0  0
   11.9030   15.7520   21.5990 C   0  0  0  0  0  0  0  0  0  0  0  0
    9.4660   15.2780   21.4710 C   0  0  0  0  0  0  0  0  0  0  0  0
   10.8170   15.0140   20.7980 C   0  0  1  0  0  0  0  0  0  0  0  0
   10.7240   15.5090   19.3650 C   0  0  0  0  0  0  0  0  0  0  0  0
   10.3510   16.6550   19.1150 O   0  0  0  0  0  0  0  0  0  0  0  0
   10.9970   14.6210   18.4180 N   0  0  0  0  0  0  0  0  0  0  0  0
    9.1400   13.0660   24.5370 C   0  0  0  0  0  0  0  0  0  0  0  0
    8.7180   11.6180   24.5980 C   0  0  0  0  0  0  0  0  0  0  0  0
    7.7290   11.2140   25.4890 C   0  0  0  0  0  0  0  0  0  0  0  0
    7.3850    9.8630   25.5430 C   0  0  0  0  0  0  0  0  0  0  0  0
    6.4440    9.4250   26.3920 N   0  0  0  0  0  0  0  0  0  0  0  0
    7.9800    8.9320   24.7570 N   0  0  0  0  0  0  0  0  0  0  0  0
    8.9320    9.3480   23.9130 C   0  0  0  0  0  0  0  0  0  0  0  0
    9.3240   10.6610   23.8010 C   0  0  0  0  0  0  0  0  0  0  0  0
 11  9  1  0
 10  9  2  0
  8  9  1  6
  8  6  1  0
  6  5  1  0
  5  4  1  0
  4  3  1  0
  3  2  1  0
  2  1  2  0
 12  2  1  0
 13 12  1  0
 13 19  2  0
 19 18  1  0
 18 17  2  0
 17 15  1  0
 16 15  1  0
 15 14  2  0
 14 13  1  0
  7  3  1  0
  8  7  1  0
M  END
>  <smiles>  (50) 
NC(=O)[C@H]1CCCN(C(=O)Cc2ccnc(N)c2)C1

>  <inchikey>  (50) 
MKGWZERGGHSXDY-JTQLQIEISA-N

>  <alias>  (50) 
A3207a

$$$$
A3208a
     RDKit          3D

 23 24  0  0  0  0  0  0  0  0999 V2000
    9.4220   10.3180   23.4460 Cl  0  0  0  0  0  0  0  0  0  0  0  0
    8.1390   10.7170   24.5470 C   0  0  0  0  0  0  0  0  0  0  0  0
    7.2920    9.7090   24.9670 C   0  0  0  0  0  0  0  0  0  0  0  0
    6.2560    9.9990   25.8370 C   0  0  0  0  0  0  0  0  0  0  0  0
    6.0720   11.2970   26.3000 C   0  0  0  0  0  0  0  0  0  0  0  0
    5.0710   11.6100   27.3670 C   0  0  0  0  0  0  0  0  0  0  0  0
    5.5940   12.2970   28.3530 F   0  0  0  0  0  0  0  0  0  0  0  0
    4.6150   10.5330   27.9750 F   0  0  0  0  0  0  0  0  0  0  0  0
    4.0210   12.3330   26.9250 F   0  0  0  0  0  0  0  0  0  0  0  0
    6.9270   12.2940   25.8410 C   0  0  0  0  0  0  0  0  0  0  0  0
    7.9810   12.0300   24.9700 C   0  0  0  0  0  0  0  0  0  0  0  0
    8.9600   13.1180   24.6030 C   0  0  0  0  0  0  0  0  0  0  0  0
    8.6670   13.7040   23.2340 C   0  0  0  0  0  0  0  0  0  0  0  0
    7.7590   13.2790   22.5380 O   0  0  0  0  0  0  0  0  0  0  0  0
    9.4750   14.7050   22.8240 N   0  0  0  0  0  0  0  0  0  0  0  0
   10.5530   15.2860   23.6420 C   0  0  0  0  0  0  0  0  0  0  0  0
   11.8940   15.0660   22.9570 C   0  0  0  0  0  0  0  0  0  0  0  0
   11.8580   15.6340   21.5380 C   0  0  0  0  0  0  0  0  0  0  0  0
    9.3950   15.2250   21.4550 C   0  0  0  0  0  0  0  0  0  0  0  0
   10.7210   14.9830   20.7260 C   0  0  1  0  0  0  0  0  0  0  0  0
   10.6860   15.4780   19.2900 C   0  0  0  0  0  0  0  0  0  0  0  0
   10.3080   16.6230   19.0200 O   0  0  0  0  0  0  0  0  0  0  0  0
   11.0280   14.5890   18.3620 N   0  0  0  0  0  0  0  0  0  0  0  0
 23 21  1  0
 22 21  2  0
 20 21  1  6
 20 18  1  0
 18 17  1  0
 17 16  1  0
 16 15  1  0
 15 13  1  0
 14 13  2  0
 13 12  1  0
 12 11  1  0
 11 10  2  0
 10  5  1  0
  6  5  1  0
  9  6  1  0
  8  6  1  0
  7  6  1  0
  5  4  2  0
  4  3  1  0
  3  2  2  0
 11  2  1  0
  2  1  1  0
 19 15  1  0
 20 19  1  0
M  END
>  <smiles>  (51) 
NC(=O)[C@H]1CCCN(C(=O)Cc2cc(C(F)(F)F)ccc2Cl)C1

>  <inchikey>  (51) 
PQWPTZNVERXTJW-VIFPVBQESA-N

>  <alias>  (51) 
A3208a

$$$$
A3210a
     RDKit          3D

 21 23  0  0  0  0  0  0  0  0999 V2000
    7.8570   13.6280   22.5470 O   0  0  0  0  0  0  0  0  0  0  0  0
    8.6280   14.1490   23.3440 C   0  0  0  0  0  0  0  0  0  0  0  0
    9.4840   15.1260   22.9700 N   0  0  0  0  0  0  0  0  0  0  0  0
   10.5680   15.6980   23.7820 C   0  0  0  0  0  0  0  0  0  0  0  0
   11.9150   15.4770   23.1110 C   0  0  0  0  0  0  0  0  0  0  0  0
   11.8910   15.9070   21.6370 C   0  0  0  0  0  0  0  0  0  0  0  0
    9.4240   15.6950   21.6210 C   0  0  0  0  0  0  0  0  0  0  0  0
   10.6990   15.3140   20.8660 C   0  0  1  0  0  0  0  0  0  0  0  0
   10.6870   15.7710   19.4170 C   0  0  0  0  0  0  0  0  0  0  0  0
   10.4130   16.9390   19.1160 O   0  0  0  0  0  0  0  0  0  0  0  0
   10.9810   14.8460   18.5170 N   0  0  0  0  0  0  0  0  0  0  0  0
    8.6320   13.7410   24.8070 C   0  0  0  0  0  0  0  0  0  0  0  0
    8.0430   12.3620   25.0180 C   0  0  0  0  0  0  0  0  0  0  0  0
    8.5590   11.2340   24.3720 C   0  0  0  0  0  0  0  0  0  0  0  0
    9.6220   11.0870   23.5440 N   0  0  0  0  0  0  0  0  0  0  0  0
    9.8060    9.7810   23.1920 N   0  0  0  0  0  0  0  0  0  0  0  0
    8.8510    9.0990   23.7940 C   0  0  0  0  0  0  0  0  0  0  0  0
    8.0180    9.9470   24.5670 C   0  0  0  0  0  0  0  0  0  0  0  0
    6.9250    9.7980   25.4260 C   0  0  0  0  0  0  0  0  0  0  0  0
    6.4080   10.9070   26.0830 C   0  0  0  0  0  0  0  0  0  0  0  0
    6.9650   12.1650   25.8860 C   0  0  0  0  0  0  0  0  0  0  0  0
 11  9  1  0
 10  9  2  0
  8  9  1  6
  8  6  1  0
  6  5  1  0
  5  4  1  0
  4  3  1  0
  3  2  1  0
  2  1  2  0
 12  2  1  0
 13 12  1  0
 13 21  1  0
 21 20  2  0
 20 19  1  0
 19 18  2  0
 18 17  1  0
 17 16  2  0
 16 15  1  0
 15 14  1  0
 14 13  2  0
 18 14  1  0
  7  3  1  0
  8  7  1  0
M  END
>  <smiles>  (52) 
NC(=O)[C@H]1CCCN(C(=O)Cc2cccc3cn[nH]c23)C1

>  <inchikey>  (52) 
LGXQTWXKSGIVMI-LBPRGKRZSA-N

>  <alias>  (52) 
A3210a

$$$$
A3229a
     RDKit          3D

 20 21  0  0  0  0  0  0  0  0999 V2000
   10.4180   16.6980   19.2460 O   0  0  0  0  0  0  0  0  0  0  0  0
   10.7610   15.5410   19.4970 C   0  0  0  0  0  0  0  0  0  0  0  0
   11.1000   14.6730   18.5540 N   0  0  0  0  0  0  0  0  0  0  0  0
   10.8020   15.0250   20.9270 C   0  0  1  0  0  0  0  0  0  0  0  0
   11.8660   15.7590   21.7580 C   0  0  0  0  0  0  0  0  0  0  0  0
   11.9740   15.1970   23.1790 C   0  0  0  0  0  0  0  0  0  0  0  0
   10.6200   15.1860   23.8660 C   0  0  0  0  0  0  0  0  0  0  0  0
    9.4710   15.1270   21.6750 C   0  0  0  0  0  0  0  0  0  0  0  0
    9.5910   14.5550   23.0210 N   0  0  0  0  0  0  0  0  0  0  0  0
    8.7360   13.5940   23.4370 C   0  0  0  0  0  0  0  0  0  0  0  0
    7.8150   13.2020   22.7370 O   0  0  0  0  0  0  0  0  0  0  0  0
    8.9600   13.0580   24.8410 C   0  0  0  0  0  0  0  0  0  0  0  0
    8.0040   11.9500   25.2260 C   0  0  0  0  0  0  0  0  0  0  0  0
    8.1590   10.6560   24.7260 C   0  0  0  0  0  0  0  0  0  0  0  0
    9.2550   10.4740   23.9250 O   0  0  0  0  0  0  0  0  0  0  0  0
    9.4400    9.2000   23.3060 C   0  0  0  0  0  0  0  0  0  0  0  0
    6.9810   12.1340   26.1330 C   0  0  0  0  0  0  0  0  0  0  0  0
    6.1360   11.1860   26.5410 N   0  0  0  0  0  0  0  0  0  0  0  0
    6.3000    9.9680   26.0260 C   0  0  0  0  0  0  0  0  0  0  0  0
    7.2940    9.6470   25.1200 C   0  0  0  0  0  0  0  0  0  0  0  0
 16 15  1  0
 15 14  1  0
 14 20  2  0
 20 19  1  0
 19 18  2  0
 18 17  1  0
 17 13  2  0
 14 13  1  0
 13 12  1  0
 12 10  1  0
 11 10  2  0
 10  9  1  0
  9  7  1  0
  7  6  1  0
  6  5  1  0
  5  4  1  0
  4  2  1  6
  3  2  1  0
  2  1  2  0
  8  4  1  0
  9  8  1  0
M  END
>  <smiles>  (53) 
COc1ccncc1CC(=O)N1CCC[C@H](C(N)=O)C1

>  <inchikey>  (53) 
ZKUXUDCBALXGFV-JTQLQIEISA-N

>  <alias>  (53) 
A3229a

$$$$
A3280a
     RDKit          3D

 23 25  0  0  0  0  0  0  0  0999 V2000
   13.0270   15.9950   21.5320 F   0  0  0  0  0  0  0  0  0  0  0  0
   12.0230   15.0550   21.5090 C   0  0  0  0  0  0  0  0  0  0  0  0
   12.3660   14.2020   20.4830 F   0  0  0  0  0  0  0  0  0  0  0  0
   10.7260   15.7750   21.0680 C   0  0  0  0  0  0  0  0  0  0  0  0
   10.3820   16.9440   21.6300 N   0  0  0  0  0  0  0  0  0  0  0  0
    9.3540   17.6200   21.0900 C   0  0  0  0  0  0  0  0  0  0  0  0
    8.6480   17.1770   20.0040 C   0  0  0  0  0  0  0  0  0  0  0  0
    9.0060   15.9730   19.4460 C   0  0  0  0  0  0  0  0  0  0  0  0
   10.0410   15.2440   19.9920 C   0  0  0  0  0  0  0  0  0  0  0  0
   11.9460   14.2960   22.8090 C   0  0  0  0  0  0  0  0  0  0  0  0
   10.7860   13.4250   22.7950 N   0  0  0  0  0  0  0  0  0  0  0  0
    9.9590   13.3230   23.8380 C   0  0  0  0  0  0  0  0  0  0  0  0
    9.7300   14.2360   24.6260 O   0  0  0  0  0  0  0  0  0  0  0  0
    9.3370   11.9890   24.0270 C   0  0  0  0  0  0  0  0  0  0  0  0
    9.7640   10.9330   23.3290 N   0  0  0  0  0  0  0  0  0  0  0  0
    8.2800   11.6180   24.9230 C   0  0  0  0  0  0  0  0  0  0  0  0
    8.0920   10.2500   24.7010 C   0  0  0  0  0  0  0  0  0  0  0  0
    9.0010    9.8760   23.7530 N   0  0  0  0  0  0  0  0  0  0  0  0
    9.2120    8.5590   23.1770 C   0  0  0  0  0  0  0  0  0  0  0  0
    7.1240    9.5290   25.3850 C   0  0  0  0  0  0  0  0  0  0  0  0
    6.3530   10.1910   26.3320 C   0  0  0  0  0  0  0  0  0  0  0  0
    6.5410   11.5430   26.5790 C   0  0  0  0  0  0  0  0  0  0  0  0
    7.4950   12.2640   25.8760 C   0  0  0  0  0  0  0  0  0  0  0  0
 19 18  1  0
 18 15  1  0
 15 14  2  0
 14 12  1  0
 13 12  2  0
 12 11  1  0
 11 10  1  0
 10  2  1  0
  3  2  1  0
  2  1  1  0
  4  2  1  0
  4  9  2  0
  9  8  1  0
  8  7  2  0
  7  6  1  0
  6  5  2  0
  5  4  1  0
 16 14  1  0
 16 23  2  0
 23 22  1  0
 22 21  2  0
 21 20  1  0
 20 17  2  0
 17 16  1  0
 18 17  1  0
M  END
>  <smiles>  (54) 
Cn1nc(C(=O)NCC(F)(F)c2ccccn2)c2ccccc21

>  <inchikey>  (54) 
CKEMLAIIJWKKOM-UHFFFAOYSA-N

>  <alias>  (54) 
A3280a

$$$$
A3306a
     RDKit          3D

 20 22  0  0  0  0  0  0  0  0999 V2000
   10.0480   14.2310   24.9800 O   0  0  0  0  0  0  0  0  0  0  0  0
   10.4810   13.2960   24.3100 C   0  0  0  0  0  0  0  0  0  0  0  0
    9.7180   11.9870   24.2400 C   0  0  0  0  0  0  0  0  0  0  0  0
   10.1120   10.9750   23.4640 N   0  0  0  0  0  0  0  0  0  0  0  0
    8.5870   11.6090   25.0420 C   0  0  0  0  0  0  0  0  0  0  0  0
    8.3430   10.2730   24.7040 C   0  0  0  0  0  0  0  0  0  0  0  0
    7.3430    9.5350   25.3230 C   0  0  0  0  0  0  0  0  0  0  0  0
    6.5620   10.1610   26.2830 C   0  0  0  0  0  0  0  0  0  0  0  0
    6.7750   11.4890   26.6150 C   0  0  0  0  0  0  0  0  0  0  0  0
    7.7850   12.2190   26.0010 C   0  0  0  0  0  0  0  0  0  0  0  0
    9.2690    9.9280   23.7630 N   0  0  0  0  0  0  0  0  0  0  0  0
    9.4830    8.6270   23.1500 C   0  0  0  0  0  0  0  0  0  0  0  0
   11.6840   13.3090   23.7340 N   0  0  0  0  0  0  0  0  0  0  0  0
   11.8930   13.6090   22.3280 C   0  0  0  0  0  0  0  0  0  0  0  0
   12.1780   15.0780   22.0790 C   0  0  0  0  0  0  0  0  0  0  0  0
   11.2600   15.4540   20.9580 C   0  0  0  0  0  0  0  0  0  0  0  0
   11.4040   14.8820   19.6990 N   0  0  0  0  0  0  0  0  0  0  0  0
   10.4060   15.2020   18.9380 C   0  0  0  0  0  0  0  0  0  0  0  0
    9.2410   16.2270   19.6440 S   0  0  0  0  0  0  0  0  0  0  0  0
   10.1620   16.2420   21.0840 C   0  0  0  0  0  0  0  0  0  0  0  0
 12 11  1  0
 11  4  1  0
  4  3  2  0
  3  2  1  0
  2  1  2  0
 13  2  1  0
 14 13  1  0
 15 14  1  0
 16 15  1  0
 16 20  2  0
 20 19  1  0
 19 18  1  0
 18 17  2  0
 17 16  1  0
  5  3  1  0
  5 10  2  0
 10  9  1  0
  9  8  2  0
  8  7  1  0
  7  6  2  0
  6  5  1  0
 11  6  1  0
M  END
>  <smiles>  (55) 
Cn1nc(C(=O)NCCc2cscn2)c2ccccc21

>  <inchikey>  (55) 
WLVBXUMLICFSSW-UHFFFAOYSA-N

>  <alias>  (55) 
A3306a

$$$$
A3581a
     RDKit          3D

 19 20  0  0  0  0  0  0  0  0999 V2000
   10.3130   16.4450   19.2000 O   0  0  0  0  0  0  0  0  0  0  0  0
   10.9120   15.3720   19.3640 C   0  0  0  0  0  0  0  0  0  0  0  0
   11.2800   14.5950   18.3590 N   0  0  0  0  0  0  0  0  0  0  0  0
   11.2020   14.8310   20.7550 C   0  0  1  0  0  0  0  0  0  0  0  0
   11.9860   15.7360   21.7240 C   0  0  0  0  0  0  0  0  0  0  0  0
   11.7510   15.0670   23.0790 C   0  0  0  0  0  0  0  0  0  0  0  0
    9.9250   14.5440   21.5550 C   0  0  0  0  0  0  0  0  0  0  0  0
   10.3870   14.5230   22.9510 N   0  0  0  0  0  0  0  0  0  0  0  0
    9.6300   14.1090   23.9930 C   0  0  0  0  0  0  0  0  0  0  0  0
   10.0140   14.2030   25.1520 O   0  0  0  0  0  0  0  0  0  0  0  0
    8.2200   13.6400   23.6650 C   0  0  0  0  0  0  0  0  0  0  0  0
    7.6760   12.5980   24.6180 C   0  0  0  0  0  0  0  0  0  0  0  0
    7.9780   11.2470   24.4330 C   0  0  0  0  0  0  0  0  0  0  0  0
    8.8870   10.9900   23.4390 O   0  0  0  0  0  0  0  0  0  0  0  0
    9.3430    9.6390   23.2840 C   0  0  0  0  0  0  0  0  0  0  0  0
    6.7740   12.9390   25.6270 C   0  0  0  0  0  0  0  0  0  0  0  0
    6.1720   11.9620   26.4080 C   0  0  0  0  0  0  0  0  0  0  0  0
    6.4610   10.6320   26.1940 C   0  0  0  0  0  0  0  0  0  0  0  0
    7.3610   10.2660   25.2020 C   0  0  0  0  0  0  0  0  0  0  0  0
 15 14  1  0
 14 13  1  0
 13 19  2  0
 19 18  1  0
 18 17  2  0
 17 16  1  0
 16 12  2  0
 13 12  1  0
 12 11  1  0
 11  9  1  0
 10  9  2  0
  9  8  1  0
  8  6  1  0
  6  5  1  0
  5  4  1  0
  4  2  1  6
  3  2  1  0
  2  1  2  0
  7  4  1  0
  8  7  1  0
M  END
>  <smiles>  (56) 
COc1ccccc1CC(=O)N1CC[C@H](C(N)=O)C1

>  <inchikey>  (56) 
ACVLTQNPXWHBQP-NSHDSACASA-N

>  <alias>  (56) 
A3581a

$$$$
A3371a
     RDKit          3D

 21 23  0  0  0  0  0  0  0  0999 V2000
    9.3670   14.5150   23.8750 O   0  0  0  0  0  0  0  0  0  0  0  0
    9.6930   13.5050   23.2580 C   0  0  0  0  0  0  0  0  0  0  0  0
    9.1820   12.1200   23.6820 C   0  0  0  0  0  0  0  0  0  0  0  0
    8.1510   11.7630   24.6350 C   0  0  0  0  0  0  0  0  0  0  0  0
    7.3050   12.4360   25.5090 C   0  0  0  0  0  0  0  0  0  0  0  0
    6.3310   11.7280   26.2040 C   0  0  0  0  0  0  0  0  0  0  0  0
    6.2010   10.3540   26.0460 C   0  0  0  0  0  0  0  0  0  0  0  0
    7.0510    9.6640   25.1960 C   0  0  0  0  0  0  0  0  0  0  0  0
    8.0170   10.3770   24.5000 C   0  0  0  0  0  0  0  0  0  0  0  0
    8.9090    9.9820   23.5530 N   0  0  0  0  0  0  0  0  0  0  0  0
    9.1060    8.6430   23.0210 C   0  0  0  0  0  0  0  0  0  0  0  0
    9.6360   11.0380   23.0550 N   0  0  0  0  0  0  0  0  0  0  0  0
   10.4600   13.5340   22.1660 N   0  0  0  0  0  0  0  0  0  0  0  0
   10.9280   14.7700   21.5470 C   0  0  0  0  0  0  0  0  0  0  0  0
   12.4400   14.8440   21.5050 C   0  0  0  0  0  0  0  0  0  0  0  0
   12.9620   15.9950   20.6980 C   0  0  0  0  0  0  0  0  0  0  0  0
   12.8110   16.0350   19.3270 N   0  0  0  0  0  0  0  0  0  0  0  0
   13.3530   17.1690   18.9520 C   0  0  0  0  0  0  0  0  0  0  0  0
   13.6130   17.1190   21.1070 C   0  0  0  0  0  0  0  0  0  0  0  0
   13.8520   17.8570   19.9850 N   0  0  0  0  0  0  0  0  0  0  0  0
   14.5120   19.1590   19.9260 C   0  0  0  0  0  0  0  0  0  0  0  0
 21 20  1  0
 20 18  1  0
 18 17  2  0
 17 16  1  0
 16 15  1  0
 15 14  1  0
 14 13  1  0
 13  2  1  0
  2  1  2  0
  3  2  1  0
  3 12  2  0
 12 10  1  0
 11 10  1  0
 10  9  1  0
  9  8  1  0
  8  7  2  0
  7  6  1  0
  6  5  2  0
  5  4  1  0
  4  3  1  0
  9  4  2  0
 19 16  2  0
 20 19  1  0
M  END
>  <smiles>  (57) 
Cn1cnc(CCNC(=O)c2nn(C)c3ccccc23)c1

>  <inchikey>  (57) 
NQHLIPQTOQIZAL-UHFFFAOYSA-N

>  <alias>  (57) 
A3371a

$$$$
A3379a
     RDKit          3D

 21 23  0  0  0  0  0  0  0  0999 V2000
    9.3410   14.3990   24.6050 O   0  0  0  0  0  0  0  0  0  0  0  0
    9.6020   13.4920   23.8040 C   0  0  0  0  0  0  0  0  0  0  0  0
    8.9970   12.1500   23.9760 C   0  0  0  0  0  0  0  0  0  0  0  0
    7.9530   11.7440   24.8740 C   0  0  0  0  0  0  0  0  0  0  0  0
    7.1340   12.3710   25.8170 C   0  0  0  0  0  0  0  0  0  0  0  0
    6.2140   11.6150   26.5290 C   0  0  0  0  0  0  0  0  0  0  0  0
    6.0980   10.2440   26.3130 C   0  0  0  0  0  0  0  0  0  0  0  0
    6.8930    9.6100   25.3650 C   0  0  0  0  0  0  0  0  0  0  0  0
    7.8100   10.3690   24.6550 C   0  0  0  0  0  0  0  0  0  0  0  0
    8.7090   10.0280   23.6900 N   0  0  0  0  0  0  0  0  0  0  0  0
    9.0810    8.6960   23.2410 C   0  0  0  0  0  0  0  0  0  0  0  0
    9.4180   11.1190   23.2390 N   0  0  0  0  0  0  0  0  0  0  0  0
   10.4640   13.6360   22.7890 N   0  0  0  0  0  0  0  0  0  0  0  0
   11.5640   14.5900   22.9410 C   0  0  1  0  0  0  0  0  0  0  0  0
   12.6330   14.0420   23.8690 C   0  0  0  0  0  0  0  0  0  0  0  0
   12.1040   14.8050   21.5350 C   0  0  0  0  0  0  0  0  0  0  0  0
   11.1480   15.5140   20.6360 C   0  0  0  0  0  0  0  0  0  0  0  0
   10.4980   16.6740   21.0560 N   0  0  0  0  0  0  0  0  0  0  0  0
    9.7610   16.9970   20.0570 C   0  0  0  0  0  0  0  0  0  0  0  0
    9.8590   16.1820   18.9820 O   0  0  0  0  0  0  0  0  0  0  0  0
   10.7360   15.2190   19.3930 C   0  0  0  0  0  0  0  0  0  0  0  0
 14 15  1  1
 16 14  1  0
 17 16  1  0
 17 21  2  0
 21 20  1  0
 20 19  1  0
 19 18  2  0
 18 17  1  0
 14 13  1  0
 13  2  1  0
  2  1  2  0
  3  2  1  0
  3 12  2  0
 12 10  1  0
 11 10  1  0
 10  9  1  0
  9  8  1  0
  8  7  2  0
  7  6  1  0
  6  5  2  0
  5  4  1  0
  4  3  1  0
  9  4  2  0
M  END
>  <smiles>  (58) 
C[C@@H](Cc1cocn1)NC(=O)c1nn(C)c2ccccc12

>  <inchikey>  (58) 
LQNOWDAJBFJAFM-JTQLQIEISA-N

>  <alias>  (58) 
A3379a

$$$$
A3403a
     RDKit          3D

 19 21  0  0  0  0  0  0  0  0999 V2000
   11.0520   14.8910   23.8250 O   0  0  0  0  0  0  0  0  0  0  0  0
   10.8770   14.2460   22.8040 C   0  0  0  0  0  0  0  0  0  0  0  0
   11.7280   14.4760   21.5770 C   0  0  0  0  0  0  0  0  0  0  0  0
   10.9370   15.2690   20.5820 C   0  0  0  0  0  0  0  0  0  0  0  0
   10.3730   16.4730   20.9710 N   0  0  0  0  0  0  0  0  0  0  0  0
    9.7450   16.8700   19.9320 C   0  0  0  0  0  0  0  0  0  0  0  0
    9.8290   16.0590   18.8560 O   0  0  0  0  0  0  0  0  0  0  0  0
   10.6080   15.0350   19.3060 C   0  0  0  0  0  0  0  0  0  0  0  0
    9.9090   13.3250   22.6610 N   0  0  0  0  0  0  0  0  0  0  0  0
    8.9250   12.9530   23.6010 C   0  0  0  0  0  0  0  0  0  0  0  0
    8.2270   13.8670   24.3910 C   0  0  0  0  0  0  0  0  0  0  0  0
    7.2190   13.4430   25.2420 C   0  0  0  0  0  0  0  0  0  0  0  0
    6.8950   12.1010   25.3320 C   0  0  0  0  0  0  0  0  0  0  0  0
    8.5990   11.5870   23.7020 C   0  0  0  0  0  0  0  0  0  0  0  0
    7.5910   11.1560   24.5760 C   0  0  0  0  0  0  0  0  0  0  0  0
    7.5630    9.7250   24.4180 C   0  0  0  0  0  0  0  0  0  0  0  0
    9.1600   10.5610   23.0300 N   0  0  0  0  0  0  0  0  0  0  0  0
    8.4990    9.4590   23.4960 N   0  0  0  0  0  0  0  0  0  0  0  0
    8.8650    8.1680   22.9170 C   0  0  0  0  0  0  0  0  0  0  0  0
 19 18  1  0
 18 16  1  0
 16 15  2  0
 15 13  1  0
 13 12  2  0
 12 11  1  0
 11 10  2  0
 10  9  1  0
  9  2  1  0
  2  1  2  0
  3  2  1  0
  4  3  1  0
  4  8  2  0
  8  7  1  0
  7  6  1  0
  6  5  2  0
  5  4  1  0
 14 10  1  0
 15 14  1  0
 17 14  2  0
 18 17  1  0
M  END
>  <smiles>  (59) 
Cn1cc2cccc(NC(=O)Cc3cocn3)c2n1

>  <inchikey>  (59) 
YEAWWZXWMQIDNB-UHFFFAOYSA-N

>  <alias>  (59) 
A3403a

$$$$
A3410a
     RDKit          3D

 21 23  0  0  0  0  0  0  0  0999 V2000
   11.6970   14.6390   24.4480 O   0  0  0  0  0  0  0  0  0  0  0  0
   11.2350   13.8330   23.6420 C   0  0  0  0  0  0  0  0  0  0  0  0
   10.0850   12.9580   24.0150 C   0  0  0  0  0  0  0  0  0  0  0  0
   10.0640   11.6480   23.5400 C   0  0  0  0  0  0  0  0  0  0  0  0
    9.0970   13.3990   24.9010 C   0  0  0  0  0  0  0  0  0  0  0  0
    8.0970   12.5480   25.3410 C   0  0  0  0  0  0  0  0  0  0  0  0
    8.0860   11.2190   24.9230 C   0  0  0  0  0  0  0  0  0  0  0  0
    9.0720   10.7980   24.0110 C   0  0  0  0  0  0  0  0  0  0  0  0
    8.8420    9.4810   23.7830 N   0  0  0  0  0  0  0  0  0  0  0  0
    9.6430    8.5600   22.9880 C   0  0  0  0  0  0  0  0  0  0  0  0
    7.7520    9.0220   24.4810 N   0  0  0  0  0  0  0  0  0  0  0  0
    7.3010   10.0490   25.1750 C   0  0  0  0  0  0  0  0  0  0  0  0
    6.1180    9.8950   26.1000 C   0  0  0  0  0  0  0  0  0  0  0  0
   11.7250   13.7010   22.4030 N   0  0  0  0  0  0  0  0  0  0  0  0
   12.7670   14.6050   21.9190 C   0  0  0  0  0  0  0  0  0  0  0  0
   12.7510   14.7150   20.4040 C   0  0  0  0  0  0  0  0  0  0  0  0
   11.5250   15.4260   19.9450 C   0  0  0  0  0  0  0  0  0  0  0  0
   10.9280   16.4290   20.7050 N   0  0  0  0  0  0  0  0  0  0  0  0
    9.8880   16.7540   20.0260 C   0  0  0  0  0  0  0  0  0  0  0  0
    9.7310   16.0860   18.8620 O   0  0  0  0  0  0  0  0  0  0  0  0
   10.8000   15.2410   18.8330 C   0  0  0  0  0  0  0  0  0  0  0  0
 13 12  1  0
 12 11  2  0
 11  9  1  0
 10  9  1  0
  9  8  1  0
  8  4  2  0
  4  3  1  0
  3  2  1  0
  2  1  2  0
 14  2  1  0
 15 14  1  0
 16 15  1  0
 17 16  1  0
 17 21  2  0
 21 20  1  0
 20 19  1  0
 19 18  2  0
 18 17  1  0
  5  3  2  0
  6  5  1  0
  7  6  2  0
 12  7  1  0
  8  7  1  0
M  END
>  <smiles>  (60) 
Cc1nn(C)c2cc(C(=O)NCCc3cocn3)ccc12

>  <inchikey>  (60) 
LIYDFYCGCLXSCX-UHFFFAOYSA-N

>  <alias>  (60) 
A3410a

$$$$
A3419a
     RDKit          3D

 22 24  0  0  0  0  0  0  0  0999 V2000
    7.9360    8.5420   24.6620 O   0  0  0  0  0  0  0  0  0  0  0  0
    8.4830    9.6130   24.4990 C   0  0  0  0  0  0  0  0  0  0  0  0
    9.5360    9.7350   23.6160 N   0  0  0  0  0  0  0  0  0  0  0  0
   10.0590    8.5720   22.9160 C   0  0  0  0  0  0  0  0  0  0  0  0
    8.0390   10.8690   25.1070 C   0  0  0  0  0  0  0  0  0  0  0  0
    6.9670   10.8720   26.0030 C   0  0  0  0  0  0  0  0  0  0  0  0
    6.5000   12.0690   26.5170 C   0  0  0  0  0  0  0  0  0  0  0  0
    7.1020   13.2610   26.1680 C   0  0  0  0  0  0  0  0  0  0  0  0
    8.1840   13.2700   25.3050 C   0  0  0  0  0  0  0  0  0  0  0  0
    8.6770   12.0730   24.7850 C   0  0  0  0  0  0  0  0  0  0  0  0
    9.8370   12.0030   23.8710 C   0  0  0  0  0  0  0  0  0  0  0  0
   10.2250   10.8890   23.3240 N   0  0  0  0  0  0  0  0  0  0  0  0
   10.7540   13.1790   23.6330 C   0  0  0  0  0  0  0  0  0  0  0  0
   10.9290   14.0140   24.5060 O   0  0  0  0  0  0  0  0  0  0  0  0
   11.3720   13.2280   22.4440 N   0  0  0  0  0  0  0  0  0  0  0  0
   12.4320   14.1940   22.1910 C   0  0  0  0  0  0  0  0  0  0  0  0
   12.5860   14.4720   20.7070 C   0  0  0  0  0  0  0  0  0  0  0  0
   11.3990   15.1960   20.1610 C   0  0  0  0  0  0  0  0  0  0  0  0
   10.7130   16.1380   20.9090 N   0  0  0  0  0  0  0  0  0  0  0  0
    9.7480   16.5030   20.1420 C   0  0  0  0  0  0  0  0  0  0  0  0
    9.7260   15.9250   18.9230 O   0  0  0  0  0  0  0  0  0  0  0  0
   10.8000   15.0780   18.9660 C   0  0  0  0  0  0  0  0  0  0  0  0
  4  3  1  0
  3 12  1  0
 12 11  2  0
 13 11  1  0
 14 13  2  0
 15 13  1  0
 16 15  1  0
 17 16  1  0
 18 17  1  0
 18 22  2  0
 22 21  1  0
 21 20  1  0
 20 19  2  0
 19 18  1  0
 11 10  1  0
 10  9  2  0
  9  8  1  0
  8  7  2  0
  7  6  1  0
  6  5  2  0
 10  5  1  0
  5  2  1  0
  3  2  1  0
  2  1  2  0
M  END
>  <smiles>  (61) 
Cn1nc(C(=O)NCCc2cocn2)c2ccccc2c1=O

>  <inchikey>  (61) 
LDVAVSGFMNNJNN-UHFFFAOYSA-N

>  <alias>  (61) 
A3419a

$$$$
A3435a
     RDKit          3D

 16 17  0  0  0  0  0  0  0  0999 V2000
   10.2830   13.7760   24.9000 O   0  0  0  0  0  0  0  0  0  0  0  0
   10.1160   13.0230   23.9410 C   0  0  0  0  0  0  0  0  0  0  0  0
    9.1700   11.8790   24.0550 C   0  0  0  0  0  0  0  0  0  0  0  0
    8.1400   12.0000   24.9860 C   0  0  0  0  0  0  0  0  0  0  0  0
    7.3630   10.9050   25.3220 C   0  0  0  0  0  0  0  0  0  0  0  0
    7.5790    9.6850   24.7100 C   0  0  0  0  0  0  0  0  0  0  0  0
    8.6040    9.5470   23.7800 C   0  0  0  0  0  0  0  0  0  0  0  0
    9.3970   10.6340   23.4540 C   0  0  0  0  0  0  0  0  0  0  0  0
   10.8030   13.1450   22.7950 N   0  0  0  0  0  0  0  0  0  0  0  0
   11.8880   14.1170   22.6830 C   0  0  0  0  0  0  0  0  0  0  0  0
   12.1980   14.4930   21.2490 C   0  0  0  0  0  0  0  0  0  0  0  0
   11.0900   15.2350   20.5690 C   0  0  0  0  0  0  0  0  0  0  0  0
   10.4420   16.3060   21.1800 N   0  0  0  0  0  0  0  0  0  0  0  0
    9.5940   16.6970   20.2990 C   0  0  0  0  0  0  0  0  0  0  0  0
    9.6000   16.0040   19.1420 O   0  0  0  0  0  0  0  0  0  0  0  0
   10.5730   15.0620   19.3460 C   0  0  0  0  0  0  0  0  0  0  0  0
  2  1  2  0
  9  2  1  0
 10  9  1  0
 11 10  1  0
 12 11  1  0
 12 16  2  0
 16 15  1  0
 15 14  1  0
 14 13  2  0
 13 12  1  0
  3  2  1  0
  3  8  2  0
  8  7  1  0
  7  6  2  0
  6  5  1  0
  5  4  2  0
  4  3  1  0
M  END
>  <smiles>  (62) 
O=C(NCCc1cocn1)c1ccccc1

>  <inchikey>  (62) 
INXUYTDTOJRNGX-UHFFFAOYSA-N

>  <alias>  (62) 
A3435a

$$$$
A3436a
     RDKit          3D

 16 17  0  0  0  0  0  0  0  0999 V2000
    9.8530   14.0780   24.5590 O   0  0  0  0  0  0  0  0  0  0  0  0
    9.9480   13.1890   23.7050 C   0  0  0  0  0  0  0  0  0  0  0  0
    9.2540   11.8970   23.8760 C   0  0  0  0  0  0  0  0  0  0  0  0
    8.2030   11.5270   24.7270 C   0  0  0  0  0  0  0  0  0  0  0  0
    7.9810   10.2250   24.5800 N   0  0  0  0  0  0  0  0  0  0  0  0
    9.6790   10.8060   23.2070 N   0  0  0  0  0  0  0  0  0  0  0  0
    8.8990    9.8410   23.6880 N   0  0  0  0  0  0  0  0  0  0  0  0
    9.0710    8.4490   23.2970 C   0  0  0  0  0  0  0  0  0  0  0  0
   10.7550   13.2800   22.6360 N   0  0  0  0  0  0  0  0  0  0  0  0
   11.7860   14.3100   22.5380 C   0  0  0  0  0  0  0  0  0  0  0  0
   12.1130   14.6700   21.1020 C   0  0  0  0  0  0  0  0  0  0  0  0
   10.9650   15.3900   20.4700 C   0  0  0  0  0  0  0  0  0  0  0  0
   10.3300   16.4570   21.1030 N   0  0  0  0  0  0  0  0  0  0  0  0
    9.4430   16.8340   20.2580 C   0  0  0  0  0  0  0  0  0  0  0  0
    9.4140   16.1320   19.1040 O   0  0  0  0  0  0  0  0  0  0  0  0
   10.3990   15.2040   19.2710 C   0  0  0  0  0  0  0  0  0  0  0  0
  8  7  1  0
  7  5  1  0
  5  4  2  0
  4  3  1  0
  3  2  1  0
  2  1  2  0
  9  2  1  0
 10  9  1  0
 11 10  1  0
 12 11  1  0
 12 16  2  0
 16 15  1  0
 15 14  1  0
 14 13  2  0
 13 12  1  0
  6  3  2  0
  7  6  1  0
M  END
>  <smiles>  (63) 
Cn1ncc(C(=O)NCCc2cocn2)n1

>  <inchikey>  (63) 
PBFVVICHKJKWIA-UHFFFAOYSA-N

>  <alias>  (63) 
A3436a

$$$$
A3593a
     RDKit          3D

 21 23  0  0  0  0  0  0  0  0999 V2000
    9.3390   14.4470   24.5210 O   0  0  0  0  0  0  0  0  0  0  0  0
    9.6190   13.5070   23.7530 C   0  0  0  0  0  0  0  0  0  0  0  0
    9.0110   12.1640   23.9500 C   0  0  0  0  0  0  0  0  0  0  0  0
    7.9500   11.7680   24.8410 C   0  0  0  0  0  0  0  0  0  0  0  0
    7.1430   12.3950   25.7900 C   0  0  0  0  0  0  0  0  0  0  0  0
    6.2320   11.6340   26.5130 C   0  0  0  0  0  0  0  0  0  0  0  0
    6.1240   10.2640   26.3100 C   0  0  0  0  0  0  0  0  0  0  0  0
    6.9080    9.6280   25.3550 C   0  0  0  0  0  0  0  0  0  0  0  0
    7.8080   10.3880   24.6280 C   0  0  0  0  0  0  0  0  0  0  0  0
    8.7290   10.0360   23.6870 N   0  0  0  0  0  0  0  0  0  0  0  0
    9.0830    8.6950   23.2370 C   0  0  0  0  0  0  0  0  0  0  0  0
    9.4540   11.1200   23.2470 N   0  0  0  0  0  0  0  0  0  0  0  0
   10.4840   13.6310   22.7380 N   0  0  0  0  0  0  0  0  0  0  0  0
   11.5760   14.5910   22.9180 C   0  0  1  0  0  0  0  0  0  0  0  0
   12.6210   14.0740   23.8910 C   0  0  0  0  0  0  0  0  0  0  0  0
   12.1530   14.8770   21.5400 C   0  0  0  0  0  0  0  0  0  0  0  0
   11.1720   15.5670   20.6650 C   0  0  0  0  0  0  0  0  0  0  0  0
   10.5370   16.7390   21.0850 N   0  0  0  0  0  0  0  0  0  0  0  0
    9.7600   17.0390   20.1080 C   0  0  0  0  0  0  0  0  0  0  0  0
    9.8280   16.2080   19.0440 O   0  0  0  0  0  0  0  0  0  0  0  0
   10.7320   15.2590   19.4380 C   0  0  0  0  0  0  0  0  0  0  0  0
 14 15  1  1
 16 14  1  0
 17 16  1  0
 17 21  2  0
 21 20  1  0
 20 19  1  0
 19 18  2  0
 18 17  1  0
 14 13  1  0
 13  2  1  0
  2  1  2  0
  3  2  1  0
  3 12  2  0
 12 10  1  0
 11 10  1  0
 10  9  1  0
  9  8  1  0
  8  7  2  0
  7  6  1  0
  6  5  2  0
  5  4  1  0
  4  3  1  0
  9  4  2  0
M  END
>  <smiles>  (64) 
C[C@@H](Cc1cocn1)NC(=O)c1nn(C)c2ccccc12

>  <inchikey>  (64) 
LQNOWDAJBFJAFM-JTQLQIEISA-N

>  <alias>  (64) 
A3593a

$$$$
A3606a
     RDKit          3D

 26 28  0  0  0  0  0  0  0  0999 V2000
   10.2370   16.5540   19.2680 O   0  0  0  0  0  0  0  0  0  0  0  0
   10.6410   15.4080   19.4940 C   0  0  0  0  0  0  0  0  0  0  0  0
   10.9780   14.5610   18.5350 N   0  0  0  0  0  0  0  0  0  0  0  0
   10.7100   14.8630   20.9080 C   0  0  1  0  0  0  0  0  0  0  0  0
   11.8330   15.5120   21.7380 C   0  0  0  0  0  0  0  0  0  0  0  0
   11.8470   14.9470   23.1610 C   0  0  0  0  0  0  0  0  0  0  0  0
   10.4720   15.0760   23.8090 C   0  0  0  0  0  0  0  0  0  0  0  0
    9.3650   15.1030   21.6030 C   0  0  0  0  0  0  0  0  0  0  0  0
    9.4200   14.5190   22.9430 N   0  0  0  0  0  0  0  0  0  0  0  0
    8.6040   13.4980   23.2780 C   0  0  0  0  0  0  0  0  0  0  0  0
    7.6720   13.1490   22.5710 O   0  0  0  0  0  0  0  0  0  0  0  0
    8.8800   12.8630   24.6220 C   0  0  0  0  0  0  0  0  0  0  0  0
    8.0330   11.6720   24.8880 C   0  0  0  0  0  0  0  0  0  0  0  0
    8.3630   10.4070   24.4820 N   0  0  0  0  0  0  0  0  0  0  0  0
    9.5380    9.9750   23.7330 C   0  0  0  0  0  0  0  0  0  0  0  0
    6.8750   11.5630   25.6200 C   0  0  0  0  0  0  0  0  0  0  0  0
    6.5640   10.1960   25.5910 C   0  0  0  0  0  0  0  0  0  0  0  0
    7.4540    9.4910   24.9100 N   0  0  0  0  0  0  0  0  0  0  0  0
    6.1650   12.6360   26.3700 C   0  0  0  0  0  0  0  0  0  0  0  0
    5.1780   12.2980   27.2900 C   0  0  0  0  0  0  0  0  0  0  0  0
    4.6730   13.2720   28.1290 C   0  0  0  0  0  0  0  0  0  0  0  0
    3.5270   12.8120   29.3600 Cl  0  0  0  0  0  0  0  0  0  0  0  0
    5.0970   14.5860   28.0660 C   0  0  0  0  0  0  0  0  0  0  0  0
    6.0620   14.9070   27.1310 C   0  0  0  0  0  0  0  0  0  0  0  0
    6.6100   16.5630   27.0140 Cl  0  0  0  0  0  0  0  0  0  0  0  0
    6.5910   13.9600   26.2760 C   0  0  0  0  0  0  0  0  0  0  0  0
 15 14  1  0
 14 18  1  0
 18 17  2  0
 17 16  1  0
 19 16  1  0
 19 26  2  0
 26 24  1  0
 25 24  1  0
 24 23  2  0
 23 21  1  0
 22 21  1  0
 21 20  2  0
 20 19  1  0
 16 13  2  0
 14 13  1  0
 13 12  1  0
 12 10  1  0
 11 10  2  0
 10  9  1  0
  9  7  1  0
  7  6  1  0
  6  5  1  0
  5  4  1  0
  4  2  1  6
  3  2  1  0
  2  1  2  0
  8  4  1  0
  9  8  1  0
M  END
>  <smiles>  (65) 
Cn1ncc(-c2cc(Cl)cc(Cl)c2)c1CC(=O)N1CCC[C@H](C(N)=O)C1

>  <inchikey>  (65) 
CSGCLFRVJTXKQJ-NSHDSACASA-N

>  <alias>  (65) 
A3606a

$$$$
A3521a
     RDKit          3D

 23 25  0  0  0  0  0  0  0  0999 V2000
    9.3450   13.8760   25.1640 Cl  0  0  0  0  0  0  0  0  0  0  0  0
    8.7760   12.2380   25.1680 C   0  0  0  0  0  0  0  0  0  0  0  0
    9.4770   11.3350   24.3890 C   0  0  0  0  0  0  0  0  0  0  0  0
    9.0540   10.0220   24.3540 C   0  0  0  0  0  0  0  0  0  0  0  0
    9.8910    8.8940   23.3320 Cl  0  0  0  0  0  0  0  0  0  0  0  0
    7.9690    9.6010   25.0820 C   0  0  0  0  0  0  0  0  0  0  0  0
    7.2920   10.5190   25.8640 C   0  0  0  0  0  0  0  0  0  0  0  0
    7.6720   11.8530   25.9350 C   0  0  0  0  0  0  0  0  0  0  0  0
    6.9490   12.8250   26.8870 C   0  0  0  0  0  0  0  0  0  0  0  0
    5.5970   12.2400   27.3730 C   0  0  0  0  0  0  0  0  0  0  0  0
    4.9710   13.0810   28.4720 C   0  0  0  0  0  0  0  0  0  0  0  0
    5.8440   13.2130   29.5990 O   0  0  0  0  0  0  0  0  0  0  0  0
    7.0900   13.8420   29.2250 C   0  0  0  0  0  0  0  0  0  0  0  0
    7.8300   13.0690   28.1420 C   0  0  0  0  0  0  0  0  0  0  0  0
    6.5090   14.0840   26.0990 C   0  0  0  0  0  0  0  0  0  0  0  0
    5.9130   13.9740   25.0310 O   0  0  0  0  0  0  0  0  0  0  0  0
    6.7770   15.2780   26.6380 N   0  0  0  0  0  0  0  0  0  0  0  0
    5.7750   16.0250   27.4060 C   0  0  1  0  0  0  0  0  0  0  0  0
    5.7320   17.5480   27.2340 C   0  0  0  0  0  0  0  0  0  0  0  0
    4.3050   15.9810   26.9510 C   0  0  0  0  0  0  0  0  0  0  0  0
    4.2300   17.5220   26.8630 C   0  0  2  0  0  0  0  0  0  0  0  0
    3.8960   18.0800   25.5420 C   0  0  0  0  0  0  0  0  0  0  0  0
    3.6730   18.4980   24.5090 N   0  0  0  0  0  0  0  0  0  0  0  0
 23 22  3  0
 21 22  1  6
 21 19  1  0
 19 18  1  0
 18 17  1  6
 17 15  1  0
 16 15  2  0
 15  9  1  0
  9  8  1  0
  8  7  2  0
  7  6  1  0
  6  4  2  0
  5  4  1  0
  4  3  1  0
  3  2  2  0
  8  2  1  0
  2  1  1  0
  9 14  1  0
 14 13  1  0
 13 12  1  0
 12 11  1  0
 11 10  1  0
 10  9  1  0
 20 18  1  0
 21 20  1  0
M  END
>  <smiles>  (66) 
N#C[C@H]1C[C@@H](NC(=O)C2(c3ccc(Cl)cc3Cl)CCOCC2)C1

>  <inchikey>  (66) 
NHIMIHAWLVCISG-BJHJDKERSA-N

>  <alias>  (66) 
A3521a

$$$$
A3521b
     RDKit          3D

 23 25  0  0  0  0  0  0  0  0999 V2000
   -1.2410   12.0930   20.7070 Cl  0  0  0  0  0  0  0  0  0  0  0  0
    0.1620   12.3510   19.7220 C   0  0  0  0  0  0  0  0  0  0  0  0
    1.3050   11.6460   20.0670 C   0  0  0  0  0  0  0  0  0  0  0  0
    2.4660   11.8780   19.3580 C   0  0  0  0  0  0  0  0  0  0  0  0
    3.9070   10.9950   19.7820 Cl  0  0  0  0  0  0  0  0  0  0  0  0
    2.5080   12.7770   18.3270 C   0  0  0  0  0  0  0  0  0  0  0  0
    1.3530   13.4500   17.9840 C   0  0  0  0  0  0  0  0  0  0  0  0
    0.1530   13.2680   18.6640 C   0  0  0  0  0  0  0  0  0  0  0  0
   -1.1250   14.0190   18.2490 C   0  0  0  0  0  0  0  0  0  0  0  0
   -0.8960   15.0250   17.0920 C   0  0  0  0  0  0  0  0  0  0  0  0
   -0.6730   14.3110   15.7760 C   0  0  0  0  0  0  0  0  0  0  0  0
   -1.7640   13.4460   15.4530 O   0  0  0  0  0  0  0  0  0  0  0  0
   -1.9280   12.4380   16.4500 C   0  0  0  0  0  0  0  0  0  0  0  0
   -2.2360   13.0390   17.8020 C   0  0  0  0  0  0  0  0  0  0  0  0
   -1.6130   14.8940   19.4000 C   0  0  0  0  0  0  0  0  0  0  0  0
   -2.8070   15.0960   19.5820 O   0  0  0  0  0  0  0  0  0  0  0  0
   -0.6490   15.3730   20.1870 N   0  0  0  0  0  0  0  0  0  0  0  0
   -0.8690   16.3590   21.2320 C   0  0  1  0  0  0  0  0  0  0  0  0
   -1.3940   17.7290   20.7850 C   0  0  0  0  0  0  0  0  0  0  0  0
   -2.1110   16.2350   22.1270 C   0  0  0  0  0  0  0  0  0  0  0  0
   -1.8320   17.7550   22.2640 C   0  0  1  0  0  0  0  0  0  0  0  0
   -0.7680   18.1890   23.1840 C   0  0  0  0  0  0  0  0  0  0  0  0
    0.0800   18.5310   23.8660 N   0  0  0  0  0  0  0  0  0  0  0  0
 23 22  3  0
 21 22  1  1
 21 19  1  0
 19 18  1  0
 18 17  1  6
 17 15  1  0
 16 15  2  0
 15  9  1  0
  9  8  1  0
  8  7  2  0
  7  6  1  0
  6  4  2  0
  5  4  1  0
  4  3  1  0
  3  2  2  0
  8  2  1  0
  2  1  1  0
  9 14  1  0
 14 13  1  0
 13 12  1  0
 12 11  1  0
 11 10  1  0
 10  9  1  0
 20 18  1  0
 21 20  1  0
M  END
>  <smiles>  (67) 
N#C[C@H]1C[C@H](NC(=O)C2(c3ccc(Cl)cc3Cl)CCOCC2)C1

>  <inchikey>  (67) 
NHIMIHAWLVCISG-AULYBMBSSA-N

>  <alias>  (67) 
A3521b

$$$$
A3548a
     RDKit          3D

 20 21  0  0  0  0  0  0  0  0999 V2000
   10.6250   16.7900   19.1500 O   0  0  0  0  0  0  0  0  0  0  0  0
   10.9080   15.6070   19.3450 C   0  0  0  0  0  0  0  0  0  0  0  0
   11.1410   14.7590   18.3620 N   0  0  0  0  0  0  0  0  0  0  0  0
   11.0090   15.0470   20.7540 C   0  0  1  0  0  0  0  0  0  0  0  0
   11.9860   15.8750   21.6020 C   0  0  0  0  0  0  0  0  0  0  0  0
   12.0270   15.3900   23.0520 C   0  0  0  0  0  0  0  0  0  0  0  0
   10.6320   15.3810   23.6560 C   0  0  0  0  0  0  0  0  0  0  0  0
    9.6320   15.1150   21.4260 C   0  0  0  0  0  0  0  0  0  0  0  0
    9.6910   14.6290   22.8090 N   0  0  0  0  0  0  0  0  0  0  0  0
    8.8890   13.6320   23.2580 C   0  0  0  0  0  0  0  0  0  0  0  0
    8.0090   13.1370   22.5640 O   0  0  0  0  0  0  0  0  0  0  0  0
    9.1110   13.1690   24.6860 C   0  0  0  0  0  0  0  0  0  0  0  0
    8.1930   12.0320   25.0840 C   0  0  0  0  0  0  0  0  0  0  0  0
    8.3730   10.7370   24.5800 C   0  0  0  0  0  0  0  0  0  0  0  0
    9.4480   10.5730   23.7470 O   0  0  0  0  0  0  0  0  0  0  0  0
    9.7000    9.2710   23.2290 C   0  0  0  0  0  0  0  0  0  0  0  0
    7.1870   12.1900   26.0200 C   0  0  0  0  0  0  0  0  0  0  0  0
    6.3930   11.2110   26.4620 N   0  0  0  0  0  0  0  0  0  0  0  0
    6.5790    9.9970   25.9420 C   0  0  0  0  0  0  0  0  0  0  0  0
    7.5460    9.7080   24.9960 C   0  0  0  0  0  0  0  0  0  0  0  0
 16 15  1  0
 15 14  1  0
 14 20  2  0
 20 19  1  0
 19 18  2  0
 18 17  1  0
 17 13  2  0
 14 13  1  0
 13 12  1  0
 12 10  1  0
 11 10  2  0
 10  9  1  0
  9  7  1  0
  7  6  1  0
  6  5  1  0
  5  4  1  0
  4  2  1  6
  3  2  1  0
  2  1  2  0
  8  4  1  0
  9  8  1  0
M  END
>  <smiles>  (68) 
COc1ccncc1CC(=O)N1CCC[C@H](C(N)=O)C1

>  <inchikey>  (68) 
ZKUXUDCBALXGFV-JTQLQIEISA-N

>  <alias>  (68) 
A3548a

$$$$
A3556a
     RDKit          3D

 21 23  0  0  0  0  0  0  0  0999 V2000
   10.3000   16.3880   19.2980 O   0  0  0  0  0  0  0  0  0  0  0  0
   10.9050   15.3240   19.4570 C   0  0  0  0  0  0  0  0  0  0  0  0
   11.3240   14.5780   18.4470 N   0  0  0  0  0  0  0  0  0  0  0  0
   11.1560   14.7600   20.8470 C   0  0  1  0  0  0  0  0  0  0  0  0
   12.1820   15.5320   21.6930 C   0  0  0  0  0  0  0  0  0  0  0  0
   11.9130   15.0520   23.1170 C   0  0  0  0  0  0  0  0  0  0  0  0
    9.9130   14.7840   21.7390 C   0  0  0  0  0  0  0  0  0  0  0  0
   10.4780   14.7100   23.0920 N   0  0  0  0  0  0  0  0  0  0  0  0
    9.7900   14.4370   24.2210 C   0  0  0  0  0  0  0  0  0  0  0  0
   10.3310   14.4080   25.3150 O   0  0  0  0  0  0  0  0  0  0  0  0
    8.2950   14.2180   24.0810 C   0  0  0  0  0  0  0  0  0  0  0  0
    7.7840   13.0230   24.8570 C   0  0  0  0  0  0  0  0  0  0  0  0
    6.8810   13.2100   25.9020 C   0  0  0  0  0  0  0  0  0  0  0  0
    6.2660   12.1370   26.5330 C   0  0  0  0  0  0  0  0  0  0  0  0
    6.5600   10.8370   26.1540 C   0  0  0  0  0  0  0  0  0  0  0  0
    7.4940   10.6060   25.1300 C   0  0  0  0  0  0  0  0  0  0  0  0
    8.1050   11.7010   24.4830 C   0  0  0  0  0  0  0  0  0  0  0  0
    8.9790   11.1100   23.5340 C   0  0  0  0  0  0  0  0  0  0  0  0
    7.9510    9.4030   24.6290 N   0  0  0  0  0  0  0  0  0  0  0  0
    8.8510    9.7840   23.6740 N   0  0  0  0  0  0  0  0  0  0  0  0
    9.6580    8.7740   22.9880 C   0  0  0  0  0  0  0  0  0  0  0  0
 21 20  1  0
 20 18  1  0
 18 17  2  0
 17 12  1  0
 12 11  1  0
 11  9  1  0
 10  9  2  0
  9  8  1  0
  8  6  1  0
  6  5  1  0
  5  4  1  0
  4  2  1  6
  3  2  1  0
  2  1  2  0
  7  4  1  0
  8  7  1  0
 13 12  2  0
 14 13  1  0
 15 14  2  0
 16 15  1  0
 17 16  1  0
 19 16  2  0
 20 19  1  0
M  END
>  <smiles>  (69) 
Cn1cc2c(CC(=O)N3CC[C@H](C(N)=O)C3)cccc2n1

>  <inchikey>  (69) 
BRQFGLOHPDECRA-NSHDSACASA-N

>  <alias>  (69) 
A3556a

$$$$
A3571a
     RDKit          3D

 21 22  0  0  0  0  0  0  0  0999 V2000
   10.2610   16.6990   19.1860 O   0  0  0  0  0  0  0  0  0  0  0  0
   10.5860   15.5440   19.4650 C   0  0  0  0  0  0  0  0  0  0  0  0
   10.9520   14.6580   18.5520 N   0  0  0  0  0  0  0  0  0  0  0  0
   10.5210   15.0300   20.8910 C   0  0  1  0  0  0  0  0  0  0  0  0
   11.6980   15.5870   21.6960 C   0  0  0  0  0  0  0  0  0  0  0  0
   11.9430   14.9110   23.0450 C   0  0  0  0  0  0  0  0  0  0  0  0
   11.0490   15.3450   24.1980 C   0  0  0  0  0  0  0  0  0  0  0  0
    9.6220   15.7380   23.8630 C   0  0  0  0  0  0  0  0  0  0  0  0
    9.1380   15.3070   21.4650 C   0  0  0  0  0  0  0  0  0  0  0  0
    8.9920   14.8840   22.8530 N   0  0  0  0  0  0  0  0  0  0  0  0
    8.2390   13.8090   23.1670 C   0  0  0  0  0  0  0  0  0  0  0  0
    7.4910   13.2980   22.3530 O   0  0  0  0  0  0  0  0  0  0  0  0
    8.3560   13.3020   24.5990 C   0  0  0  0  0  0  0  0  0  0  0  0
    7.4510   12.1300   24.9080 C   0  0  0  0  0  0  0  0  0  0  0  0
    7.8000   10.8350   24.5220 C   0  0  0  0  0  0  0  0  0  0  0  0
    8.9280   10.7430   23.7470 O   0  0  0  0  0  0  0  0  0  0  0  0
    9.3280    9.4440   23.2890 C   0  0  0  0  0  0  0  0  0  0  0  0
    6.3400   12.2940   25.7270 C   0  0  0  0  0  0  0  0  0  0  0  0
    5.6170   11.2020   26.1760 C   0  0  0  0  0  0  0  0  0  0  0  0
    5.9690    9.9420   25.7880 C   0  0  0  0  0  0  0  0  0  0  0  0
    7.0510    9.7470   24.9410 C   0  0  0  0  0  0  0  0  0  0  0  0
 17 16  1  0
 16 15  1  0
 15 21  2  0
 21 20  1  0
 20 19  2  0
 19 18  1  0
 18 14  2  0
 15 14  1  0
 14 13  1  0
 13 11  1  0
 12 11  2  0
 11 10  1  0
 10  8  1  0
  8  7  1  0
  7  6  1  0
  6  5  1  0
  5  4  1  0
  4  2  1  6
  3  2  1  0
  2  1  2  0
  9  4  1  0
 10  9  1  0
M  END
>  <smiles>  (70) 
COc1ccccc1CC(=O)N1CCCC[C@H](C(N)=O)C1

>  <inchikey>  (70) 
WNIBIMVZSUHHEM-ZDUSSCGKSA-N

>  <alias>  (70) 
A3571a

$$$$
A3571b
     RDKit          3D

 21 22  0  0  0  0  0  0  0  0999 V2000
   10.3140   16.6590   19.2440 O   0  0  0  0  0  0  0  0  0  0  0  0
   10.6940   15.5010   19.5050 C   0  0  0  0  0  0  0  0  0  0  0  0
   10.9670   14.5880   18.5690 N   0  0  0  0  0  0  0  0  0  0  0  0
   10.7900   15.0170   20.9410 C   0  0  1  0  0  0  0  0  0  0  0  0
   12.0130   15.6310   21.6400 C   0  0  0  0  0  0  0  0  0  0  0  0
   12.3480   15.0290   23.0160 C   0  0  0  0  0  0  0  0  0  0  0  0
   11.5470   15.4870   24.2290 C   0  0  0  0  0  0  0  0  0  0  0  0
   10.0840   15.7520   24.0380 C   0  0  0  0  0  0  0  0  0  0  0  0
    9.4840   15.3230   21.6530 C   0  0  0  0  0  0  0  0  0  0  0  0
    9.4470   14.8770   23.0460 N   0  0  0  0  0  0  0  0  0  0  0  0
    8.7690   13.7430   23.3470 C   0  0  0  0  0  0  0  0  0  0  0  0
    7.9720   13.2320   22.5720 O   0  0  0  0  0  0  0  0  0  0  0  0
    9.0110   13.1600   24.7270 C   0  0  0  0  0  0  0  0  0  0  0  0
    8.0440   12.0420   25.0640 C   0  0  0  0  0  0  0  0  0  0  0  0
    8.2860   10.7470   24.6130 C   0  0  0  0  0  0  0  0  0  0  0  0
    9.3650   10.6160   23.7800 O   0  0  0  0  0  0  0  0  0  0  0  0
    9.6710    9.3150   23.3030 C   0  0  0  0  0  0  0  0  0  0  0  0
    7.0070   12.2340   25.9800 C   0  0  0  0  0  0  0  0  0  0  0  0
    6.2410   11.1720   26.4270 C   0  0  0  0  0  0  0  0  0  0  0  0
    6.4880    9.9050   25.9710 C   0  0  0  0  0  0  0  0  0  0  0  0
    7.5090    9.6810   25.0530 C   0  0  0  0  0  0  0  0  0  0  0  0
 17 16  1  0
 16 15  1  0
 15 21  2  0
 21 20  1  0
 20 19  2  0
 19 18  1  0
 18 14  2  0
 15 14  1  0
 14 13  1  0
 13 11  1  0
 12 11  2  0
 11 10  1  0
 10  8  1  0
  8  7  1  0
  7  6  1  0
  6  5  1  0
  5  4  1  0
  4  2  1  6
  3  2  1  0
  2  1  2  0
  9  4  1  0
 10  9  1  0
M  END
>  <smiles>  (71) 
COc1ccccc1CC(=O)N1CCCC[C@H](C(N)=O)C1

>  <inchikey>  (71) 
WNIBIMVZSUHHEM-ZDUSSCGKSA-N

>  <alias>  (71) 
A3571b

$$$$
A3575a
     RDKit          3D

 22 23  0  0  0  0  0  0  0  0999 V2000
   10.4030   16.8070   19.1600 O   0  0  0  0  0  0  0  0  0  0  0  0
   10.7160   15.6340   19.4070 C   0  0  0  0  0  0  0  0  0  0  0  0
   10.9810   14.7420   18.4710 N   0  0  0  0  0  0  0  0  0  0  0  0
   10.8400   15.1420   20.8380 C   0  0  1  0  0  0  0  0  0  0  0  0
   12.0140   15.8180   21.5710 C   0  0  0  0  0  0  0  0  0  0  0  0
   12.0970   15.4200   23.0510 C   0  0  0  0  0  0  0  0  0  0  0  0
   10.7470   15.5270   23.7410 C   0  0  0  0  0  0  0  0  0  0  0  0
    9.5520   15.4130   21.6050 C   0  0  0  0  0  0  0  0  0  0  0  0
    9.7050   14.8560   22.9490 N   0  0  0  0  0  0  0  0  0  0  0  0
    8.9810   13.7800   23.3150 C   0  0  0  0  0  0  0  0  0  0  0  0
    8.0580   13.3530   22.6370 O   0  0  0  0  0  0  0  0  0  0  0  0
    9.3720   13.1320   24.6280 C   0  0  0  0  0  0  0  0  0  0  0  0
    8.5320   11.9060   24.8900 C   0  0  0  0  0  0  0  0  0  0  0  0
    7.4070   11.9610   25.7130 C   0  0  0  0  0  0  0  0  0  0  0  0
    7.0560   13.1690   26.2910 O   0  0  0  0  0  0  0  0  0  0  0  0
    6.0870   13.9690   25.6040 C   0  0  0  0  0  0  0  0  0  0  0  0
    8.8570   10.6870   24.2960 C   0  0  0  0  0  0  0  0  0  0  0  0
    8.1100    9.5530   24.5500 C   0  0  0  0  0  0  0  0  0  0  0  0
    7.0090    9.6150   25.3870 C   0  0  0  0  0  0  0  0  0  0  0  0
    6.6290   10.8280   25.9640 C   0  0  0  0  0  0  0  0  0  0  0  0
    5.3920   10.9050   26.6900 C   0  0  0  0  0  0  0  0  0  0  0  0
    4.4110   11.0160   27.2650 N   0  0  0  0  0  0  0  0  0  0  0  0
 16 15  1  0
 15 14  1  0
 14 20  2  0
 21 20  1  0
 22 21  3  0
 20 19  1  0
 19 18  2  0
 18 17  1  0
 17 13  2  0
 14 13  1  0
 13 12  1  0
 12 10  1  0
 11 10  2  0
 10  9  1  0
  9  7  1  0
  7  6  1  0
  6  5  1  0
  5  4  1  0
  4  2  1  6
  3  2  1  0
  2  1  2  0
  8  4  1  0
  9  8  1  0
M  END
>  <smiles>  (72) 
COc1c(C#N)cccc1CC(=O)N1CCC[C@H](C(N)=O)C1

>  <inchikey>  (72) 
VDGDDJZRHZPZCA-ZDUSSCGKSA-N

>  <alias>  (72) 
A3575a

$$$$
A3849a
     RDKit          3D

 20 21  0  0  0  0  0  0  0  0999 V2000
   10.1420   16.8580   19.0610 O   0  0  0  0  0  0  0  0  0  0  0  0
   10.5860   15.8210   19.5570 C   0  0  0  0  0  0  0  0  0  0  0  0
   11.0170   14.8010   18.8200 N   0  0  0  0  0  0  0  0  0  0  0  0
   10.6340   15.6410   21.0660 C   0  0  2  0  0  0  0  0  0  0  0  0
   12.0760   15.6220   21.5850 C   0  0  0  0  0  0  0  0  0  0  0  0
   12.0900   15.3660   23.0890 C   0  0  0  0  0  0  0  0  0  0  0  0
   11.3960   14.0490   23.4090 C   0  0  0  0  0  0  0  0  0  0  0  0
    9.8710   14.3660   21.4370 C   0  0  0  0  0  0  0  0  0  0  0  0
   10.0350   13.9680   22.8400 N   0  0  0  0  0  0  0  0  0  0  0  0
    9.0160   13.2960   23.4310 C   0  0  0  0  0  0  0  0  0  0  0  0
    7.9650   13.0340   22.8390 O   0  0  0  0  0  0  0  0  0  0  0  0
    9.2720   12.7720   24.8330 C   0  0  0  0  0  0  0  0  0  0  0  0
    8.2870   11.6930   25.2250 C   0  0  0  0  0  0  0  0  0  0  0  0
    8.3150   10.3870   24.7050 C   0  0  0  0  0  0  0  0  0  0  0  0
    9.2890   10.1680   23.8000 O   0  0  0  0  0  0  0  0  0  0  0  0
    9.5390    8.8190   23.3870 C   0  0  0  0  0  0  0  0  0  0  0  0
    7.2920   11.9520   26.1640 C   0  0  0  0  0  0  0  0  0  0  0  0
    6.4130   10.9560   26.5420 C   0  0  0  0  0  0  0  0  0  0  0  0
    6.5340    9.7200   25.9580 C   0  0  0  0  0  0  0  0  0  0  0  0
    7.4690    9.4220   25.0450 N   0  0  0  0  0  0  0  0  0  0  0  0
 16 15  1  0
 15 14  1  0
 14 20  2  0
 20 19  1  0
 19 18  2  0
 18 17  1  0
 17 13  2  0
 14 13  1  0
 13 12  1  0
 12 10  1  0
 11 10  2  0
 10  9  1  0
  9  7  1  0
  7  6  1  0
  6  5  1  0
  5  4  1  0
  4  2  1  6
  3  2  1  0
  2  1  2  0
  8  4  1  0
  9  8  1  0
M  END
>  <smiles>  (73) 
COc1ncccc1CC(=O)N1CCC[C@@H](C(N)=O)C1

>  <inchikey>  (73) 
DPQNQDXNIINHJH-LLVKDONJSA-N

>  <alias>  (73) 
A3849a

$$$$
A3858a
     RDKit          3D

 21 22  0  0  0  0  0  0  0  0999 V2000
   10.1450   16.8860   19.0250 O   0  0  0  0  0  0  0  0  0  0  0  0
   10.5260   15.8250   19.4980 C   0  0  0  0  0  0  0  0  0  0  0  0
   10.8800   14.7860   18.7230 N   0  0  0  0  0  0  0  0  0  0  0  0
   10.5850   15.6400   21.0040 C   0  0  2  0  0  0  0  0  0  0  0  0
   12.0150   15.6020   21.5360 C   0  0  0  0  0  0  0  0  0  0  0  0
   11.9980   15.4030   23.0480 C   0  0  0  0  0  0  0  0  0  0  0  0
   11.1680   14.1860   23.4360 C   0  0  0  0  0  0  0  0  0  0  0  0
    9.7320   14.4510   21.3970 C   0  0  0  0  0  0  0  0  0  0  0  0
    9.8170   14.1600   22.8320 N   0  0  0  0  0  0  0  0  0  0  0  0
    8.7290   13.5430   23.3520 C   0  0  0  0  0  0  0  0  0  0  0  0
    7.7050   13.3210   22.6960 O   0  0  0  0  0  0  0  0  0  0  0  0
    8.9000   13.0040   24.7530 C   0  0  0  0  0  0  0  0  0  0  0  0
    7.7850   12.0310   25.0540 C   0  0  0  0  0  0  0  0  0  0  0  0
    7.8940   10.6990   24.6230 C   0  0  0  0  0  0  0  0  0  0  0  0
    8.9380   10.4500   23.7590 O   0  0  0  0  0  0  0  0  0  0  0  0
    9.1800    9.0860   23.3550 C   0  0  0  0  0  0  0  0  0  0  0  0
    6.7000   12.3630   25.8720 C   0  0  0  0  0  0  0  0  0  0  0  0
    6.3750   14.0150   26.3080 Cl  0  0  0  0  0  0  0  0  0  0  0  0
    5.8170   11.4150   26.3310 C   0  0  0  0  0  0  0  0  0  0  0  0
    5.9780   10.1030   25.9390 C   0  0  0  0  0  0  0  0  0  0  0  0
    7.0110    9.7370   25.0760 C   0  0  0  0  0  0  0  0  0  0  0  0
 16 15  1  0
 15 14  1  0
 14 21  2  0
 21 20  1  0
 20 19  2  0
 19 17  1  0
 18 17  1  0
 17 13  2  0
 14 13  1  0
 13 12  1  0
 12 10  1  0
 11 10  2  0
 10  9  1  0
  9  7  1  0
  7  6  1  0
  6  5  1  0
  5  4  1  0
  4  2  1  6
  3  2  1  0
  2  1  2  0
  8  4  1  0
  9  8  1  0
M  END
>  <smiles>  (74) 
COc1cccc(Cl)c1CC(=O)N1CCC[C@@H](C(N)=O)C1

>  <inchikey>  (74) 
NHPQEFHMDYOTOA-SNVBAGLBSA-N

>  <alias>  (74) 
A3858a

$$$$
A3858b
     RDKit          3D

 21 22  0  0  0  0  0  0  0  0999 V2000
   10.2510   16.8980   19.0220 O   0  0  0  0  0  0  0  0  0  0  0  0
   10.6460   15.8430   19.4800 C   0  0  0  0  0  0  0  0  0  0  0  0
   10.9610   14.8050   18.6980 N   0  0  0  0  0  0  0  0  0  0  0  0
   10.7570   15.6720   20.9830 C   0  0  2  0  0  0  0  0  0  0  0  0
   12.1990   15.6570   21.4730 C   0  0  0  0  0  0  0  0  0  0  0  0
   12.2390   15.4650   22.9860 C   0  0  0  0  0  0  0  0  0  0  0  0
   11.4670   14.2250   23.3970 C   0  0  0  0  0  0  0  0  0  0  0  0
    9.9270   14.4860   21.4290 C   0  0  0  0  0  0  0  0  0  0  0  0
   10.0950   14.1950   22.8550 N   0  0  0  0  0  0  0  0  0  0  0  0
    9.0650   13.5230   23.4170 C   0  0  0  0  0  0  0  0  0  0  0  0
    7.9860   13.3060   22.8250 O   0  0  0  0  0  0  0  0  0  0  0  0
    9.3490   12.9510   24.7880 C   0  0  0  0  0  0  0  0  0  0  0  0
    8.2320   11.9940   25.1370 C   0  0  0  0  0  0  0  0  0  0  0  0
    8.2750   10.6670   24.6760 C   0  0  0  0  0  0  0  0  0  0  0  0
    9.2760   10.3930   23.7750 O   0  0  0  0  0  0  0  0  0  0  0  0
    9.4370    9.0290   23.3370 C   0  0  0  0  0  0  0  0  0  0  0  0
    7.2050   12.3420   26.0240 C   0  0  0  0  0  0  0  0  0  0  0  0
    7.1200   13.9660   26.6480 Cl  0  0  0  0  0  0  0  0  0  0  0  0
    6.2920   11.4230   26.4840 C   0  0  0  0  0  0  0  0  0  0  0  0
    6.3860   10.1140   26.0610 C   0  0  0  0  0  0  0  0  0  0  0  0
    7.3660    9.7290   25.1500 C   0  0  0  0  0  0  0  0  0  0  0  0
 16 15  1  0
 15 14  1  0
 14 21  2  0
 21 20  1  0
 20 19  2  0
 19 17  1  0
 18 17  1  0
 17 13  2  0
 14 13  1  0
 13 12  1  0
 12 10  1  0
 11 10  2  0
 10  9  1  0
  9  7  1  0
  7  6  1  0
  6  5  1  0
  5  4  1  0
  4  2  1  6
  3  2  1  0
  2  1  2  0
  8  4  1  0
  9  8  1  0
M  END
>  <smiles>  (75) 
COc1cccc(Cl)c1CC(=O)N1CCC[C@@H](C(N)=O)C1

>  <inchikey>  (75) 
NHPQEFHMDYOTOA-SNVBAGLBSA-N

>  <alias>  (75) 
A3858b

$$$$
A3869a
     RDKit          3D

 20 21  0  0  0  0  0  0  0  0999 V2000
   10.2100   16.8620   19.1130 O   0  0  0  0  0  0  0  0  0  0  0  0
   10.6050   15.7930   19.5860 C   0  0  0  0  0  0  0  0  0  0  0  0
   11.0370   14.7890   18.8270 N   0  0  0  0  0  0  0  0  0  0  0  0
   10.6430   15.5710   21.0900 C   0  0  2  0  0  0  0  0  0  0  0  0
   12.0880   15.5590   21.6050 C   0  0  0  0  0  0  0  0  0  0  0  0
   12.1320   15.2810   23.1050 C   0  0  0  0  0  0  0  0  0  0  0  0
   11.4650   13.9500   23.4180 C   0  0  0  0  0  0  0  0  0  0  0  0
    9.9520   14.2490   21.4390 C   0  0  0  0  0  0  0  0  0  0  0  0
   10.1100   13.8550   22.8460 N   0  0  0  0  0  0  0  0  0  0  0  0
    9.0750   13.2410   23.4700 C   0  0  0  0  0  0  0  0  0  0  0  0
    8.0100   13.0190   22.9050 O   0  0  0  0  0  0  0  0  0  0  0  0
    9.3140   12.7440   24.8860 C   0  0  0  0  0  0  0  0  0  0  0  0
    8.3440   11.6450   25.2650 C   0  0  0  0  0  0  0  0  0  0  0  0
    8.3780   10.3390   24.7270 C   0  0  0  0  0  0  0  0  0  0  0  0
    9.3740   10.1210   23.8350 O   0  0  0  0  0  0  0  0  0  0  0  0
    9.5740    8.7890   23.3580 C   0  0  0  0  0  0  0  0  0  0  0  0
    7.3300   11.8970   26.1880 C   0  0  0  0  0  0  0  0  0  0  0  0
    6.4370   10.9030   26.5360 C   0  0  0  0  0  0  0  0  0  0  0  0
    6.5720    9.6700   25.9500 C   0  0  0  0  0  0  0  0  0  0  0  0
    7.5250    9.3750   25.0490 N   0  0  0  0  0  0  0  0  0  0  0  0
 16 15  1  0
 15 14  1  0
 14 20  2  0
 20 19  1  0
 19 18  2  0
 18 17  1  0
 17 13  2  0
 14 13  1  0
 13 12  1  0
 12 10  1  0
 11 10  2  0
 10  9  1  0
  9  7  1  0
  7  6  1  0
  6  5  1  0
  5  4  1  0
  4  2  1  6
  3  2  1  0
  2  1  2  0
  8  4  1  0
  9  8  1  0
M  END
>  <smiles>  (76) 
COc1ncccc1CC(=O)N1CCC[C@@H](C(N)=O)C1

>  <inchikey>  (76) 
DPQNQDXNIINHJH-LLVKDONJSA-N

>  <alias>  (76) 
A3869a

$$$$
A3883a
     RDKit          3D

 22 23  0  0  0  0  0  0  0  0999 V2000
   10.2520   16.5820   19.0510 O   0  0  0  0  0  0  0  0  0  0  0  0
   10.6550   15.4380   19.3070 C   0  0  0  0  0  0  0  0  0  0  0  0
   11.0780   14.5940   18.3790 N   0  0  0  0  0  0  0  0  0  0  0  0
   10.6890   14.9220   20.7340 C   0  0  1  0  0  0  0  0  0  0  0  0
   11.7720   15.6270   21.5860 C   0  0  0  0  0  0  0  0  0  0  0  0
   11.8050   15.0220   22.9860 C   0  0  0  0  0  0  0  0  0  0  0  0
   10.4390   15.1200   23.6470 C   0  0  0  0  0  0  0  0  0  0  0  0
    9.3340   15.0720   21.4210 C   0  0  0  0  0  0  0  0  0  0  0  0
    9.3900   14.5360   22.7890 N   0  0  0  0  0  0  0  0  0  0  0  0
    8.4580   13.6610   23.2300 C   0  0  0  0  0  0  0  0  0  0  0  0
    7.5540   13.2860   22.5140 O   0  0  0  0  0  0  0  0  0  0  0  0
    8.4770   13.2910   24.7290 C   0  0  1  0  0  0  0  0  0  0  0  0
    8.2390   14.4170   25.5810 O   0  0  0  0  0  0  0  0  0  0  0  0
    7.1770   15.2490   25.1360 C   0  0  0  0  0  0  0  0  0  0  0  0
    7.5530   12.1410   25.0790 C   0  0  0  0  0  0  0  0  0  0  0  0
    7.8300   10.8370   24.6740 C   0  0  0  0  0  0  0  0  0  0  0  0
    8.9180   10.6970   23.8480 O   0  0  0  0  0  0  0  0  0  0  0  0
    9.2880    9.3640   23.4410 C   0  0  0  0  0  0  0  0  0  0  0  0
    6.4770   12.3490   25.9390 C   0  0  0  0  0  0  0  0  0  0  0  0
    5.7010   11.2980   26.3920 C   0  0  0  0  0  0  0  0  0  0  0  0
    5.9770   10.0210   25.9810 C   0  0  0  0  0  0  0  0  0  0  0  0
    7.0430    9.7790   25.1230 C   0  0  0  0  0  0  0  0  0  0  0  0
 18 17  1  0
 17 16  1  0
 16 22  2  0
 22 21  1  0
 21 20  2  0
 20 19  1  0
 19 15  2  0
 16 15  1  0
 15 12  1  0
 12 13  1  1
 14 13  1  0
 12 10  1  0
 11 10  2  0
 10  9  1  0
  9  7  1  0
  7  6  1  0
  6  5  1  0
  5  4  1  0
  4  2  1  6
  3  2  1  0
  2  1  2  0
  8  4  1  0
  9  8  1  0
M  END
>  <smiles>  (77) 
COc1ccccc1[C@H](OC)C(=O)N1CCC[C@H](C(N)=O)C1

>  <inchikey>  (77) 
SGKREISFYQPEPI-FZMZJTMJSA-N

>  <alias>  (77) 
A3883a

$$$$
A3897a
     RDKit          3D

 20 21  0  0  0  0  0  0  0  0999 V2000
   10.1860   16.9570   19.1200 O   0  0  0  0  0  0  0  0  0  0  0  0
   10.5480   15.8800   19.5930 C   0  0  0  0  0  0  0  0  0  0  0  0
   10.9020   14.8490   18.8220 N   0  0  0  0  0  0  0  0  0  0  0  0
   10.6250   15.6840   21.0980 C   0  0  2  0  0  0  0  0  0  0  0  0
   12.0650   15.7140   21.5970 C   0  0  0  0  0  0  0  0  0  0  0  0
   12.0980   15.5720   23.1160 C   0  0  0  0  0  0  0  0  0  0  0  0
   11.3990   14.2900   23.5770 C   0  0  0  0  0  0  0  0  0  0  0  0
    9.9330   14.3960   21.5360 C   0  0  0  0  0  0  0  0  0  0  0  0
   10.0630   14.1330   22.9750 N   0  0  0  0  0  0  0  0  0  0  0  0
    9.0100   13.4950   23.5360 C   0  0  0  0  0  0  0  0  0  0  0  0
    7.9680   13.2540   22.9230 O   0  0  0  0  0  0  0  0  0  0  0  0
    9.2450   12.9400   24.9250 C   0  0  0  0  0  0  0  0  0  0  0  0
    8.1730   11.9320   25.2720 C   0  0  0  0  0  0  0  0  0  0  0  0
    8.1880   10.6310   24.7550 C   0  0  0  0  0  0  0  0  0  0  0  0
    9.1170   10.4050   23.7760 O   0  0  0  0  0  0  0  0  0  0  0  0
    9.4200    9.0500   23.4100 C   0  0  0  0  0  0  0  0  0  0  0  0
    7.1440   12.2310   26.1340 C   0  0  0  0  0  0  0  0  0  0  0  0
    6.2080   11.3690   26.5350 N   0  0  0  0  0  0  0  0  0  0  0  0
    6.2840   10.1250   26.0670 C   0  0  0  0  0  0  0  0  0  0  0  0
    7.2460    9.7030   25.1630 C   0  0  0  0  0  0  0  0  0  0  0  0
 16 15  1  0
 15 14  1  0
 14 20  2  0
 20 19  1  0
 19 18  2  0
 18 17  1  0
 17 13  2  0
 14 13  1  0
 13 12  1  0
 12 10  1  0
 11 10  2  0
 10  9  1  0
  9  7  1  0
  7  6  1  0
  6  5  1  0
  5  4  1  0
  4  2  1  6
  3  2  1  0
  2  1  2  0
  8  4  1  0
  9  8  1  0
M  END
>  <smiles>  (78) 
COc1ccncc1CC(=O)N1CCC[C@@H](C(N)=O)C1

>  <inchikey>  (78) 
ZKUXUDCBALXGFV-SNVBAGLBSA-N

>  <alias>  (78) 
A3897a

$$$$
A3901a
     RDKit          3D

 20 21  0  0  0  0  0  0  0  0999 V2000
   10.3420   16.5670   18.9220 O   0  0  0  0  0  0  0  0  0  0  0  0
   10.6810   15.4120   19.1960 C   0  0  0  0  0  0  0  0  0  0  0  0
   11.0640   14.5290   18.2910 N   0  0  0  0  0  0  0  0  0  0  0  0
   10.6830   14.9390   20.6440 C   0  0  1  0  0  0  0  0  0  0  0  0
   11.6890   15.6430   21.4730 N   0  0  0  0  0  0  0  0  0  0  0  0
   11.7460   15.0630   22.8190 C   0  0  0  0  0  0  0  0  0  0  0  0
   10.3910   15.1310   23.5000 C   0  0  0  0  0  0  0  0  0  0  0  0
    9.2990   15.0250   21.2750 C   0  0  0  0  0  0  0  0  0  0  0  0
    9.3640   14.5100   22.6450 N   0  0  0  0  0  0  0  0  0  0  0  0
    8.4960   13.5730   23.0750 C   0  0  0  0  0  0  0  0  0  0  0  0
    7.5280   13.2490   22.4200 O   0  0  0  0  0  0  0  0  0  0  0  0
    8.7290   13.0420   24.4780 C   0  0  0  0  0  0  0  0  0  0  0  0
    7.6860   12.0390   24.9130 C   0  0  0  0  0  0  0  0  0  0  0  0
    7.8400   10.7030   24.5550 C   0  0  0  0  0  0  0  0  0  0  0  0
    8.8610   10.4690   23.6690 O   0  0  0  0  0  0  0  0  0  0  0  0
    9.2040    9.1120   23.3730 C   0  0  0  0  0  0  0  0  0  0  0  0
    6.6710   12.3750   25.8050 C   0  0  0  0  0  0  0  0  0  0  0  0
    5.8510   11.4030   26.3530 C   0  0  0  0  0  0  0  0  0  0  0  0
    6.0220   10.0870   26.0010 C   0  0  0  0  0  0  0  0  0  0  0  0
    7.0090    9.7280   25.0910 C   0  0  0  0  0  0  0  0  0  0  0  0
 16 15  1  0
 15 14  1  0
 14 20  2  0
 20 19  1  0
 19 18  2  0
 18 17  1  0
 17 13  2  0
 14 13  1  0
 13 12  1  0
 12 10  1  0
 11 10  2  0
 10  9  1  0
  9  7  1  0
  7  6  1  0
  6  5  1  0
  5  4  1  0
  4  2  1  6
  3  2  1  0
  2  1  2  0
  8  4  1  0
  9  8  1  0
M  END
>  <smiles>  (79) 
COc1ccccc1CC(=O)N1CCN[C@H](C(N)=O)C1

>  <inchikey>  (79) 
DRNIUJKTSBJJIK-NSHDSACASA-N

>  <alias>  (79) 
A3901a

$$$$
A3914a
     RDKit          3D

 22 24  0  0  0  0  0  0  0  0999 V2000
   10.5450   16.6190   19.0670 O   0  0  0  0  0  0  0  0  0  0  0  0
   10.7700   15.4470   19.3800 C   0  0  0  0  0  0  0  0  0  0  0  0
   11.1200   14.5270   18.4970 N   0  0  0  0  0  0  0  0  0  0  0  0
   10.7400   14.9990   20.8320 C   0  0  1  0  0  0  0  0  0  0  0  0
   11.8400   15.7090   21.6390 C   0  0  0  0  0  0  0  0  0  0  0  0
   11.8290   15.3120   23.1180 C   0  0  0  0  0  0  0  0  0  0  0  0
   10.4460   15.5020   23.7090 C   0  0  0  0  0  0  0  0  0  0  0  0
    9.3750   15.1820   21.5110 C   0  0  0  0  0  0  0  0  0  0  0  0
    9.4350   14.7760   22.9190 N   0  0  0  0  0  0  0  0  0  0  0  0
    8.5600   13.8770   23.4340 C   0  0  0  0  0  0  0  0  0  0  0  0
    7.7760   13.2540   22.7260 O   0  0  0  0  0  0  0  0  0  0  0  0
    8.5480   13.7120   24.9440 C   0  0  0  0  0  0  0  0  0  0  0  0
    7.8480   12.4430   25.3880 C   0  0  0  0  0  0  0  0  0  0  0  0
    6.8440   12.4940   26.3580 C   0  0  0  0  0  0  0  0  0  0  0  0
    6.1830   11.3480   26.7780 C   0  0  0  0  0  0  0  0  0  0  0  0
    6.4980   10.1140   26.2270 C   0  0  0  0  0  0  0  0  0  0  0  0
    7.5060   10.0200   25.2490 C   0  0  0  0  0  0  0  0  0  0  0  0
    8.1960   11.1840   24.8480 C   0  0  0  0  0  0  0  0  0  0  0  0
    9.1940   10.7170   23.9490 C   0  0  0  0  0  0  0  0  0  0  0  0
    8.0030    8.8990   24.6110 N   0  0  0  0  0  0  0  0  0  0  0  0
    9.0250    9.3950   23.8550 N   0  0  0  0  0  0  0  0  0  0  0  0
    9.7990    8.5160   22.9790 C   0  0  0  0  0  0  0  0  0  0  0  0
 22 21  1  0
 21 19  1  0
 19 18  2  0
 18 13  1  0
 13 12  1  0
 12 10  1  0
 11 10  2  0
 10  9  1  0
  9  7  1  0
  7  6  1  0
  6  5  1  0
  5  4  1  0
  4  2  1  6
  3  2  1  0
  2  1  2  0
  8  4  1  0
  9  8  1  0
 14 13  2  0
 15 14  1  0
 16 15  2  0
 17 16  1  0
 18 17  1  0
 20 17  2  0
 21 20  1  0
M  END
>  <smiles>  (80) 
Cn1cc2c(CC(=O)N3CCC[C@H](C(N)=O)C3)cccc2n1

>  <inchikey>  (80) 
GWEIDNCYZCGNCA-LBPRGKRZSA-N

>  <alias>  (80) 
A3914a

$$$$
A3920a
     RDKit          3D

 20 21  0  0  0  0  0  0  0  0999 V2000
   10.3410   16.5400   19.1910 O   0  0  0  0  0  0  0  0  0  0  0  0
   10.7600   15.3990   19.4130 C   0  0  0  0  0  0  0  0  0  0  0  0
   11.1500   14.5780   18.4530 N   0  0  0  0  0  0  0  0  0  0  0  0
   10.8480   14.8550   20.8290 C   0  0  1  0  0  0  0  0  0  0  0  0
   12.0530   15.4470   21.5800 C   0  0  0  0  0  0  0  0  0  0  0  0
   12.1420   14.9360   23.0250 C   0  0  0  0  0  0  0  0  0  0  0  0
   10.8180   15.1110   23.7560 C   0  0  0  0  0  0  0  0  0  0  0  0
    9.5690   15.0860   21.6380 C   0  0  0  0  0  0  0  0  0  0  0  0
    9.7160   14.5180   22.9800 N   0  0  0  0  0  0  0  0  0  0  0  0
    8.9030   13.5270   23.4010 C   0  0  0  0  0  0  0  0  0  0  0  0
    7.9670   13.1250   22.7230 O   0  0  0  0  0  0  0  0  0  0  0  0
    9.2050   12.9370   24.7670 C   0  0  0  0  0  0  0  0  0  0  0  0
    8.2400   11.8360   25.1530 C   0  0  0  0  0  0  0  0  0  0  0  0
    8.2820   10.5290   24.6220 C   0  0  0  0  0  0  0  0  0  0  0  0
    9.2850   10.3050   23.7440 O   0  0  0  0  0  0  0  0  0  0  0  0
    9.5570    8.9530   23.3650 C   0  0  0  0  0  0  0  0  0  0  0  0
    7.2690   12.0650   26.1250 C   0  0  0  0  0  0  0  0  0  0  0  0
    6.4170   11.0510   26.5200 C   0  0  0  0  0  0  0  0  0  0  0  0
    6.5470    9.8210   25.9230 C   0  0  0  0  0  0  0  0  0  0  0  0
    7.4590    9.5490   24.9750 N   0  0  0  0  0  0  0  0  0  0  0  0
 16 15  1  0
 15 14  1  0
 14 20  2  0
 20 19  1  0
 19 18  2  0
 18 17  1  0
 17 13  2  0
 14 13  1  0
 13 12  1  0
 12 10  1  0
 11 10  2  0
 10  9  1  0
  9  7  1  0
  7  6  1  0
  6  5  1  0
  5  4  1  0
  4  2  1  6
  3  2  1  0
  2  1  2  0
  8  4  1  0
  9  8  1  0
M  END
>  <smiles>  (81) 
COc1ncccc1CC(=O)N1CCC[C@H](C(N)=O)C1

>  <inchikey>  (81) 
DPQNQDXNIINHJH-NSHDSACASA-N

>  <alias>  (81) 
A3920a

$$$$
A3936a
     RDKit          3D

 20 21  0  0  0  0  0  0  0  0999 V2000
    9.8390   16.3460   19.3560 O   0  0  0  0  0  0  0  0  0  0  0  0
   10.3050   15.2200   19.5590 C   0  0  0  0  0  0  0  0  0  0  0  0
   10.8150   14.4570   18.5940 N   0  0  0  0  0  0  0  0  0  0  0  0
   10.3640   14.6430   20.9600 C   0  0  1  0  0  0  0  0  0  0  0  0
   11.5620   15.2080   21.7590 C   0  0  0  0  0  0  0  0  0  0  0  0
   11.6240   14.5670   23.1440 C   0  0  0  0  0  0  0  0  0  0  0  0
   10.3110   14.8020   23.8680 C   0  0  0  0  0  0  0  0  0  0  0  0
    9.0740   14.8740   21.7500 C   0  0  0  0  0  0  0  0  0  0  0  0
    9.1940   14.2580   23.0770 N   0  0  0  0  0  0  0  0  0  0  0  0
    8.3730   13.2630   23.4590 C   0  0  0  0  0  0  0  0  0  0  0  0
    7.4280   12.9480   22.7630 O   0  0  0  0  0  0  0  0  0  0  0  0
    8.5370   12.5230   24.7930 C   0  0  2  0  0  0  0  0  0  0  0  0
    9.6130   11.4580   24.7540 C   0  0  0  0  0  0  0  0  0  0  0  0
    9.3490   10.5540   23.7050 O   0  0  0  0  0  0  0  0  0  0  0  0
    9.8220    9.2740   23.9800 C   0  0  0  0  0  0  0  0  0  0  0  0
    7.3140   11.7910   25.0200 O   0  0  0  0  0  0  0  0  0  0  0  0
    6.3160   12.2800   25.9380 C   0  0  0  0  0  0  0  0  0  0  0  0
    6.2320   13.8010   26.0620 C   0  0  0  0  0  0  0  0  0  0  0  0
    7.6060   14.4820   26.0950 C   0  0  0  0  0  0  0  0  0  0  0  0
    8.7450   13.4760   25.9660 C   0  0  0  0  0  0  0  0  0  0  0  0
 15 14  1  0
 14 13  1  0
 12 13  1  6
 12 10  1  0
 11 10  2  0
 10  9  1  0
  9  7  1  0
  7  6  1  0
  6  5  1  0
  5  4  1  0
  4  2  1  6
  3  2  1  0
  2  1  2  0
  8  4  1  0
  9  8  1  0
 12 20  1  0
 20 19  1  0
 19 18  1  0
 18 17  1  0
 17 16  1  0
 16 12  1  0
M  END
>  <smiles>  (82) 
COC[C@]1(C(=O)N2CCC[C@H](C(N)=O)C2)CCCCO1

>  <inchikey>  (82) 
UHSOMRQQUOKZEB-FZMZJTMJSA-N

>  <alias>  (82) 
A3936a

$$$$
A3940a
     RDKit          3D

 21 22  0  0  0  0  0  0  0  0999 V2000
   10.5800   16.7390   19.2630 O   0  0  0  0  0  0  0  0  0  0  0  0
   10.9870   15.6120   19.5530 C   0  0  0  0  0  0  0  0  0  0  0  0
   11.4150   14.7490   18.6470 N   0  0  0  0  0  0  0  0  0  0  0  0
   11.0230   15.1340   20.9950 C   0  0  1  0  0  0  0  0  0  0  0  0
   12.0010   15.9740   21.8310 C   0  0  0  0  0  0  0  0  0  0  0  0
   12.0580   15.4910   23.2820 C   0  0  0  0  0  0  0  0  0  0  0  0
   10.6690   15.4790   23.8980 C   0  0  0  0  0  0  0  0  0  0  0  0
    9.6470   15.1850   21.6680 C   0  0  0  0  0  0  0  0  0  0  0  0
    9.7280   14.7240   23.0580 N   0  0  0  0  0  0  0  0  0  0  0  0
    8.9350   13.7240   23.5040 C   0  0  0  0  0  0  0  0  0  0  0  0
    8.0230   13.2710   22.8300 O   0  0  0  0  0  0  0  0  0  0  0  0
    9.2130   13.2000   24.9010 C   0  0  0  0  0  0  0  0  0  0  0  0
    8.2500   12.1090   25.3110 C   0  0  0  0  0  0  0  0  0  0  0  0
    8.4330   10.7920   24.8810 C   0  0  0  0  0  0  0  0  0  0  0  0
    9.5170   10.5960   24.0680 O   0  0  0  0  0  0  0  0  0  0  0  0
    9.6570    9.3270   23.4310 C   0  0  0  0  0  0  0  0  0  0  0  0
    7.1980   12.3850   26.1820 C   0  0  0  0  0  0  0  0  0  0  0  0
    6.3730   11.3670   26.6100 C   0  0  0  0  0  0  0  0  0  0  0  0
    5.0760   11.7380   27.7130 Cl  0  0  0  0  0  0  0  0  0  0  0  0
    6.5510   10.0690   26.1890 C   0  0  0  0  0  0  0  0  0  0  0  0
    7.5840    9.7790   25.3140 C   0  0  0  0  0  0  0  0  0  0  0  0
 16 15  1  0
 15 14  1  0
 14 21  2  0
 21 20  1  0
 20 18  2  0
 19 18  1  0
 18 17  1  0
 17 13  2  0
 14 13  1  0
 13 12  1  0
 12 10  1  0
 11 10  2  0
 10  9  1  0
  9  7  1  0
  7  6  1  0
  6  5  1  0
  5  4  1  0
  4  2  1  6
  3  2  1  0
  2  1  2  0
  8  4  1  0
  9  8  1  0
M  END
>  <smiles>  (83) 
COc1ccc(Cl)cc1CC(=O)N1CCC[C@H](C(N)=O)C1

>  <inchikey>  (83) 
WOSHQSSTXNWEDB-JTQLQIEISA-N

>  <alias>  (83) 
A3940a

$$$$
A3942a
     RDKit          3D

 21 22  0  0  0  0  0  0  0  0999 V2000
   10.3840   16.6790   19.1660 O   0  0  0  0  0  0  0  0  0  0  0  0
   10.7820   15.5370   19.4170 C   0  0  0  0  0  0  0  0  0  0  0  0
   11.1280   14.6690   18.4790 N   0  0  0  0  0  0  0  0  0  0  0  0
   10.8620   15.0310   20.8470 C   0  0  1  0  0  0  0  0  0  0  0  0
   11.9670   15.7430   21.6470 C   0  0  0  0  0  0  0  0  0  0  0  0
   12.0180   15.2470   23.0950 C   0  0  0  0  0  0  0  0  0  0  0  0
   10.6580   15.3790   23.7580 C   0  0  0  0  0  0  0  0  0  0  0  0
    9.5290   15.2370   21.5710 C   0  0  0  0  0  0  0  0  0  0  0  0
    9.6280   14.7240   22.9370 N   0  0  0  0  0  0  0  0  0  0  0  0
    8.8580   13.6920   23.3300 C   0  0  0  0  0  0  0  0  0  0  0  0
    7.8920   13.3140   22.6810 O   0  0  0  0  0  0  0  0  0  0  0  0
    9.2710   13.0040   24.6150 C   0  0  0  0  0  0  0  0  0  0  0  0
    8.1810   12.0870   25.1100 C   0  0  0  0  0  0  0  0  0  0  0  0
    8.1510   10.7500   24.6910 C   0  0  0  0  0  0  0  0  0  0  0  0
    9.0810   10.4260   23.7370 O   0  0  0  0  0  0  0  0  0  0  0  0
    9.3790    9.0450   23.5230 C   0  0  0  0  0  0  0  0  0  0  0  0
    7.1910   12.5190   25.9950 C   0  0  0  0  0  0  0  0  0  0  0  0
    7.0800   14.2140   26.3940 Cl  0  0  0  0  0  0  0  0  0  0  0  0
    6.2390   11.6550   26.5050 C   0  0  0  0  0  0  0  0  0  0  0  0
    6.2440   10.3310   26.1010 C   0  0  0  0  0  0  0  0  0  0  0  0
    7.1900    9.8760   25.1910 C   0  0  0  0  0  0  0  0  0  0  0  0
 16 15  1  0
 15 14  1  0
 14 21  2  0
 21 20  1  0
 20 19  2  0
 19 17  1  0
 18 17  1  0
 17 13  2  0
 14 13  1  0
 13 12  1  0
 12 10  1  0
 11 10  2  0
 10  9  1  0
  9  7  1  0
  7  6  1  0
  6  5  1  0
  5  4  1  0
  4  2  1  6
  3  2  1  0
  2  1  2  0
  8  4  1  0
  9  8  1  0
M  END
>  <smiles>  (84) 
COc1cccc(Cl)c1CC(=O)N1CCC[C@H](C(N)=O)C1

>  <inchikey>  (84) 
NHPQEFHMDYOTOA-JTQLQIEISA-N

>  <alias>  (84) 
A3942a

$$$$
A3944a
     RDKit          3D

 27 29  0  0  0  0  0  0  0  0999 V2000
   10.2740   16.5990   19.1020 O   0  0  0  0  0  0  0  0  0  0  0  0
   10.6300   15.4420   19.3590 C   0  0  0  0  0  0  0  0  0  0  0  0
   10.9550   14.5590   18.4300 N   0  0  0  0  0  0  0  0  0  0  0  0
   10.6850   14.9350   20.7900 C   0  0  1  0  0  0  0  0  0  0  0  0
   11.8010   15.6040   21.6030 C   0  0  0  0  0  0  0  0  0  0  0  0
   11.9040   14.9740   22.9940 C   0  0  0  0  0  0  0  0  0  0  0  0
   10.5490   14.9890   23.7110 C   0  0  0  0  0  0  0  0  0  0  0  0
    9.3660   15.1110   21.5430 C   0  0  0  0  0  0  0  0  0  0  0  0
    9.4740   14.4610   22.8520 N   0  0  0  0  0  0  0  0  0  0  0  0
    8.6370   13.4500   23.1800 C   0  0  0  0  0  0  0  0  0  0  0  0
    7.6620   13.1730   22.5020 O   0  0  0  0  0  0  0  0  0  0  0  0
    8.9660   12.6660   24.4370 C   0  0  0  0  0  0  0  0  0  0  0  0
    7.7610   12.4270   25.3180 C   0  0  0  0  0  0  0  0  0  0  0  0
    7.3950   11.1380   25.6870 C   0  0  0  0  0  0  0  0  0  0  0  0
    6.3090   10.9220   26.5180 C   0  0  0  0  0  0  0  0  0  0  0  0
    5.5620   11.9920   26.9770 C   0  0  0  0  0  0  0  0  0  0  0  0
    7.0130   13.4990   25.7960 C   0  0  0  0  0  0  0  0  0  0  0  0
    5.9090   13.2920   26.6230 C   0  0  0  0  0  0  0  0  0  0  0  0
    5.0980   14.4850   27.0320 C   0  0  0  0  0  0  0  0  0  0  0  0
    5.0950   15.4630   26.3010 O   0  0  0  0  0  0  0  0  0  0  0  0
    4.4450   14.4760   28.2240 N   0  0  0  0  0  0  0  0  0  0  0  0
    3.6130   15.6340   28.5920 C   0  0  0  0  0  0  0  0  0  0  0  0
    2.2350   15.5620   27.9890 C   0  0  0  0  0  0  0  0  0  0  0  0
    4.5310   13.4360   29.2540 C   0  0  0  0  0  0  0  0  0  0  0  0
    5.6200   13.7660   30.2740 C   0  0  0  0  0  0  0  0  0  0  0  0
    5.5390   13.2360   31.6740 C   0  0  0  0  0  0  0  0  0  0  0  0
    6.5660   12.6940   30.7270 C   0  0  0  0  0  0  0  0  0  0  0  0
 23 22  1  0
 22 21  1  0
 24 21  1  0
 25 24  1  0
 25 27  1  0
 27 26  1  0
 26 25  1  0
 21 19  1  0
 20 19  2  0
 19 18  1  0
 18 16  2  0
 16 15  1  0
 15 14  2  0
 14 13  1  0
 13 12  1  0
 12 10  1  0
 11 10  2  0
 10  9  1  0
  9  7  1  0
  7  6  1  0
  6  5  1  0
  5  4  1  0
  4  2  1  6
  3  2  1  0
  2  1  2  0
  8  4  1  0
  9  8  1  0
 17 13  2  0
 18 17  1  0
M  END
>  <smiles>  (85) 
CCN(CC1CC1)C(=O)c1cccc(CC(=O)N2CCC[C@H](C(N)=O)C2)c1

>  <inchikey>  (85) 
ATECCQSBFXQPQB-SFHVURJKSA-N

>  <alias>  (85) 
A3944a

$$$$
A3954a
     RDKit          3D

 22 24  0  0  0  0  0  0  0  0999 V2000
   10.3620   16.6710   18.9200 O   0  0  0  0  0  0  0  0  0  0  0  0
   10.7090   15.5460   19.2930 C   0  0  0  0  0  0  0  0  0  0  0  0
   11.0520   14.5830   18.4510 N   0  0  0  0  0  0  0  0  0  0  0  0
   10.7600   15.1860   20.7680 C   0  0  1  0  0  0  0  0  0  0  0  0
   11.8530   15.9740   21.5060 C   0  0  0  0  0  0  0  0  0  0  0  0
   11.9280   15.5950   22.9900 C   0  0  0  0  0  0  0  0  0  0  0  0
   10.5690   15.7270   23.6590 C   0  0  0  0  0  0  0  0  0  0  0  0
    9.4380   15.4330   21.5010 C   0  0  0  0  0  0  0  0  0  0  0  0
    9.5470   14.9940   22.8970 N   0  0  0  0  0  0  0  0  0  0  0  0
    8.7550   14.0130   23.3730 C   0  0  0  0  0  0  0  0  0  0  0  0
    8.0840   13.3240   22.6260 O   0  0  0  0  0  0  0  0  0  0  0  0
    8.6880   13.7930   24.8830 C   0  0  1  0  0  0  0  0  0  0  0  0
    7.6500   14.7240   25.5840 C   0  0  0  0  0  0  0  0  0  0  0  0
    6.8260   13.8390   26.5400 C   0  0  0  0  0  0  0  0  0  0  0  0
    7.0300   12.4490   25.9940 C   0  0  0  0  0  0  0  0  0  0  0  0
    6.3780   11.2500   26.2510 C   0  0  0  0  0  0  0  0  0  0  0  0
    6.8140   10.0840   25.6480 C   0  0  0  0  0  0  0  0  0  0  0  0
    8.1160   12.4130   25.1130 C   0  0  0  0  0  0  0  0  0  0  0  0
    8.5770   11.2950   24.5310 N   0  0  0  0  0  0  0  0  0  0  0  0
    7.9380   10.1610   24.8010 C   0  0  0  0  0  0  0  0  0  0  0  0
    8.3500    8.9840   24.2750 O   0  0  0  0  0  0  0  0  0  0  0  0
    9.6060    8.9490   23.5900 C   0  0  0  0  0  0  0  0  0  0  0  0
 22 21  1  0
 21 20  1  0
 20 17  1  0
 17 16  2  0
 16 15  1  0
 15 18  2  0
 19 18  1  0
 20 19  2  0
 18 12  1  0
 12 10  1  6
 11 10  2  0
 10  9  1  0
  9  7  1  0
  7  6  1  0
  6  5  1  0
  5  4  1  0
  4  2  1  6
  3  2  1  0
  2  1  2  0
  8  4  1  0
  9  8  1  0
 13 12  1  0
 14 13  1  0
 15 14  1  0
M  END
>  <smiles>  (86) 
COc1ccc2c(n1)[C@@H](C(=O)N1CCC[C@H](C(N)=O)C1)CC2

>  <inchikey>  (86) 
ZDYXIBCIXYHKOA-RYUDHWBXSA-N

>  <alias>  (86) 
A3954a

$$$$
A3963a
     RDKit          3D

 19 20  0  0  0  0  0  0  0  0999 V2000
    7.5720   13.3200   22.4770 O   0  0  0  0  0  0  0  0  0  0  0  0
    8.5180   13.6500   23.1740 C   0  0  0  0  0  0  0  0  0  0  0  0
    9.3070   14.6950   22.8660 N   0  0  0  0  0  0  0  0  0  0  0  0
   10.3470   15.2600   23.7390 C   0  0  0  0  0  0  0  0  0  0  0  0
   11.7300   15.1470   23.1040 C   0  0  0  0  0  0  0  0  0  0  0  0
   11.7140   15.6710   21.6660 C   0  0  0  0  0  0  0  0  0  0  0  0
    9.2660   15.2610   21.5150 C   0  0  0  0  0  0  0  0  0  0  0  0
   10.6100   14.9960   20.8380 C   0  0  1  0  0  0  0  0  0  0  0  0
   10.6510   15.4240   19.3820 C   0  0  0  0  0  0  0  0  0  0  0  0
   10.9480   14.6200   18.4920 O   0  0  0  0  0  0  0  0  0  0  0  0
   10.3230   16.6850   19.1350 N   0  0  0  0  0  0  0  0  0  0  0  0
    8.9590   12.8490   24.3840 C   0  0  0  0  0  0  0  0  0  0  0  0
    7.8970   11.9000   24.8820 C   0  0  0  0  0  0  0  0  0  0  0  0
    8.0030   10.4810   24.7260 C   0  0  0  0  0  0  0  0  0  0  0  0
    9.0030    9.9230   24.0230 N   0  0  0  0  0  0  0  0  0  0  0  0
    7.1450    9.6420   25.3410 N   0  0  0  0  0  0  0  0  0  0  0  0
    6.2030   10.1590   26.1430 C   0  0  0  0  0  0  0  0  0  0  0  0
    6.0200   11.5030   26.3340 C   0  0  0  0  0  0  0  0  0  0  0  0
    6.8640   12.3790   25.6830 C   0  0  0  0  0  0  0  0  0  0  0  0
 11  9  1  0
 10  9  2  0
  8  9  1  6
  8  6  1  0
  6  5  1  0
  5  4  1  0
  4  3  1  0
  3  2  1  0
  2  1  2  0
 12  2  1  0
 13 12  1  0
 13 19  2  0
 19 18  1  0
 18 17  2  0
 17 16  1  0
 16 14  2  0
 14 13  1  0
 15 14  1  0
  7  3  1  0
  8  7  1  0
M  END
>  <smiles>  (87) 
NC(=O)[C@H]1CCCN(C(=O)Cc2cccnc2N)C1

>  <inchikey>  (87) 
UWGHAGSZEJRSBU-JTQLQIEISA-N

>  <alias>  (87) 
A3963a

$$$$
A3963b
     RDKit          3D

 19 20  0  0  0  0  0  0  0  0999 V2000
    7.9230   13.2890   22.6340 O   0  0  0  0  0  0  0  0  0  0  0  0
    8.8630   13.6910   23.3240 C   0  0  0  0  0  0  0  0  0  0  0  0
    9.6550   14.7190   22.9450 N   0  0  0  0  0  0  0  0  0  0  0  0
   10.6800   15.3910   23.7620 C   0  0  0  0  0  0  0  0  0  0  0  0
   12.0470   15.2950   23.0930 C   0  0  0  0  0  0  0  0  0  0  0  0
   11.9770   15.7900   21.6520 C   0  0  0  0  0  0  0  0  0  0  0  0
    9.5540   15.2300   21.5750 C   0  0  0  0  0  0  0  0  0  0  0  0
   10.8930   15.0400   20.8620 C   0  0  1  0  0  0  0  0  0  0  0  0
   10.7820   15.5600   19.4420 C   0  0  0  0  0  0  0  0  0  0  0  0
   10.4150   16.7250   19.2160 O   0  0  0  0  0  0  0  0  0  0  0  0
   11.0330   14.6690   18.4860 N   0  0  0  0  0  0  0  0  0  0  0  0
    9.2550   13.0430   24.6420 C   0  0  0  0  0  0  0  0  0  0  0  0
    8.2650   11.9980   25.0980 C   0  0  0  0  0  0  0  0  0  0  0  0
    8.3600   10.6220   24.7150 C   0  0  0  0  0  0  0  0  0  0  0  0
    9.2680   10.2020   23.8210 N   0  0  0  0  0  0  0  0  0  0  0  0
    7.5340    9.6890   25.2340 N   0  0  0  0  0  0  0  0  0  0  0  0
    6.6180   10.0700   26.1370 C   0  0  0  0  0  0  0  0  0  0  0  0
    6.4520   11.3640   26.5490 C   0  0  0  0  0  0  0  0  0  0  0  0
    7.2750   12.3360   26.0160 C   0  0  0  0  0  0  0  0  0  0  0  0
 11  9  1  0
 10  9  2  0
  8  9  1  6
  8  6  1  0
  6  5  1  0
  5  4  1  0
  4  3  1  0
  3  2  1  0
  2  1  2  0
 12  2  1  0
 13 12  1  0
 13 19  2  0
 19 18  1  0
 18 17  2  0
 17 16  1  0
 16 14  2  0
 14 13  1  0
 15 14  1  0
  7  3  1  0
  8  7  1  0
M  END
>  <smiles>  (88) 
NC(=O)[C@H]1CCCN(C(=O)Cc2cccnc2N)C1

>  <inchikey>  (88) 
UWGHAGSZEJRSBU-JTQLQIEISA-N

>  <alias>  (88) 
A3963b

$$$$
A3968a
     RDKit          3D

 25 27  0  0  0  0  0  0  0  0999 V2000
    6.9270   13.5590   22.1010 O   0  0  0  0  0  0  0  0  0  0  0  0
    7.6730   13.8920   22.9900 C   0  0  0  0  0  0  0  0  0  0  0  0
    8.6690   14.7790   22.7650 N   0  0  0  0  0  0  0  0  0  0  0  0
    9.6820   15.3170   23.6800 C   0  0  0  0  0  0  0  0  0  0  0  0
   11.0860   15.1480   23.1390 C   0  0  0  0  0  0  0  0  0  0  0  0
   11.1920   15.6830   21.7140 C   0  0  0  0  0  0  0  0  0  0  0  0
    8.7700   15.3670   21.4290 C   0  0  0  0  0  0  0  0  0  0  0  0
   10.1310   15.0510   20.8140 C   0  0  1  0  0  0  0  0  0  0  0  0
   10.2340   15.5720   19.3910 C   0  0  0  0  0  0  0  0  0  0  0  0
    9.8810   16.7200   19.1050 O   0  0  0  0  0  0  0  0  0  0  0  0
   10.7500   14.7380   18.5030 N   0  0  0  0  0  0  0  0  0  0  0  0
    7.4380   13.2830   24.3850 C   0  0  1  0  0  0  0  0  0  0  0  0
    8.1350   11.9450   24.4140 C   0  0  0  0  0  0  0  0  0  0  0  0
    7.4870   10.8220   24.8930 C   0  0  0  0  0  0  0  0  0  0  0  0
    8.0780    9.5750   24.7980 C   0  0  0  0  0  0  0  0  0  0  0  0
    9.3220    9.4400   24.2370 C   0  0  0  0  0  0  0  0  0  0  0  0
    9.9860   10.5470   23.7790 C   0  0  0  0  0  0  0  0  0  0  0  0
    9.3990   11.7960   23.8680 C   0  0  0  0  0  0  0  0  0  0  0  0
    8.0200   13.9880   25.4830 O   0  0  0  0  0  0  0  0  0  0  0  0
    7.1510   14.9670   26.0560 C   0  0  0  0  0  0  0  0  0  0  0  0
    5.9960   14.3150   26.7720 C   0  0  0  0  0  0  0  0  0  0  0  0
    4.8580   15.2800   27.1010 C   0  0  0  0  0  0  0  0  0  0  0  0
    4.0990   14.6140   28.2440 C   0  0  0  0  0  0  0  0  0  0  0  0
    5.0610   13.6110   28.8740 C   0  0  0  0  0  0  0  0  0  0  0  0
    6.3820   13.7780   28.1510 C   0  0  0  0  0  0  0  0  0  0  0  0
 11  9  1  0
 10  9  2  0
  8  9  1  6
  8  6  1  0
  6  5  1  0
  5  4  1  0
  4  3  1  0
  3  2  1  0
  2  1  2  0
 12  2  1  0
 12 19  1  1
 20 19  1  0
 21 20  1  0
 21 25  1  0
 25 24  1  0
 24 23  1  0
 23 22  1  0
 22 21  1  0
 13 12  1  0
 13 18  2  0
 18 17  1  0
 17 16  2  0
 16 15  1  0
 15 14  2  0
 14 13  1  0
  7  3  1  0
  8  7  1  0
M  END
>  <smiles>  (89) 
NC(=O)[C@H]1CCCN(C(=O)[C@H](OCC2CCCC2)c2ccccc2)C1

>  <inchikey>  (89) 
FNAQVGAMQZPXGH-ZWKOTPCHSA-N

>  <alias>  (89) 
A3968a

$$$$
A3975a
     RDKit          3D

 24 26  0  0  0  0  0  0  0  0999 V2000
    7.3350   13.6670   22.2970 O   0  0  0  0  0  0  0  0  0  0  0  0
    8.1670   14.0150   23.1140 C   0  0  0  0  0  0  0  0  0  0  0  0
    9.2170   14.8010   22.7690 N   0  0  0  0  0  0  0  0  0  0  0  0
   10.3470   15.1410   23.6530 C   0  0  0  0  0  0  0  0  0  0  0  0
   11.6980   14.8370   23.0060 C   0  0  0  0  0  0  0  0  0  0  0  0
   11.7820   15.4350   21.5970 C   0  0  0  0  0  0  0  0  0  0  0  0
    9.2920   15.3770   21.4250 C   0  0  0  0  0  0  0  0  0  0  0  0
   10.5960   14.9610   20.7350 C   0  0  1  0  0  0  0  0  0  0  0  0
   10.6820   15.5100   19.3230 C   0  0  0  0  0  0  0  0  0  0  0  0
   10.3150   16.6600   19.0690 O   0  0  0  0  0  0  0  0  0  0  0  0
   11.1370   14.6750   18.3980 N   0  0  0  0  0  0  0  0  0  0  0  0
    8.0330   13.5610   24.5670 C   0  0  2  0  0  0  0  0  0  0  0  0
    8.2450   12.0550   24.4880 C   0  0  0  0  0  0  0  0  0  0  0  0
    7.3860   11.1690   25.1230 C   0  0  0  0  0  0  0  0  0  0  0  0
    7.5390    9.8040   24.9660 C   0  0  0  0  0  0  0  0  0  0  0  0
    8.5680    9.3010   24.1970 C   0  0  0  0  0  0  0  0  0  0  0  0
    9.4420   10.1650   23.5810 C   0  0  0  0  0  0  0  0  0  0  0  0
    9.2810   11.5340   23.7220 C   0  0  0  0  0  0  0  0  0  0  0  0
    6.6370   13.9580   25.0950 C   0  0  0  0  0  0  0  0  0  0  0  0
    6.4120   15.4120   25.1140 N   0  0  0  0  0  0  0  0  0  0  0  0
    5.0540   15.7760   25.5310 C   0  0  0  0  0  0  0  0  0  0  0  0
    5.1530   17.2580   25.8140 C   0  0  0  0  0  0  0  0  0  0  0  0
    6.5800   17.4570   26.2860 C   0  0  0  0  0  0  0  0  0  0  0  0
    7.2780   16.1180   26.0680 C   0  0  0  0  0  0  0  0  0  0  0  0
 11  9  1  0
 10  9  2  0
  8  9  1  6
  8  6  1  0
  6  5  1  0
  5  4  1  0
  4  3  1  0
  3  2  1  0
  2  1  2  0
 12  2  1  0
 12 19  1  6
 20 19  1  0
 20 24  1  0
 24 23  1  0
 23 22  1  0
 22 21  1  0
 21 20  1  0
 13 12  1  0
 13 18  2  0
 18 17  1  0
 17 16  2  0
 16 15  1  0
 15 14  2  0
 14 13  1  0
  7  3  1  0
  8  7  1  0
M  END
>  <smiles>  (90) 
NC(=O)[C@H]1CCCN(C(=O)[C@@H](CN2CCCC2)c2ccccc2)C1

>  <inchikey>  (90) 
NBHKSQZOSDYBJT-IRXDYDNUSA-N

>  <alias>  (90) 
A3975a

$$$$
A3986a
     RDKit          3D

 25 27  0  0  0  0  0  0  0  0999 V2000
    7.3230   13.3780   22.4450 O   0  0  0  0  0  0  0  0  0  0  0  0
    8.0690   13.9320   23.2300 C   0  0  0  0  0  0  0  0  0  0  0  0
    8.9320   14.8920   22.8350 N   0  0  0  0  0  0  0  0  0  0  0  0
    9.8940   15.5850   23.7110 C   0  0  0  0  0  0  0  0  0  0  0  0
   11.3270   15.3610   23.2480 C   0  0  0  0  0  0  0  0  0  0  0  0
   11.4870   15.7130   21.7630 C   0  0  0  0  0  0  0  0  0  0  0  0
    9.0010   15.3160   21.4360 C   0  0  0  0  0  0  0  0  0  0  0  0
   10.4070   15.0410   20.9020 C   0  0  1  0  0  0  0  0  0  0  0  0
   10.5170   15.4460   19.4430 C   0  0  0  0  0  0  0  0  0  0  0  0
   10.8670   14.6300   18.5800 O   0  0  0  0  0  0  0  0  0  0  0  0
   10.2170   16.7010   19.1590 N   0  0  0  0  0  0  0  0  0  0  0  0
    8.1710   13.4640   24.6840 C   0  0  2  0  0  0  0  0  0  0  0  0
    8.5190   11.9990   24.5660 C   0  0  0  0  0  0  0  0  0  0  0  0
    9.6420   11.6120   23.8510 C   0  0  0  0  0  0  0  0  0  0  0  0
    9.9070   10.2750   23.6190 C   0  0  0  0  0  0  0  0  0  0  0  0
    9.0640    9.3140   24.1040 C   0  0  0  0  0  0  0  0  0  0  0  0
    7.9510    9.6800   24.8260 C   0  0  0  0  0  0  0  0  0  0  0  0
    7.6860   11.0150   25.0710 C   0  0  0  0  0  0  0  0  0  0  0  0
    6.9220   13.8950   25.9750 S   0  0  0  0  0  0  0  0  0  0  0  0
    5.3900   13.9910   25.0810 C   0  0  0  0  0  0  0  0  0  0  0  0
    5.1810   14.8470   24.0090 C   0  0  0  0  0  0  0  0  0  0  0  0
    3.8940   15.0840   23.5500 C   0  0  0  0  0  0  0  0  0  0  0  0
    2.8180   14.4690   24.1480 C   0  0  0  0  0  0  0  0  0  0  0  0
    3.0220   13.6090   25.2050 C   0  0  0  0  0  0  0  0  0  0  0  0
    4.3040   13.3570   25.6680 C   0  0  0  0  0  0  0  0  0  0  0  0
 11  9  1  0
 10  9  2  0
  8  9  1  6
  8  6  1  0
  6  5  1  0
  5  4  1  0
  4  3  1  0
  3  2  1  0
  2  1  2  0
 12  2  1  0
 12 19  1  6
 20 19  1  0
 20 25  2  0
 25 24  1  0
 24 23  2  0
 23 22  1  0
 22 21  2  0
 21 20  1  0
 13 12  1  0
 13 18  2  0
 18 17  1  0
 17 16  2  0
 16 15  1  0
 15 14  2  0
 14 13  1  0
  7  3  1  0
  8  7  1  0
M  END
>  <smiles>  (91) 
NC(=O)[C@H]1CCCN(C(=O)[C@@H](Sc2ccccc2)c2ccccc2)C1

>  <inchikey>  (91) 
XCKSWRSDIRLLDZ-WMZOPIPTSA-N

>  <alias>  (91) 
A3986a

$$$$
A3986b
     RDKit          3D

 25 27  0  0  0  0  0  0  0  0999 V2000
    7.4380   13.4590   22.5480 O   0  0  0  0  0  0  0  0  0  0  0  0
    8.2600   13.9750   23.3040 C   0  0  0  0  0  0  0  0  0  0  0  0
    9.0790   14.9810   22.9120 N   0  0  0  0  0  0  0  0  0  0  0  0
   10.0330   15.7360   23.7460 C   0  0  0  0  0  0  0  0  0  0  0  0
   11.4690   15.4980   23.3040 C   0  0  0  0  0  0  0  0  0  0  0  0
   11.6460   15.8120   21.8160 C   0  0  0  0  0  0  0  0  0  0  0  0
    9.1330   15.3680   21.5030 C   0  0  0  0  0  0  0  0  0  0  0  0
   10.5450   15.1430   20.9690 C   0  0  1  0  0  0  0  0  0  0  0  0
   10.5670   15.6170   19.5280 C   0  0  0  0  0  0  0  0  0  0  0  0
   10.2430   16.7830   19.2310 O   0  0  0  0  0  0  0  0  0  0  0  0
   10.8850   14.6880   18.6300 N   0  0  0  0  0  0  0  0  0  0  0  0
    8.5860   13.4040   24.6780 C   0  0  2  0  0  0  0  0  0  0  0  0
    8.6710   11.9060   24.4950 C   0  0  0  0  0  0  0  0  0  0  0  0
    7.7680   11.0540   25.1050 C   0  0  0  0  0  0  0  0  0  0  0  0
    7.8850    9.6860   24.9520 C   0  0  0  0  0  0  0  0  0  0  0  0
    8.8920    9.1590   24.1800 C   0  0  0  0  0  0  0  0  0  0  0  0
    9.7870    9.9880   23.5660 C   0  0  0  0  0  0  0  0  0  0  0  0
    9.6810   11.3570   23.7210 C   0  0  0  0  0  0  0  0  0  0  0  0
    7.6610   13.9590   26.1680 S   0  0  0  0  0  0  0  0  0  0  0  0
    6.1120   14.5220   25.5160 C   0  0  0  0  0  0  0  0  0  0  0  0
    5.7430   15.8290   25.7940 C   0  0  0  0  0  0  0  0  0  0  0  0
    4.4130   16.2070   25.7040 C   0  0  0  0  0  0  0  0  0  0  0  0
    3.4570   15.2960   25.3090 C   0  0  0  0  0  0  0  0  0  0  0  0
    3.8280   14.0110   24.9840 C   0  0  0  0  0  0  0  0  0  0  0  0
    5.1570   13.6230   25.0700 C   0  0  0  0  0  0  0  0  0  0  0  0
 11  9  1  0
 10  9  2  0
  8  9  1  6
  8  6  1  0
  6  5  1  0
  5  4  1  0
  4  3  1  0
  3  2  1  0
  2  1  2  0
 12  2  1  0
 12 19  1  1
 20 19  1  0
 20 25  2  0
 25 24  1  0
 24 23  2  0
 23 22  1  0
 22 21  2  0
 21 20  1  0
 13 12  1  0
 13 18  2  0
 18 17  1  0
 17 16  2  0
 16 15  1  0
 15 14  2  0
 14 13  1  0
  7  3  1  0
  8  7  1  0
M  END
>  <smiles>  (92) 
NC(=O)[C@H]1CCCN(C(=O)[C@@H](Sc2ccccc2)c2ccccc2)C1

>  <inchikey>  (92) 
XCKSWRSDIRLLDZ-WMZOPIPTSA-N

>  <alias>  (92) 
A3986b

$$$$
A3989a
     RDKit          3D

 22 23  0  0  0  0  0  0  0  0999 V2000
    9.5240   11.1190   23.3130 Cl  0  0  0  0  0  0  0  0  0  0  0  0
    8.2950   11.4190   24.5040 C   0  0  0  0  0  0  0  0  0  0  0  0
    7.7800   10.3420   25.2030 C   0  0  0  0  0  0  0  0  0  0  0  0
    6.8480   10.5560   26.2030 C   0  0  0  0  0  0  0  0  0  0  0  0
    6.4300   11.8460   26.5040 C   0  0  0  0  0  0  0  0  0  0  0  0
    5.4410   12.1110   27.5870 C   0  0  0  0  0  0  0  0  0  0  0  0
    5.4620   11.1920   28.5290 F   0  0  0  0  0  0  0  0  0  0  0  0
    5.6760   13.2420   28.2200 F   0  0  0  0  0  0  0  0  0  0  0  0
    4.2000   12.2250   27.1200 F   0  0  0  0  0  0  0  0  0  0  0  0
    6.9540   12.9060   25.7770 C   0  0  0  0  0  0  0  0  0  0  0  0
    7.8830   12.7220   24.7590 C   0  0  0  0  0  0  0  0  0  0  0  0
    8.3230   13.9030   23.9260 C   0  0  0  0  0  0  0  0  0  0  0  0
    9.7830   14.2500   24.1400 C   0  0  0  0  0  0  0  0  0  0  0  0
   10.3010   14.1990   25.2430 O   0  0  0  0  0  0  0  0  0  0  0  0
   10.4630   14.6510   23.0460 N   0  0  0  0  0  0  0  0  0  0  0  0
   11.8450   15.1420   23.0980 C   0  0  0  0  0  0  0  0  0  0  0  0
   12.0260   15.7820   21.7240 C   0  0  0  0  0  0  0  0  0  0  0  0
    9.9120   14.6990   21.6850 C   0  0  0  0  0  0  0  0  0  0  0  0
   11.1680   14.8670   20.8330 C   0  0  1  0  0  0  0  0  0  0  0  0
   10.8640   15.3900   19.4380 C   0  0  0  0  0  0  0  0  0  0  0  0
   10.4120   16.5280   19.2590 O   0  0  0  0  0  0  0  0  0  0  0  0
   11.1040   14.5440   18.4480 N   0  0  0  0  0  0  0  0  0  0  0  0
 22 20  1  0
 21 20  2  0
 19 20  1  6
 19 17  1  0
 17 16  1  0
 16 15  1  0
 15 13  1  0
 14 13  2  0
 13 12  1  0
 12 11  1  0
 11 10  2  0
 10  5  1  0
  6  5  1  0
  9  6  1  0
  8  6  1  0
  7  6  1  0
  5  4  2  0
  4  3  1  0
  3  2  2  0
 11  2  1  0
  2  1  1  0
 18 15  1  0
 19 18  1  0
M  END
>  <smiles>  (93) 
NC(=O)[C@H]1CCN(C(=O)Cc2cc(C(F)(F)F)ccc2Cl)C1

>  <inchikey>  (93) 
HVQIWPCPNWMLEJ-QMMMGPOBSA-N

>  <alias>  (93) 
A3989a

$$$$
A3990a
     RDKit          3D

 23 24  0  0  0  0  0  0  0  0999 V2000
   11.7190   16.9400   22.9180 F   0  0  0  0  0  0  0  0  0  0  0  0
   12.2480   15.9700   22.1670 C   0  0  0  0  0  0  0  0  0  0  0  0
   12.8880   16.5750   21.1530 F   0  0  0  0  0  0  0  0  0  0  0  0
   13.1820   15.3830   22.9160 F   0  0  0  0  0  0  0  0  0  0  0  0
   11.2140   14.9920   21.6880 C   0  0  2  0  0  0  0  0  0  0  0  0
   10.0870   15.6720   20.8790 C   0  0  1  0  0  0  0  0  0  0  0  0
   10.3670   15.8970   19.4080 C   0  0  0  0  0  0  0  0  0  0  0  0
   10.1340   16.9910   18.8890 O   0  0  0  0  0  0  0  0  0  0  0  0
   10.8570   14.8630   18.7270 N   0  0  0  0  0  0  0  0  0  0  0  0
    8.9020   14.7310   21.0850 C   0  0  0  0  0  0  0  0  0  0  0  0
   10.4920   14.3860   22.8900 C   0  0  0  0  0  0  0  0  0  0  0  0
    9.1160   14.2050   22.4290 N   0  0  0  0  0  0  0  0  0  0  0  0
    8.1180   13.5990   23.0990 C   0  0  0  0  0  0  0  0  0  0  0  0
    7.0690   13.2920   22.5600 O   0  0  0  0  0  0  0  0  0  0  0  0
    8.3810   13.3370   24.5710 C   0  0  0  0  0  0  0  0  0  0  0  0
    7.6040   12.1570   25.1110 C   0  0  0  0  0  0  0  0  0  0  0  0
    7.8420   10.8590   24.6500 C   0  0  0  0  0  0  0  0  0  0  0  0
    8.8060   10.7540   23.6830 O   0  0  0  0  0  0  0  0  0  0  0  0
    9.4440    9.4860   23.4940 C   0  0  0  0  0  0  0  0  0  0  0  0
    6.6440   12.3400   26.1020 C   0  0  0  0  0  0  0  0  0  0  0  0
    5.9360   11.2680   26.6110 C   0  0  0  0  0  0  0  0  0  0  0  0
    6.1700   10.0040   26.1430 C   0  0  0  0  0  0  0  0  0  0  0  0
    7.1260    9.7850   25.1610 C   0  0  0  0  0  0  0  0  0  0  0  0
 19 18  1  0
 18 17  1  0
 17 23  2  0
 23 22  1  0
 22 21  2  0
 21 20  1  0
 20 16  2  0
 17 16  1  0
 16 15  1  0
 15 13  1  0
 14 13  2  0
 13 12  1  0
 12 10  1  0
 10  6  1  0
  6  7  1  6
  9  7  1  0
  8  7  2  0
  6  5  1  0
  5  2  1  1
  3  2  1  0
  4  2  1  0
  2  1  1  0
 11  5  1  0
 12 11  1  0
M  END
>  <smiles>  (94) 
COc1ccccc1CC(=O)N1C[C@H](C(N)=O)[C@@H](C(F)(F)F)C1

>  <inchikey>  (94) 
WDWZKNJCYBSIRL-QWRGUYRKSA-N

>  <alias>  (94) 
A3990a

$$$$
A4028a
     RDKit          3D

 24 25  0  0  0  0  0  0  0  0999 V2000
   10.1310   16.7870   19.1040 O   0  0  0  0  0  0  0  0  0  0  0  0
   10.4990   15.6300   19.3470 C   0  0  0  0  0  0  0  0  0  0  0  0
   10.8680   14.7770   18.4040 N   0  0  0  0  0  0  0  0  0  0  0  0
   10.5780   15.1170   20.7760 C   0  0  1  0  0  0  0  0  0  0  0  0
   11.6290   15.8990   21.5850 C   0  0  0  0  0  0  0  0  0  0  0  0
   11.6880   15.4530   23.0510 C   0  0  0  0  0  0  0  0  0  0  0  0
   10.3100   15.4860   23.6850 C   0  0  0  0  0  0  0  0  0  0  0  0
    9.2320   15.2810   21.4860 C   0  0  0  0  0  0  0  0  0  0  0  0
    9.3360   14.7630   22.8540 N   0  0  0  0  0  0  0  0  0  0  0  0
    8.5870   13.7110   23.2430 C   0  0  0  0  0  0  0  0  0  0  0  0
    7.7170   13.2340   22.5310 O   0  0  0  0  0  0  0  0  0  0  0  0
    8.8760   13.1640   24.6290 C   0  0  0  0  0  0  0  0  0  0  0  0
    7.8950   12.0930   25.0440 C   0  0  0  0  0  0  0  0  0  0  0  0
    8.0800   10.7710   24.6390 C   0  0  0  0  0  0  0  0  0  0  0  0
    9.1690   10.5640   23.8350 O   0  0  0  0  0  0  0  0  0  0  0  0
    9.4240    9.2250   23.3780 C   0  0  0  0  0  0  0  0  0  0  0  0
    6.8520   12.3720   25.9270 C   0  0  0  0  0  0  0  0  0  0  0  0
    6.0090   11.3800   26.4160 C   0  0  0  0  0  0  0  0  0  0  0  0
    4.9030   11.7290   27.3650 C   0  0  0  0  0  0  0  0  0  0  0  0
    5.3430   11.9970   28.5690 F   0  0  0  0  0  0  0  0  0  0  0  0
    3.9990   10.7690   27.5270 F   0  0  0  0  0  0  0  0  0  0  0  0
    4.2130   12.7810   27.0000 F   0  0  0  0  0  0  0  0  0  0  0  0
    6.2240   10.0710   26.0040 C   0  0  0  0  0  0  0  0  0  0  0  0
    7.2450    9.7670   25.1160 C   0  0  0  0  0  0  0  0  0  0  0  0
 16 15  1  0
 15 14  1  0
 14 24  2  0
 24 23  1  0
 23 18  2  0
 19 18  1  0
 22 19  1  0
 21 19  1  0
 20 19  1  0
 18 17  1  0
 17 13  2  0
 14 13  1  0
 13 12  1  0
 12 10  1  0
 11 10  2  0
 10  9  1  0
  9  7  1  0
  7  6  1  0
  6  5  1  0
  5  4  1  0
  4  2  1  6
  3  2  1  0
  2  1  2  0
  8  4  1  0
  9  8  1  0
M  END
>  <smiles>  (95) 
COc1ccc(C(F)(F)F)cc1CC(=O)N1CCC[C@H](C(N)=O)C1

>  <inchikey>  (95) 
PQPPRBLQDZEENG-JTQLQIEISA-N

>  <alias>  (95) 
A4028a

$$$$
A4202a
     RDKit          3D

 21 23  0  0  0  0  0  0  0  0999 V2000
    9.5000   10.4100   23.6190 Br  0  0  0  0  0  0  0  0  0  0  0  0
    7.9540   10.8220   24.6450 C   0  0  0  0  0  0  0  0  0  0  0  0
    7.1490    9.7820   25.0800 C   0  0  0  0  0  0  0  0  0  0  0  0
    6.0330   10.0720   25.8570 C   0  0  0  0  0  0  0  0  0  0  0  0
    5.7320   11.3780   26.1850 C   0  0  0  0  0  0  0  0  0  0  0  0
    7.6690   12.1370   24.9720 C   0  0  0  0  0  0  0  0  0  0  0  0
    6.5400   12.4110   25.7310 C   0  0  0  0  0  0  0  0  0  0  0  0
    6.3740   13.8920   25.9350 C   0  0  0  0  0  0  0  0  0  0  0  0
    7.7700   14.4350   25.6200 C   0  0  0  0  0  0  0  0  0  0  0  0
    8.4660   13.3830   24.6910 C   0  0  2  0  0  0  0  0  0  0  0  0
    8.4390   13.7820   23.2160 C   0  0  0  0  0  0  0  0  0  0  0  0
    7.6050   13.3290   22.4510 O   0  0  0  0  0  0  0  0  0  0  0  0
    9.3260   14.7100   22.8030 N   0  0  0  0  0  0  0  0  0  0  0  0
   10.3450   15.3370   23.6700 C   0  0  0  0  0  0  0  0  0  0  0  0
   11.7410   15.2020   23.1070 C   0  0  0  0  0  0  0  0  0  0  0  0
   11.7900   15.7370   21.6750 C   0  0  0  0  0  0  0  0  0  0  0  0
    9.3240   15.1960   21.4210 C   0  0  0  0  0  0  0  0  0  0  0  0
   10.7250   15.0270   20.8210 C   0  0  1  0  0  0  0  0  0  0  0  0
   10.7220   15.5460   19.3950 C   0  0  0  0  0  0  0  0  0  0  0  0
   10.3960   16.7070   19.1390 O   0  0  0  0  0  0  0  0  0  0  0  0
   11.0310   14.6660   18.4530 N   0  0  0  0  0  0  0  0  0  0  0  0
 21 19  1  0
 20 19  2  0
 18 19  1  6
 18 16  1  0
 16 15  1  0
 15 14  1  0
 14 13  1  0
 13 11  1  0
 12 11  2  0
 10 11  1  6
 10  9  1  0
  9  8  1  0
  8  7  1  0
  7  5  1  0
  5  4  2  0
  4  3  1  0
  3  2  2  0
  2  1  1  0
  6  2  1  0
  7  6  2  0
 10  6  1  0
 17 13  1  0
 18 17  1  0
M  END
>  <smiles>  (96) 
NC(=O)[C@H]1CCCN(C(=O)[C@H]2CCc3cccc(Br)c32)C1

>  <inchikey>  (96) 
AXUVEMNCADPROP-RYUDHWBXSA-N

>  <alias>  (96) 
A4202a

$$$$
A4202b
     RDKit          3D

 21 23  0  0  0  0  0  0  0  0999 V2000
    9.7760   10.3580   23.6870 Br  0  0  0  0  0  0  0  0  0  0  0  0
    8.2790   10.8380   24.7600 C   0  0  0  0  0  0  0  0  0  0  0  0
    7.4490    9.8220   25.2150 C   0  0  0  0  0  0  0  0  0  0  0  0
    6.4100   10.1330   26.0780 C   0  0  0  0  0  0  0  0  0  0  0  0
    6.1970   11.4450   26.4620 C   0  0  0  0  0  0  0  0  0  0  0  0
    8.0770   12.1590   25.1330 C   0  0  0  0  0  0  0  0  0  0  0  0
    7.0250   12.4620   25.9900 C   0  0  0  0  0  0  0  0  0  0  0  0
    6.9560   13.9470   26.2680 C   0  0  0  0  0  0  0  0  0  0  0  0
    8.3080   14.4610   25.7960 C   0  0  0  0  0  0  0  0  0  0  0  0
    8.9200   13.3760   24.8220 C   0  0  2  0  0  0  0  0  0  0  0  0
    8.7900   13.7700   23.3520 C   0  0  0  0  0  0  0  0  0  0  0  0
    7.9170   13.2790   22.6410 O   0  0  0  0  0  0  0  0  0  0  0  0
    9.6320   14.7200   22.8790 N   0  0  0  0  0  0  0  0  0  0  0  0
   10.6540   15.4120   23.6890 C   0  0  0  0  0  0  0  0  0  0  0  0
   12.0250   15.3120   23.0690 C   0  0  0  0  0  0  0  0  0  0  0  0
   11.9820   15.8220   21.6250 C   0  0  0  0  0  0  0  0  0  0  0  0
    9.5470   15.1860   21.4930 C   0  0  0  0  0  0  0  0  0  0  0  0
   10.9190   15.0520   20.8260 C   0  0  1  0  0  0  0  0  0  0  0  0
   10.8240   15.5540   19.3980 C   0  0  0  0  0  0  0  0  0  0  0  0
   10.4890   16.7200   19.1500 O   0  0  0  0  0  0  0  0  0  0  0  0
   11.0720   14.6540   18.4460 N   0  0  0  0  0  0  0  0  0  0  0  0
 21 19  1  0
 20 19  2  0
 18 19  1  6
 18 16  1  0
 16 15  1  0
 15 14  1  0
 14 13  1  0
 13 11  1  0
 12 11  2  0
 10 11  1  6
 10  9  1  0
  9  8  1  0
  8  7  1  0
  7  5  1  0
  5  4  2  0
  4  3  1  0
  3  2  2  0
  2  1  1  0
  6  2  1  0
  7  6  2  0
 10  6  1  0
 17 13  1  0
 18 17  1  0
M  END
>  <smiles>  (97) 
NC(=O)[C@H]1CCCN(C(=O)[C@H]2CCc3cccc(Br)c32)C1

>  <inchikey>  (97) 
AXUVEMNCADPROP-RYUDHWBXSA-N

>  <alias>  (97) 
A4202b

$$$$
A4290a
     RDKit          3D

 21 22  0  0  0  0  0  0  0  0999 V2000
   10.3440   16.8840   19.1770 O   0  0  0  0  0  0  0  0  0  0  0  0
   10.6780   15.7210   19.4230 C   0  0  0  0  0  0  0  0  0  0  0  0
   10.9390   14.8250   18.4860 N   0  0  0  0  0  0  0  0  0  0  0  0
   10.8120   15.2320   20.8530 C   0  0  1  0  0  0  0  0  0  0  0  0
   12.0520   15.8270   21.5430 C   0  0  0  0  0  0  0  0  0  0  0  0
   12.1810   15.3510   22.9930 C   0  0  0  0  0  0  0  0  0  0  0  0
   10.8890   15.5800   23.7580 C   0  0  0  0  0  0  0  0  0  0  0  0
    9.5900   15.6090   21.6850 C   0  0  0  0  0  0  0  0  0  0  0  0
    9.7630   15.0090   23.0060 N   0  0  0  0  0  0  0  0  0  0  0  0
    9.0660   13.9080   23.3440 C   0  0  0  0  0  0  0  0  0  0  0  0
    8.0940   13.5280   22.7090 O   0  0  0  0  0  0  0  0  0  0  0  0
    9.5890   13.1230   24.5280 C   0  0  0  0  0  0  0  0  0  0  0  0
    8.6750   11.9560   24.8040 C   0  0  0  0  0  0  0  0  0  0  0  0
    7.5020   12.1000   25.5590 C   0  0  0  0  0  0  0  0  0  0  0  0
    7.0010   13.7600   26.1620 S   0  0  0  0  0  0  0  0  0  0  0  0
    5.6720   14.2100   25.0440 C   0  0  0  0  0  0  0  0  0  0  0  0
    8.9810   10.7030   24.2730 C   0  0  0  0  0  0  0  0  0  0  0  0
    8.1720    9.6120   24.5180 C   0  0  0  0  0  0  0  0  0  0  0  0
    7.0430    9.7480   25.3010 C   0  0  0  0  0  0  0  0  0  0  0  0
    6.7100   10.9920   25.8040 C   0  0  0  0  0  0  0  0  0  0  0  0
    5.1000   11.1080   26.7900 Br  0  0  0  0  0  0  0  0  0  0  0  0
 16 15  1  0
 15 14  1  0
 14 20  2  0
 21 20  1  0
 20 19  1  0
 19 18  2  0
 18 17  1  0
 17 13  2  0
 14 13  1  0
 13 12  1  0
 12 10  1  0
 11 10  2  0
 10  9  1  0
  9  7  1  0
  7  6  1  0
  6  5  1  0
  5  4  1  0
  4  2  1  6
  3  2  1  0
  2  1  2  0
  8  4  1  0
  9  8  1  0
M  END
>  <smiles>  (98) 
CSc1c(Br)cccc1CC(=O)N1CCC[C@H](C(N)=O)C1

>  <inchikey>  (98) 
IQRUJMCPLXCOCF-NSHDSACASA-N

>  <alias>  (98) 
A4290a

$$$$
A4291a
     RDKit          3D

 21 22  0  0  0  0  0  0  0  0999 V2000
    8.8440    9.9320   24.1490 O   0  0  0  0  0  0  0  0  0  0  0  0
    7.9980   10.5880   24.7950 C   0  0  0  0  0  0  0  0  0  0  0  0
    6.9160    9.9540   25.3960 N   0  0  0  0  0  0  0  0  0  0  0  0
    5.9510   10.5960   26.1310 C   0  0  0  0  0  0  0  0  0  0  0  0
    4.8240    9.7700   26.6680 C   0  0  0  0  0  0  0  0  0  0  0  0
    8.0560   12.0160   24.9960 C   0  0  0  0  0  0  0  0  0  0  0  0
    7.0870   12.6740   25.7440 C   0  0  0  0  0  0  0  0  0  0  0  0
    7.1120   14.1330   26.0720 C   0  0  0  0  0  0  0  0  0  0  0  0
    6.0390   11.9360   26.2970 C   0  0  0  0  0  0  0  0  0  0  0  0
    9.2260   12.7610   24.4020 C   0  0  0  0  0  0  0  0  0  0  0  0
    8.8540   13.5370   23.1540 C   0  0  0  0  0  0  0  0  0  0  0  0
    7.8910   13.2170   22.4910 O   0  0  0  0  0  0  0  0  0  0  0  0
    9.6400   14.5790   22.8070 N   0  0  0  0  0  0  0  0  0  0  0  0
    9.5030   15.2210   21.4960 C   0  0  0  0  0  0  0  0  0  0  0  0
   10.7810   14.9830   20.6880 C   0  0  1  0  0  0  0  0  0  0  0  0
   10.7120   15.4940   19.2590 C   0  0  0  0  0  0  0  0  0  0  0  0
   10.3370   16.6480   19.0130 O   0  0  0  0  0  0  0  0  0  0  0  0
   11.0370   14.6150   18.3110 N   0  0  0  0  0  0  0  0  0  0  0  0
   11.9660   15.5770   21.4750 C   0  0  0  0  0  0  0  0  0  0  0  0
   12.0650   14.9420   22.8660 C   0  0  0  0  0  0  0  0  0  0  0  0
   10.7520   15.0870   23.6240 C   0  0  0  0  0  0  0  0  0  0  0  0
  5  4  1  0
  4  9  2  0
  9  7  1  0
  8  7  1  0
  7  6  2  0
 10  6  1  0
 11 10  1  0
 12 11  2  0
 13 11  1  0
 13 21  1  0
 21 20  1  0
 20 19  1  0
 19 15  1  0
 15 16  1  6
 18 16  1  0
 17 16  2  0
 15 14  1  0
 14 13  1  0
  6  2  1  0
  2  1  2  0
  3  2  1  0
  4  3  1  0
M  END
>  <smiles>  (99) 
Cc1cc(C)c(CC(=O)N2CCC[C@H](C(N)=O)C2)c(=O)[nH]1

>  <inchikey>  (99) 
BAOPJNLBCKGSSV-NSHDSACASA-N

>  <alias>  (99) 
A4291a

$$$$
A4317a
     RDKit          3D

 21 23  0  0  0  0  0  0  0  0999 V2000
   10.3940   16.5480   19.2530 O   0  0  0  0  0  0  0  0  0  0  0  0
   10.8390   15.4100   19.4510 C   0  0  0  0  0  0  0  0  0  0  0  0
   11.1610   14.5880   18.4590 N   0  0  0  0  0  0  0  0  0  0  0  0
   10.9680   14.8440   20.8570 C   0  0  2  0  0  0  0  0  0  0  0  0
    9.6080   14.6330   21.5280 C   0  0  0  0  0  0  0  0  0  0  0  0
   11.7260   15.7050   21.8820 C   0  0  0  0  0  0  0  0  0  0  0  0
   11.3010   15.0300   23.2090 C   0  0  0  0  0  0  0  0  0  0  0  0
   11.6480   15.6390   24.5300 C   0  0  0  0  0  0  0  0  0  0  0  0
   12.2610   14.3270   24.1140 C   0  0  0  0  0  0  0  0  0  0  0  0
    9.9570   14.4810   22.9490 N   0  0  0  0  0  0  0  0  0  0  0  0
    9.1360   13.9960   23.9150 C   0  0  0  0  0  0  0  0  0  0  0  0
    9.4460   13.9480   25.0960 O   0  0  0  0  0  0  0  0  0  0  0  0
    7.7760   13.4990   23.4690 C   0  0  0  0  0  0  0  0  0  0  0  0
    7.2460   12.4610   24.4320 C   0  0  0  0  0  0  0  0  0  0  0  0
    7.6360   11.1280   24.3070 C   0  0  0  0  0  0  0  0  0  0  0  0
    8.6070   10.8980   23.3720 O   0  0  0  0  0  0  0  0  0  0  0  0
    9.1190    9.5620   23.2500 C   0  0  0  0  0  0  0  0  0  0  0  0
    6.3050   12.7820   25.4050 C   0  0  0  0  0  0  0  0  0  0  0  0
    5.7340   11.7980   26.2010 C   0  0  0  0  0  0  0  0  0  0  0  0
    6.1030   10.4800   26.0390 C   0  0  0  0  0  0  0  0  0  0  0  0
    7.0460   10.1350   25.0830 C   0  0  0  0  0  0  0  0  0  0  0  0
 17 16  1  0
 16 15  1  0
 15 21  2  0
 21 20  1  0
 20 19  2  0
 19 18  1  0
 18 14  2  0
 15 14  1  0
 14 13  1  0
 13 11  1  0
 12 11  2  0
 11 10  1  0
 10  5  1  0
  5  4  1  0
  4  2  1  6
  3  2  1  0
  2  1  2  0
  6  4  1  0
  7  6  1  0
 10  7  1  0
  7  9  1  0
  9  8  1  0
  8  7  1  0
M  END
>  <smiles>  (100) 
COc1ccccc1CC(=O)N1C[C@@H](C(N)=O)CC12CC2

>  <inchikey>  (100) 
APDQHJBCMAYJOC-LBPRGKRZSA-N

>  <alias>  (100) 
A4317a

$$$$
A4319a
     RDKit          3D

 22 23  0  0  0  0  0  0  0  0999 V2000
    9.1060    8.5700   23.4950 F   0  0  0  0  0  0  0  0  0  0  0  0
    9.7320    9.6860   23.8570 C   0  0  0  0  0  0  0  0  0  0  0  0
   10.2080    9.8060   22.6100 F   0  0  0  0  0  0  0  0  0  0  0  0
    8.8780   10.7190   23.8350 O   0  0  0  0  0  0  0  0  0  0  0  0
    7.8570   10.9260   24.7310 C   0  0  0  0  0  0  0  0  0  0  0  0
    7.0060    9.9290   25.1800 C   0  0  0  0  0  0  0  0  0  0  0  0
    5.9530   10.2590   26.0190 C   0  0  0  0  0  0  0  0  0  0  0  0
    5.7620   11.5610   26.4130 C   0  0  0  0  0  0  0  0  0  0  0  0
    6.6200   12.5520   25.9740 C   0  0  0  0  0  0  0  0  0  0  0  0
    7.6800   12.2550   25.1230 C   0  0  0  0  0  0  0  0  0  0  0  0
    8.6580   13.3250   24.6960 C   0  0  0  0  0  0  0  0  0  0  0  0
    8.4720   13.7780   23.2560 C   0  0  0  0  0  0  0  0  0  0  0  0
    7.6100   13.2970   22.5360 O   0  0  0  0  0  0  0  0  0  0  0  0
    9.2910   14.7630   22.8320 N   0  0  0  0  0  0  0  0  0  0  0  0
   10.2960   15.4420   23.6660 C   0  0  0  0  0  0  0  0  0  0  0  0
   11.6750   15.3680   23.0380 C   0  0  0  0  0  0  0  0  0  0  0  0
   11.6440   15.8440   21.5800 C   0  0  0  0  0  0  0  0  0  0  0  0
    9.2060   15.2780   21.4610 C   0  0  0  0  0  0  0  0  0  0  0  0
   10.5600   15.1150   20.7690 C   0  0  1  0  0  0  0  0  0  0  0  0
   10.5280   15.5820   19.3240 C   0  0  0  0  0  0  0  0  0  0  0  0
   10.8010   14.8070   18.4030 O   0  0  0  0  0  0  0  0  0  0  0  0
   10.1890   16.8470   19.1230 N   0  0  0  0  0  0  0  0  0  0  0  0
 22 20  1  0
 21 20  2  0
 19 20  1  6
 19 17  1  0
 17 16  1  0
 16 15  1  0
 15 14  1  0
 14 12  1  0
 13 12  2  0
 12 11  1  0
 11 10  1  0
 10  9  2  0
  9  8  1  0
  8  7  2  0
  7  6  1  0
  6  5  2  0
 10  5  1  0
  5  4  1  0
  4  2  1  0
  3  2  1  0
  2  1  1  0
 18 14  1  0
 19 18  1  0
M  END
>  <smiles>  (101) 
NC(=O)[C@H]1CCCN(C(=O)Cc2ccccc2OC(F)F)C1

>  <inchikey>  (101) 
CNHPUFFRJJADDP-NSHDSACASA-N

>  <alias>  (101) 
A4319a

$$$$
A4321a
     RDKit          3D

 21 22  0  0  0  0  0  0  0  0999 V2000
   10.3900   16.7560   19.1480 O   0  0  0  0  0  0  0  0  0  0  0  0
   10.7140   15.5890   19.3960 C   0  0  0  0  0  0  0  0  0  0  0  0
   10.9730   14.6950   18.4470 N   0  0  0  0  0  0  0  0  0  0  0  0
   10.7750   15.0810   20.8260 C   0  0  1  0  0  0  0  0  0  0  0  0
   11.9240   15.7330   21.6150 C   0  0  0  0  0  0  0  0  0  0  0  0
   11.9380   15.2400   23.0670 C   0  0  0  0  0  0  0  0  0  0  0  0
   10.5670   15.4220   23.7190 C   0  0  0  0  0  0  0  0  0  0  0  0
    9.4290   15.2930   21.5260 C   0  0  0  0  0  0  0  0  0  0  0  0
    9.5040   14.8050   22.9060 N   0  0  0  0  0  0  0  0  0  0  0  0
    8.6480   13.8520   23.3380 C   0  0  0  0  0  0  0  0  0  0  0  0
    7.8090   13.3550   22.6050 O   0  0  0  0  0  0  0  0  0  0  0  0
    8.7570   13.4470   24.7970 C   0  0  0  0  0  0  0  0  0  0  0  0
    7.8190   12.3150   25.1570 C   0  0  0  0  0  0  0  0  0  0  0  0
    8.0840   10.9860   24.7970 C   0  0  0  0  0  0  0  0  0  0  0  0
    9.3430   10.6160   24.0330 C   0  0  0  0  0  0  0  0  0  0  0  0
    9.4560    9.1810   23.7870 C   0  0  0  0  0  0  0  0  0  0  0  0
    9.5270    8.0680   23.5790 N   0  0  0  0  0  0  0  0  0  0  0  0
    6.6880   12.5930   25.9210 C   0  0  0  0  0  0  0  0  0  0  0  0
    5.8430   11.5800   26.3440 C   0  0  0  0  0  0  0  0  0  0  0  0
    6.1020   10.2840   25.9890 C   0  0  0  0  0  0  0  0  0  0  0  0
    7.2070    9.9860   25.2040 C   0  0  0  0  0  0  0  0  0  0  0  0
 17 16  3  0
 16 15  1  0
 15 14  1  0
 14 21  2  0
 21 20  1  0
 20 19  2  0
 19 18  1  0
 18 13  2  0
 14 13  1  0
 13 12  1  0
 12 10  1  0
 11 10  2  0
 10  9  1  0
  9  7  1  0
  7  6  1  0
  6  5  1  0
  5  4  1  0
  4  2  1  6
  3  2  1  0
  2  1  2  0
  8  4  1  0
  9  8  1  0
M  END
>  <smiles>  (102) 
N#CCc1ccccc1CC(=O)N1CCC[C@H](C(N)=O)C1

>  <inchikey>  (102) 
SPTOPDLRNCGQBI-AWEZNQCLSA-N

>  <alias>  (102) 
A4321a

$$$$
A4321b
     RDKit          3D

 21 22  0  0  0  0  0  0  0  0999 V2000
   10.4320   16.7650   19.1570 O   0  0  0  0  0  0  0  0  0  0  0  0
   10.7760   15.5980   19.3930 C   0  0  0  0  0  0  0  0  0  0  0  0
   11.0030   14.7010   18.4370 N   0  0  0  0  0  0  0  0  0  0  0  0
   10.9010   15.0950   20.8220 C   0  0  1  0  0  0  0  0  0  0  0  0
   12.0500   15.7970   21.5660 C   0  0  0  0  0  0  0  0  0  0  0  0
   12.1110   15.3520   23.0310 C   0  0  0  0  0  0  0  0  0  0  0  0
   10.7440   15.5140   23.7200 C   0  0  0  0  0  0  0  0  0  0  0  0
    9.5780   15.2810   21.5630 C   0  0  0  0  0  0  0  0  0  0  0  0
    9.6920   14.8270   22.9530 N   0  0  0  0  0  0  0  0  0  0  0  0
    8.8810   13.8470   23.4200 C   0  0  0  0  0  0  0  0  0  0  0  0
    8.0210   13.3210   22.7170 O   0  0  0  0  0  0  0  0  0  0  0  0
    9.0740   13.4330   24.8710 C   0  0  0  0  0  0  0  0  0  0  0  0
    8.1580   12.2940   25.2780 C   0  0  0  0  0  0  0  0  0  0  0  0
    8.3980   10.9670   24.8850 C   0  0  0  0  0  0  0  0  0  0  0  0
    9.6270   10.5990   24.0780 C   0  0  0  0  0  0  0  0  0  0  0  0
    9.7220    9.1660   23.8080 C   0  0  0  0  0  0  0  0  0  0  0  0
    9.7820    8.0570   23.5800 N   0  0  0  0  0  0  0  0  0  0  0  0
    7.0650   12.5660   26.0970 C   0  0  0  0  0  0  0  0  0  0  0  0
    6.2210   11.5520   26.5190 C   0  0  0  0  0  0  0  0  0  0  0  0
    6.4490   10.2560   26.1230 C   0  0  0  0  0  0  0  0  0  0  0  0
    7.5250    9.9630   25.3030 C   0  0  0  0  0  0  0  0  0  0  0  0
 17 16  3  0
 16 15  1  0
 15 14  1  0
 14 21  2  0
 21 20  1  0
 20 19  2  0
 19 18  1  0
 18 13  2  0
 14 13  1  0
 13 12  1  0
 12 10  1  0
 11 10  2  0
 10  9  1  0
  9  7  1  0
  7  6  1  0
  6  5  1  0
  5  4  1  0
  4  2  1  6
  3  2  1  0
  2  1  2  0
  8  4  1  0
  9  8  1  0
M  END
>  <smiles>  (103) 
N#CCc1ccccc1CC(=O)N1CCC[C@H](C(N)=O)C1

>  <inchikey>  (103) 
SPTOPDLRNCGQBI-AWEZNQCLSA-N

>  <alias>  (103) 
A4321b

$$$$
A4331a
     RDKit          3D

 20 21  0  0  0  0  0  0  0  0999 V2000
   10.3900   16.6700   19.1820 O   0  0  0  0  0  0  0  0  0  0  0  0
   10.7360   15.5110   19.4360 C   0  0  0  0  0  0  0  0  0  0  0  0
   11.0280   14.6230   18.4940 N   0  0  0  0  0  0  0  0  0  0  0  0
   10.7800   15.0020   20.8680 C   0  0  1  0  0  0  0  0  0  0  0  0
   11.8980   15.6810   21.6880 C   0  0  0  0  0  0  0  0  0  0  0  0
   11.9190   15.1450   23.1250 C   0  0  0  0  0  0  0  0  0  0  0  0
   10.5450   15.2800   23.7800 C   0  0  0  0  0  0  0  0  0  0  0  0
    9.4340   15.2130   21.5770 C   0  0  0  0  0  0  0  0  0  0  0  0
    9.4880   14.6820   22.9410 N   0  0  0  0  0  0  0  0  0  0  0  0
    8.6260   13.7250   23.3540 C   0  0  0  0  0  0  0  0  0  0  0  0
    7.7820   13.2410   22.6090 O   0  0  0  0  0  0  0  0  0  0  0  0
    8.7500   13.2780   24.8000 C   0  0  0  0  0  0  0  0  0  0  0  0
    7.7870   12.1660   25.1510 C   0  0  0  0  0  0  0  0  0  0  0  0
    8.0110   10.8310   24.7630 C   0  0  0  0  0  0  0  0  0  0  0  0
    9.2700   10.4120   24.0200 C   0  0  0  0  0  0  0  0  0  0  0  0
    9.3670    8.9500   23.6050 C   0  0  0  0  0  0  0  0  0  0  0  0
    6.6710   12.4690   25.9320 C   0  0  0  0  0  0  0  0  0  0  0  0
    5.7840   11.4780   26.3240 C   0  0  0  0  0  0  0  0  0  0  0  0
    5.9880   10.1810   25.9220 C   0  0  0  0  0  0  0  0  0  0  0  0
    7.0890    9.8580   25.1420 C   0  0  0  0  0  0  0  0  0  0  0  0
 16 15  1  0
 15 14  1  0
 14 20  2  0
 20 19  1  0
 19 18  2  0
 18 17  1  0
 17 13  2  0
 14 13  1  0
 13 12  1  0
 12 10  1  0
 11 10  2  0
 10  9  1  0
  9  7  1  0
  7  6  1  0
  6  5  1  0
  5  4  1  0
  4  2  1  6
  3  2  1  0
  2  1  2  0
  8  4  1  0
  9  8  1  0
M  END
>  <smiles>  (104) 
CCc1ccccc1CC(=O)N1CCC[C@H](C(N)=O)C1

>  <inchikey>  (104) 
IFJNGSWSPUXOCR-AWEZNQCLSA-N

>  <alias>  (104) 
A4331a

$$$$
A4331b
     RDKit          3D

 20 21  0  0  0  0  0  0  0  0999 V2000
   10.5010   16.7820   19.1570 O   0  0  0  0  0  0  0  0  0  0  0  0
   10.8430   15.6100   19.3500 C   0  0  0  0  0  0  0  0  0  0  0  0
   11.1290   14.7650   18.3680 N   0  0  0  0  0  0  0  0  0  0  0  0
   10.9630   15.0490   20.7570 C   0  0  1  0  0  0  0  0  0  0  0  0
   12.0890   15.7410   21.5510 C   0  0  0  0  0  0  0  0  0  0  0  0
   12.1000   15.3240   23.0280 C   0  0  0  0  0  0  0  0  0  0  0  0
   10.7070   15.4390   23.6540 C   0  0  0  0  0  0  0  0  0  0  0  0
    9.6180   15.2500   21.4620 C   0  0  0  0  0  0  0  0  0  0  0  0
    9.6980   14.7480   22.8350 N   0  0  0  0  0  0  0  0  0  0  0  0
    8.8530   13.7910   23.2880 C   0  0  0  0  0  0  0  0  0  0  0  0
    7.9670   13.3230   22.5880 O   0  0  0  0  0  0  0  0  0  0  0  0
    9.0270   13.3440   24.7300 C   0  0  0  0  0  0  0  0  0  0  0  0
    8.0470   12.2550   25.1210 C   0  0  0  0  0  0  0  0  0  0  0  0
    8.2190   10.9160   24.7240 C   0  0  0  0  0  0  0  0  0  0  0  0
    9.4040   10.4840   23.8790 C   0  0  0  0  0  0  0  0  0  0  0  0
    9.5350    9.0120   23.5310 C   0  0  0  0  0  0  0  0  0  0  0  0
    6.9840   12.5790   25.9620 C   0  0  0  0  0  0  0  0  0  0  0  0
    6.1020   11.6090   26.4070 C   0  0  0  0  0  0  0  0  0  0  0  0
    6.2610   10.3010   26.0080 C   0  0  0  0  0  0  0  0  0  0  0  0
    7.3090    9.9550   25.1690 C   0  0  0  0  0  0  0  0  0  0  0  0
 16 15  1  0
 15 14  1  0
 14 20  2  0
 20 19  1  0
 19 18  2  0
 18 17  1  0
 17 13  2  0
 14 13  1  0
 13 12  1  0
 12 10  1  0
 11 10  2  0
 10  9  1  0
  9  7  1  0
  7  6  1  0
  6  5  1  0
  5  4  1  0
  4  2  1  6
  3  2  1  0
  2  1  2  0
  8  4  1  0
  9  8  1  0
M  END
>  <smiles>  (105) 
CCc1ccccc1CC(=O)N1CCC[C@H](C(N)=O)C1

>  <inchikey>  (105) 
IFJNGSWSPUXOCR-AWEZNQCLSA-N

>  <alias>  (105) 
A4331b

$$$$
A4333a
     RDKit          3D

 19 20  0  0  0  0  0  0  0  0999 V2000
   10.4020   16.4890   19.3720 O   0  0  0  0  0  0  0  0  0  0  0  0
   10.8400   15.3530   19.5610 C   0  0  0  0  0  0  0  0  0  0  0  0
   11.2500   14.5750   18.5740 N   0  0  0  0  0  0  0  0  0  0  0  0
   10.9310   14.7680   20.9610 C   0  0  1  0  0  0  0  0  0  0  0  0
   12.0970   15.3750   21.7550 C   0  0  0  0  0  0  0  0  0  0  0  0
   12.1820   14.7930   23.1690 C   0  0  0  0  0  0  0  0  0  0  0  0
   10.8420   14.9010   23.8960 C   0  0  0  0  0  0  0  0  0  0  0  0
    9.6290   14.9380   21.7510 C   0  0  0  0  0  0  0  0  0  0  0  0
    9.7570   14.3340   23.0800 N   0  0  0  0  0  0  0  0  0  0  0  0
    8.9680   13.3030   23.4470 C   0  0  0  0  0  0  0  0  0  0  0  0
    8.0220   12.9410   22.7610 O   0  0  0  0  0  0  0  0  0  0  0  0
    9.3460   12.5890   24.7360 C   0  0  0  0  0  0  0  0  0  0  0  0
    8.3050   11.5840   25.1910 C   0  0  0  0  0  0  0  0  0  0  0  0
    8.2960   10.2430   24.7220 C   0  0  0  0  0  0  0  0  0  0  0  0
    9.3150    9.7400   23.7420 C   0  0  0  0  0  0  0  0  0  0  0  0
    7.3180   11.9500   26.1010 C   0  0  0  0  0  0  0  0  0  0  0  0
    6.3700   11.0290   26.5050 C   0  0  0  0  0  0  0  0  0  0  0  0
    6.4360    9.7530   25.9930 C   0  0  0  0  0  0  0  0  0  0  0  0
    7.3770    9.3520   25.1240 N   0  0  0  0  0  0  0  0  0  0  0  0
 15 14  1  0
 14 19  2  0
 19 18  1  0
 18 17  2  0
 17 16  1  0
 16 13  2  0
 14 13  1  0
 13 12  1  0
 12 10  1  0
 11 10  2  0
 10  9  1  0
  9  7  1  0
  7  6  1  0
  6  5  1  0
  5  4  1  0
  4  2  1  6
  3  2  1  0
  2  1  2  0
  8  4  1  0
  9  8  1  0
M  END
>  <smiles>  (106) 
Cc1ncccc1CC(=O)N1CCC[C@H](C(N)=O)C1

>  <inchikey>  (106) 
JMAAQTAWUKUKJY-LBPRGKRZSA-N

>  <alias>  (106) 
A4333a

$$$$
A4334a
     RDKit          3D

 20 21  0  0  0  0  0  0  0  0999 V2000
   10.3740   16.7780   19.0450 O   0  0  0  0  0  0  0  0  0  0  0  0
   10.7000   15.6120   19.3160 C   0  0  0  0  0  0  0  0  0  0  0  0
   10.9520   14.6900   18.4000 N   0  0  0  0  0  0  0  0  0  0  0  0
   10.7790   15.1330   20.7530 C   0  0  1  0  0  0  0  0  0  0  0  0
   11.9820   15.7310   21.4930 C   0  0  0  0  0  0  0  0  0  0  0  0
   12.0130   15.2700   22.9510 C   0  0  0  0  0  0  0  0  0  0  0  0
   10.6710   15.5240   23.6300 C   0  0  0  0  0  0  0  0  0  0  0  0
    9.4800   15.4860   21.4710 C   0  0  0  0  0  0  0  0  0  0  0  0
    9.5660   14.9640   22.8340 N   0  0  0  0  0  0  0  0  0  0  0  0
    8.7930   13.9260   23.2040 C   0  0  0  0  0  0  0  0  0  0  0  0
    7.8790   13.4920   22.5070 O   0  0  0  0  0  0  0  0  0  0  0  0
    9.1580   13.2950   24.5300 C   0  0  0  0  0  0  0  0  0  0  0  0
    8.5020   11.9530   24.6460 C   0  0  0  0  0  0  0  0  0  0  0  0
    8.9980   10.8610   23.9520 C   0  0  0  0  0  0  0  0  0  0  0  0
    8.4270    9.6190   24.1090 C   0  0  0  0  0  0  0  0  0  0  0  0
    7.3480    9.4530   24.9570 C   0  0  0  0  0  0  0  0  0  0  0  0
    7.4220   11.7820   25.4980 C   0  0  0  0  0  0  0  0  0  0  0  0
    6.8510   10.5370   25.6650 C   0  0  0  0  0  0  0  0  0  0  0  0
    5.5410   10.3320   26.8230 S   0  0  0  0  0  0  0  0  0  0  0  0
    5.1880   11.9900   27.4050 C   0  0  0  0  0  0  0  0  0  0  0  0
 20 19  1  0
 19 18  1  0
 18 16  2  0
 16 15  1  0
 15 14  2  0
 14 13  1  0
 13 12  1  0
 12 10  1  0
 11 10  2  0
 10  9  1  0
  9  7  1  0
  7  6  1  0
  6  5  1  0
  5  4  1  0
  4  2  1  6
  3  2  1  0
  2  1  2  0
  8  4  1  0
  9  8  1  0
 17 13  2  0
 18 17  1  0
M  END
>  <smiles>  (107) 
CSc1cccc(CC(=O)N2CCC[C@H](C(N)=O)C2)c1

>  <inchikey>  (107) 
YEEQWHOUTZRGAB-LBPRGKRZSA-N

>  <alias>  (107) 
A4334a

$$$$
A4334b
     RDKit          3D

 20 21  0  0  0  0  0  0  0  0999 V2000
   10.4160   16.8520   19.0590 O   0  0  0  0  0  0  0  0  0  0  0  0
   10.7550   15.6870   19.3220 C   0  0  0  0  0  0  0  0  0  0  0  0
   10.9920   14.7630   18.3980 N   0  0  0  0  0  0  0  0  0  0  0  0
   10.8720   15.2200   20.7600 C   0  0  1  0  0  0  0  0  0  0  0  0
   12.0560   15.8990   21.4770 C   0  0  0  0  0  0  0  0  0  0  0  0
   12.1300   15.4630   22.9430 C   0  0  0  0  0  0  0  0  0  0  0  0
   10.7890   15.6580   23.6440 C   0  0  0  0  0  0  0  0  0  0  0  0
    9.5760   15.5320   21.5070 C   0  0  0  0  0  0  0  0  0  0  0  0
    9.7020   15.0290   22.8730 N   0  0  0  0  0  0  0  0  0  0  0  0
    8.9530   13.9700   23.2580 C   0  0  0  0  0  0  0  0  0  0  0  0
    8.0230   13.5310   22.5740 O   0  0  0  0  0  0  0  0  0  0  0  0
    9.3310   13.3360   24.5830 C   0  0  0  0  0  0  0  0  0  0  0  0
    8.6910   11.9730   24.6990 C   0  0  0  0  0  0  0  0  0  0  0  0
    9.1920   10.8860   23.9900 C   0  0  0  0  0  0  0  0  0  0  0  0
    8.6290    9.6300   24.1360 C   0  0  0  0  0  0  0  0  0  0  0  0
    7.5510    9.4460   24.9800 C   0  0  0  0  0  0  0  0  0  0  0  0
    7.6040   11.7800   25.5420 C   0  0  0  0  0  0  0  0  0  0  0  0
    7.0400   10.5190   25.6920 C   0  0  0  0  0  0  0  0  0  0  0  0
    5.6970   10.2340   26.7930 S   0  0  0  0  0  0  0  0  0  0  0  0
    5.3260   11.8630   27.4590 C   0  0  0  0  0  0  0  0  0  0  0  0
 20 19  1  0
 19 18  1  0
 18 16  2  0
 16 15  1  0
 15 14  2  0
 14 13  1  0
 13 12  1  0
 12 10  1  0
 11 10  2  0
 10  9  1  0
  9  7  1  0
  7  6  1  0
  6  5  1  0
  5  4  1  0
  4  2  1  6
  3  2  1  0
  2  1  2  0
  8  4  1  0
  9  8  1  0
 17 13  2  0
 18 17  1  0
M  END
>  <smiles>  (108) 
CSc1cccc(CC(=O)N2CCC[C@H](C(N)=O)C2)c1

>  <inchikey>  (108) 
YEEQWHOUTZRGAB-LBPRGKRZSA-N

>  <alias>  (108) 
A4334b

$$$$
A4341a
     RDKit          3D

 21 23  0  0  0  0  0  0  0  0999 V2000
   10.1040   13.5670   25.1020 O   0  0  0  0  0  0  0  0  0  0  0  0
    9.6420   13.8790   24.0130 C   0  0  0  0  0  0  0  0  0  0  0  0
   10.4250   14.2980   22.9980 N   0  0  0  0  0  0  0  0  0  0  0  0
   11.8770   14.3810   23.2260 C   0  0  0  0  0  0  0  0  0  0  0  0
   12.3950   15.7370   22.8380 C   0  0  0  0  0  0  0  0  0  0  0  0
   11.9610   16.1200   21.4250 C   0  0  0  0  0  0  0  0  0  0  0  0
    9.9540   14.6920   21.6630 C   0  0  0  0  0  0  0  0  0  0  0  0
   11.1370   15.0280   20.7410 C   0  0  1  0  0  0  0  0  0  0  0  0
   10.7980   15.4560   19.3240 C   0  0  0  0  0  0  0  0  0  0  0  0
   10.2380   16.5350   19.1010 O   0  0  0  0  0  0  0  0  0  0  0  0
   11.2210   14.6500   18.3640 N   0  0  0  0  0  0  0  0  0  0  0  0
    8.1710   13.6560   23.7280 C   0  0  0  0  0  0  0  0  0  0  0  0
    7.7760   12.3190   24.3000 C   0  0  0  0  0  0  0  0  0  0  0  0
    8.4400   11.1500   23.8770 C   0  0  0  0  0  0  0  0  0  0  0  0
    9.4730   10.9950   22.8860 C   0  0  0  0  0  0  0  0  0  0  0  0
    9.8800    9.7190   22.7600 C   0  0  0  0  0  0  0  0  0  0  0  0
    9.0550    8.6280   23.8050 S   0  0  0  0  0  0  0  0  0  0  0  0
    8.1080    9.9260   24.4680 C   0  0  0  0  0  0  0  0  0  0  0  0
    7.1310    9.8280   25.4550 C   0  0  0  0  0  0  0  0  0  0  0  0
    6.4930   10.9850   25.8770 C   0  0  0  0  0  0  0  0  0  0  0  0
    6.8150   12.2150   25.3100 C   0  0  0  0  0  0  0  0  0  0  0  0
 11  9  1  0
 10  9  2  0
  8  9  1  6
  8  6  1  0
  6  5  1  0
  5  4  1  0
  4  3  1  0
  3  2  1  0
  2  1  2  0
 12  2  1  0
 13 12  1  0
 13 21  1  0
 21 20  2  0
 20 19  1  0
 19 18  2  0
 18 17  1  0
 17 16  1  0
 16 15  2  0
 15 14  1  0
 14 13  2  0
 18 14  1  0
  7  3  1  0
  8  7  1  0
M  END
>  <smiles>  (109) 
NC(=O)[C@H]1CCCN(C(=O)Cc2cccc3sccc23)C1

>  <inchikey>  (109) 
HCUJWCCUGKJCFJ-LBPRGKRZSA-N

>  <alias>  (109) 
A4341a

$$$$
A4343a
     RDKit          3D

 20 21  0  0  0  0  0  0  0  0999 V2000
    6.3820   12.8250   26.3430 Br  0  0  0  0  0  0  0  0  0  0  0  0
    7.3580   11.4410   25.4870 C   0  0  0  0  0  0  0  0  0  0  0  0
    6.9750   10.1350   25.5640 C   0  0  0  0  0  0  0  0  0  0  0  0
    5.9720    9.7410   26.2990 O   0  0  0  0  0  0  0  0  0  0  0  0
    7.6260    9.1180   24.8720 N   0  0  0  0  0  0  0  0  0  0  0  0
    8.6730    9.4850   24.1200 C   0  0  0  0  0  0  0  0  0  0  0  0
    9.1160   10.7790   24.0140 C   0  0  0  0  0  0  0  0  0  0  0  0
    8.4570   11.7880   24.7130 C   0  0  0  0  0  0  0  0  0  0  0  0
    8.9270   13.2140   24.6150 C   0  0  0  0  0  0  0  0  0  0  0  0
    8.6280   13.7690   23.2410 C   0  0  0  0  0  0  0  0  0  0  0  0
    7.7530   13.3050   22.5250 O   0  0  0  0  0  0  0  0  0  0  0  0
    9.4080   14.8020   22.8680 N   0  0  0  0  0  0  0  0  0  0  0  0
   10.4550   15.4120   23.7060 C   0  0  0  0  0  0  0  0  0  0  0  0
   11.8240   15.2270   23.0730 C   0  0  0  0  0  0  0  0  0  0  0  0
   11.8150   15.7360   21.6330 C   0  0  0  0  0  0  0  0  0  0  0  0
    9.3390   15.3160   21.5010 C   0  0  0  0  0  0  0  0  0  0  0  0
   10.6880   15.0600   20.8360 C   0  0  1  0  0  0  0  0  0  0  0  0
   10.6850   15.4680   19.3750 C   0  0  0  0  0  0  0  0  0  0  0  0
   10.9470   14.6440   18.4940 O   0  0  0  0  0  0  0  0  0  0  0  0
   10.2580   16.6860   19.1050 N   0  0  0  0  0  0  0  0  0  0  0  0
 20 18  1  0
 19 18  2  0
 17 18  1  6
 17 15  1  0
 15 14  1  0
 14 13  1  0
 13 12  1  0
 12 10  1  0
 11 10  2  0
 10  9  1  0
  9  8  1  0
  8  7  2  0
  7  6  1  0
  6  5  2  0
  5  3  1  0
  4  3  1  0
  3  2  2  0
  8  2  1  0
  2  1  1  0
 16 12  1  0
 17 16  1  0
M  END
>  <smiles>  (110) 
NC(=O)[C@H]1CCCN(C(=O)Cc2ccnc(O)c2Br)C1

>  <inchikey>  (110) 
FEHFYYIVCWNAFS-VIFPVBQESA-N

>  <alias>  (110) 
A4343a

$$$$
A4343b
     RDKit          3D

 20 21  0  0  0  0  0  0  0  0999 V2000
    6.6700   12.7330   26.4780 Br  0  0  0  0  0  0  0  0  0  0  0  0
    7.6250   11.3990   25.5560 C   0  0  0  0  0  0  0  0  0  0  0  0
    7.2200   10.0890   25.6240 C   0  0  0  0  0  0  0  0  0  0  0  0
    6.2130    9.6830   26.3610 O   0  0  0  0  0  0  0  0  0  0  0  0
    7.8590    9.0890   24.9110 N   0  0  0  0  0  0  0  0  0  0  0  0
    8.9030    9.4650   24.1540 C   0  0  0  0  0  0  0  0  0  0  0  0
    9.3590   10.7620   24.0600 C   0  0  0  0  0  0  0  0  0  0  0  0
    8.7170   11.7670   24.7790 C   0  0  0  0  0  0  0  0  0  0  0  0
    9.1920   13.1970   24.6810 C   0  0  0  0  0  0  0  0  0  0  0  0
    8.8440   13.7850   23.3250 C   0  0  0  0  0  0  0  0  0  0  0  0
    7.9470   13.3180   22.6280 O   0  0  0  0  0  0  0  0  0  0  0  0
    9.5860   14.8420   22.9340 N   0  0  0  0  0  0  0  0  0  0  0  0
   10.6160   15.5170   23.7400 C   0  0  0  0  0  0  0  0  0  0  0  0
   11.9810   15.3660   23.0770 C   0  0  0  0  0  0  0  0  0  0  0  0
   11.9340   15.8260   21.6170 C   0  0  0  0  0  0  0  0  0  0  0  0
    9.4840   15.3500   21.5650 C   0  0  0  0  0  0  0  0  0  0  0  0
   10.8100   15.1100   20.8430 C   0  0  1  0  0  0  0  0  0  0  0  0
   10.7320   15.5990   19.4090 C   0  0  0  0  0  0  0  0  0  0  0  0
   10.3620   16.7530   19.1520 O   0  0  0  0  0  0  0  0  0  0  0  0
   11.0090   14.6990   18.4800 N   0  0  0  0  0  0  0  0  0  0  0  0
 20 18  1  0
 19 18  2  0
 17 18  1  6
 17 15  1  0
 15 14  1  0
 14 13  1  0
 13 12  1  0
 12 10  1  0
 11 10  2  0
 10  9  1  0
  9  8  1  0
  8  7  2  0
  7  6  1  0
  6  5  2  0
  5  3  1  0
  4  3  1  0
  3  2  2  0
  8  2  1  0
  2  1  1  0
 16 12  1  0
 17 16  1  0
M  END
>  <smiles>  (111) 
NC(=O)[C@H]1CCCN(C(=O)Cc2ccnc(O)c2Br)C1

>  <inchikey>  (111) 
FEHFYYIVCWNAFS-VIFPVBQESA-N

>  <alias>  (111) 
A4343b

$$$$
A4344a
     RDKit          3D

 21 23  0  0  0  0  0  0  0  0999 V2000
    9.9410   13.6000   25.0770 O   0  0  0  0  0  0  0  0  0  0  0  0
    9.4670   13.9340   23.9990 C   0  0  0  0  0  0  0  0  0  0  0  0
   10.1270   14.7460   23.1460 N   0  0  0  0  0  0  0  0  0  0  0  0
   11.2200   15.5650   23.6920 C   0  0  0  0  0  0  0  0  0  0  0  0
   12.4350   15.4520   22.8260 C   0  0  0  0  0  0  0  0  0  0  0  0
   12.1010   15.9120   21.4170 C   0  0  0  0  0  0  0  0  0  0  0  0
    9.7550   15.0030   21.7480 C   0  0  0  0  0  0  0  0  0  0  0  0
   10.9780   15.0580   20.8190 C   0  0  1  0  0  0  0  0  0  0  0  0
   10.6590   15.5460   19.4160 C   0  0  0  0  0  0  0  0  0  0  0  0
   10.2520   16.6950   19.2180 O   0  0  0  0  0  0  0  0  0  0  0  0
   10.9520   14.7120   18.4360 N   0  0  0  0  0  0  0  0  0  0  0  0
    8.0830   13.4590   23.6080 C   0  0  0  0  0  0  0  0  0  0  0  0
    7.7430   12.2130   24.3930 C   0  0  0  0  0  0  0  0  0  0  0  0
    8.3790   11.0090   24.0750 C   0  0  0  0  0  0  0  0  0  0  0  0
    9.6210   10.7980   23.2510 C   0  0  0  0  0  0  0  0  0  0  0  0
    9.8970    9.2980   23.3740 C   0  0  0  0  0  0  0  0  0  0  0  0
    8.6600    8.6640   23.9870 C   0  0  0  0  0  0  0  0  0  0  0  0
    7.9470    9.8230   24.6310 C   0  0  0  0  0  0  0  0  0  0  0  0
    6.9340    9.8260   25.5840 C   0  0  0  0  0  0  0  0  0  0  0  0
    6.3570   11.0260   25.9780 C   0  0  0  0  0  0  0  0  0  0  0  0
    6.7530   12.2140   25.3780 C   0  0  0  0  0  0  0  0  0  0  0  0
 11  9  1  0
 10  9  2  0
  8  9  1  6
  8  6  1  0
  6  5  1  0
  5  4  1  0
  4  3  1  0
  3  2  1  0
  2  1  2  0
 12  2  1  0
 13 12  1  0
 13 21  2  0
 21 20  1  0
 20 19  2  0
 19 18  1  0
 18 14  2  0
 14 13  1  0
 15 14  1  0
 16 15  1  0
 17 16  1  0
 18 17  1  0
  7  3  1  0
  8  7  1  0
M  END
>  <smiles>  (112) 
NC(=O)[C@H]1CCCN(C(=O)Cc2cccc3c2CCC3)C1

>  <inchikey>  (112) 
HYRQJBRGWDRDDU-AWEZNQCLSA-N

>  <alias>  (112) 
A4344a

$$$$
A4347a
     RDKit          3D

 20 21  0  0  0  0  0  0  0  0999 V2000
   10.4570   16.5920   19.2800 O   0  0  0  0  0  0  0  0  0  0  0  0
   10.8680   15.4450   19.4840 C   0  0  0  0  0  0  0  0  0  0  0  0
   11.1940   14.6230   18.5050 N   0  0  0  0  0  0  0  0  0  0  0  0
   10.9390   14.8670   20.8890 C   0  0  1  0  0  0  0  0  0  0  0  0
   12.1270   15.4380   21.6880 C   0  0  0  0  0  0  0  0  0  0  0  0
   12.2300   14.7960   23.0760 C   0  0  0  0  0  0  0  0  0  0  0  0
   10.9120   14.9090   23.8220 C   0  0  0  0  0  0  0  0  0  0  0  0
    9.6500   14.9960   21.7030 C   0  0  0  0  0  0  0  0  0  0  0  0
    9.8030   14.3670   23.0180 N   0  0  0  0  0  0  0  0  0  0  0  0
    8.9440   13.4070   23.4270 C   0  0  0  0  0  0  0  0  0  0  0  0
    8.0290   13.0060   22.7130 O   0  0  0  0  0  0  0  0  0  0  0  0
    9.1720   12.8620   24.8260 C   0  0  0  0  0  0  0  0  0  0  0  0
    8.2550   11.7130   25.1830 C   0  0  0  0  0  0  0  0  0  0  0  0
    8.3530   10.4180   24.6220 C   0  0  0  0  0  0  0  0  0  0  0  0
    9.3990   10.2460   23.7840 O   0  0  0  0  0  0  0  0  0  0  0  0
    9.5410    8.9890   23.1330 C   0  0  0  0  0  0  0  0  0  0  0  0
    7.2850   11.8780   26.1650 C   0  0  0  0  0  0  0  0  0  0  0  0
    6.4650   10.8260   26.5270 C   0  0  0  0  0  0  0  0  0  0  0  0
    6.6290    9.6250   25.8900 C   0  0  0  0  0  0  0  0  0  0  0  0
    7.5550    9.4050   24.9440 N   0  0  0  0  0  0  0  0  0  0  0  0
 16 15  1  0
 15 14  1  0
 14 20  2  0
 20 19  1  0
 19 18  2  0
 18 17  1  0
 17 13  2  0
 14 13  1  0
 13 12  1  0
 12 10  1  0
 11 10  2  0
 10  9  1  0
  9  7  1  0
  7  6  1  0
  6  5  1  0
  5  4  1  0
  4  2  1  6
  3  2  1  0
  2  1  2  0
  8  4  1  0
  9  8  1  0
M  END
>  <smiles>  (113) 
COc1ncccc1CC(=O)N1CCC[C@H](C(N)=O)C1

>  <inchikey>  (113) 
DPQNQDXNIINHJH-NSHDSACASA-N

>  <alias>  (113) 
A4347a

$$$$
A4350a
     RDKit          3D

 19 20  0  0  0  0  0  0  0  0999 V2000
   10.4790   16.7580   19.2200 O   0  0  0  0  0  0  0  0  0  0  0  0
   10.7690   15.5770   19.4340 C   0  0  0  0  0  0  0  0  0  0  0  0
   11.0700   14.7260   18.4670 N   0  0  0  0  0  0  0  0  0  0  0  0
   10.8130   15.0230   20.8490 C   0  0  1  0  0  0  0  0  0  0  0  0
   11.9160   15.6980   21.6850 C   0  0  0  0  0  0  0  0  0  0  0  0
   11.9260   15.1980   23.1330 C   0  0  0  0  0  0  0  0  0  0  0  0
   10.5540   15.3440   23.7620 C   0  0  0  0  0  0  0  0  0  0  0  0
    9.4690   15.2220   21.5530 C   0  0  0  0  0  0  0  0  0  0  0  0
    9.5370   14.6940   22.9200 N   0  0  0  0  0  0  0  0  0  0  0  0
    8.7310   13.6860   23.3130 C   0  0  0  0  0  0  0  0  0  0  0  0
    7.8590   13.2380   22.5880 O   0  0  0  0  0  0  0  0  0  0  0  0
    8.9510   13.1270   24.7050 C   0  0  0  0  0  0  0  0  0  0  0  0
    8.7030   11.6360   24.7230 C   0  0  0  0  0  0  0  0  0  0  0  0
    7.6540   11.0680   25.4530 C   0  0  0  0  0  0  0  0  0  0  0  0
    6.7530   11.8870   26.3440 C   0  0  0  0  0  0  0  0  0  0  0  0
    9.4730   10.8110   23.9090 C   0  0  0  0  0  0  0  0  0  0  0  0
    9.1670    9.4700   23.8330 C   0  0  0  0  0  0  0  0  0  0  0  0
    8.1620    8.9060   24.5120 N   0  0  0  0  0  0  0  0  0  0  0  0
    7.4370    9.7070   25.3030 C   0  0  0  0  0  0  0  0  0  0  0  0
 15 14  1  0
 14 19  2  0
 19 18  1  0
 18 17  2  0
 17 16  1  0
 16 13  2  0
 14 13  1  0
 13 12  1  0
 12 10  1  0
 11 10  2  0
 10  9  1  0
  9  7  1  0
  7  6  1  0
  6  5  1  0
  5  4  1  0
  4  2  1  6
  3  2  1  0
  2  1  2  0
  8  4  1  0
  9  8  1  0
M  END
>  <smiles>  (114) 
Cc1cnccc1CC(=O)N1CCC[C@H](C(N)=O)C1

>  <inchikey>  (114) 
CGUHDJYKIPZZJZ-LBPRGKRZSA-N

>  <alias>  (114) 
A4350a

$$$$
A4365a
     RDKit          3D

 22 24  0  0  0  0  0  0  0  0999 V2000
    7.8720   13.5680   22.6130 O   0  0  0  0  0  0  0  0  0  0  0  0
    8.8350   13.9310   23.2800 C   0  0  0  0  0  0  0  0  0  0  0  0
    9.5760   15.0080   22.9590 N   0  0  0  0  0  0  0  0  0  0  0  0
   10.7350   15.4950   23.7200 C   0  0  0  0  0  0  0  0  0  0  0  0
   12.0220   15.2160   22.9450 C   0  0  0  0  0  0  0  0  0  0  0  0
   11.9180   15.7360   21.5090 C   0  0  0  0  0  0  0  0  0  0  0  0
    9.4380   15.6050   21.6300 C   0  0  0  0  0  0  0  0  0  0  0  0
   10.6580   15.1860   20.8110 C   0  0  1  0  0  0  0  0  0  0  0  0
   10.5700   15.6290   19.3620 C   0  0  0  0  0  0  0  0  0  0  0  0
   10.3070   16.7960   19.0680 O   0  0  0  0  0  0  0  0  0  0  0  0
   10.7870   14.6860   18.4560 N   0  0  0  0  0  0  0  0  0  0  0  0
    9.3380   13.1320   24.4640 C   0  0  0  0  0  0  0  0  0  0  0  0
    8.5330   11.8690   24.6110 C   0  0  0  0  0  0  0  0  0  0  0  0
    7.3910   11.8490   25.4050 C   0  0  0  0  0  0  0  0  0  0  0  0
    6.9550   13.0550   25.8950 O   0  0  0  0  0  0  0  0  0  0  0  0
    6.0900   12.9860   27.0570 C   0  0  0  0  0  0  0  0  0  0  0  0
    5.0750   11.8960   26.9180 C   0  0  0  0  0  0  0  0  0  0  0  0
    5.6050   10.6180   26.4650 O   0  0  0  0  0  0  0  0  0  0  0  0
    6.6920   10.6680   25.6270 C   0  0  0  0  0  0  0  0  0  0  0  0
    7.1150    9.4960   25.0220 C   0  0  0  0  0  0  0  0  0  0  0  0
    8.2360    9.5100   24.2090 C   0  0  0  0  0  0  0  0  0  0  0  0
    8.9410   10.6840   24.0030 C   0  0  0  0  0  0  0  0  0  0  0  0
 11  9  1  0
 10  9  2  0
  8  9  1  6
  8  6  1  0
  6  5  1  0
  5  4  1  0
  4  3  1  0
  3  2  1  0
  2  1  2  0
 12  2  1  0
 13 12  1  0
 13 22  1  0
 22 21  2  0
 21 20  1  0
 20 19  2  0
 19 14  1  0
 14 13  2  0
 15 14  1  0
 16 15  1  0
 17 16  1  0
 18 17  1  0
 19 18  1  0
  7  3  1  0
  8  7  1  0
M  END
>  <smiles>  (115) 
NC(=O)[C@H]1CCCN(C(=O)Cc2cccc3c2OCCO3)C1

>  <inchikey>  (115) 
FRGPDZGWTMZAON-LBPRGKRZSA-N

>  <alias>  (115) 
A4365a

$$$$
A4365b
     RDKit          3D

 22 24  0  0  0  0  0  0  0  0999 V2000
    8.0200   13.4600   22.6620 O   0  0  0  0  0  0  0  0  0  0  0  0
    8.9820   13.8830   23.3060 C   0  0  0  0  0  0  0  0  0  0  0  0
    9.7160   14.9430   22.9100 N   0  0  0  0  0  0  0  0  0  0  0  0
   10.7570   15.6180   23.6990 C   0  0  0  0  0  0  0  0  0  0  0  0
   12.1140   15.4260   23.0300 C   0  0  0  0  0  0  0  0  0  0  0  0
   12.0670   15.8730   21.5680 C   0  0  0  0  0  0  0  0  0  0  0  0
    9.6070   15.4200   21.5320 C   0  0  0  0  0  0  0  0  0  0  0  0
   10.9270   15.1640   20.8110 C   0  0  1  0  0  0  0  0  0  0  0  0
   10.7800   15.6760   19.3890 C   0  0  0  0  0  0  0  0  0  0  0  0
   10.4060   16.8330   19.1640 O   0  0  0  0  0  0  0  0  0  0  0  0
   10.9790   14.7760   18.4370 N   0  0  0  0  0  0  0  0  0  0  0  0
    9.4480   13.2090   24.5780 C   0  0  0  0  0  0  0  0  0  0  0  0
    8.6610   11.9360   24.7650 C   0  0  0  0  0  0  0  0  0  0  0  0
    7.5130   11.9230   25.5510 C   0  0  0  0  0  0  0  0  0  0  0  0
    7.1130   13.1260   26.0740 O   0  0  0  0  0  0  0  0  0  0  0  0
    6.2520   13.0190   27.2210 C   0  0  0  0  0  0  0  0  0  0  0  0
    5.1580   12.0110   26.9620 C   0  0  0  0  0  0  0  0  0  0  0  0
    5.6580   10.7220   26.5230 O   0  0  0  0  0  0  0  0  0  0  0  0
    6.7960   10.7490   25.7560 C   0  0  0  0  0  0  0  0  0  0  0  0
    7.2200    9.5700   25.1630 C   0  0  0  0  0  0  0  0  0  0  0  0
    8.3500    9.5760   24.3600 C   0  0  0  0  0  0  0  0  0  0  0  0
    9.0590   10.7480   24.1550 C   0  0  0  0  0  0  0  0  0  0  0  0
 11  9  1  0
 10  9  2  0
  8  9  1  6
  8  6  1  0
  6  5  1  0
  5  4  1  0
  4  3  1  0
  3  2  1  0
  2  1  2  0
 12  2  1  0
 13 12  1  0
 13 22  1  0
 22 21  2  0
 21 20  1  0
 20 19  2  0
 19 14  1  0
 14 13  2  0
 15 14  1  0
 16 15  1  0
 17 16  1  0
 18 17  1  0
 19 18  1  0
  7  3  1  0
  8  7  1  0
M  END
>  <smiles>  (116) 
NC(=O)[C@H]1CCCN(C(=O)Cc2cccc3c2OCCO3)C1

>  <inchikey>  (116) 
FRGPDZGWTMZAON-LBPRGKRZSA-N

>  <alias>  (116) 
A4365b

$$$$
A4368a
     RDKit          3D

 21 22  0  0  0  0  0  0  0  0999 V2000
   10.4050   16.6250   19.1440 O   0  0  0  0  0  0  0  0  0  0  0  0
   10.7790   15.4730   19.3810 C   0  0  0  0  0  0  0  0  0  0  0  0
   11.1770   14.6340   18.4350 N   0  0  0  0  0  0  0  0  0  0  0  0
   10.8060   14.9350   20.7990 C   0  0  1  0  0  0  0  0  0  0  0  0
   11.9790   15.5360   21.5920 C   0  0  0  0  0  0  0  0  0  0  0  0
   11.9890   15.0250   23.0320 C   0  0  0  0  0  0  0  0  0  0  0  0
   10.6520   15.2970   23.7010 C   0  0  0  0  0  0  0  0  0  0  0  0
    9.4880   15.2200   21.5300 C   0  0  0  0  0  0  0  0  0  0  0  0
    9.5480   14.7280   22.9100 N   0  0  0  0  0  0  0  0  0  0  0  0
    8.6460   13.8380   23.3820 C   0  0  0  0  0  0  0  0  0  0  0  0
    7.7610   13.3750   22.6790 O   0  0  0  0  0  0  0  0  0  0  0  0
    8.7630   13.4640   24.8500 C   0  0  0  0  0  0  0  0  0  0  0  0
    7.7230   12.4570   25.2860 C   0  0  0  0  0  0  0  0  0  0  0  0
    6.5700   12.9130   25.9230 C   0  0  0  0  0  0  0  0  0  0  0  0
    5.6390   12.0250   26.4290 C   0  0  0  0  0  0  0  0  0  0  0  0
    5.8350   10.6720   26.2930 C   0  0  0  0  0  0  0  0  0  0  0  0
    6.9650   10.1970   25.6500 C   0  0  0  0  0  0  0  0  0  0  0  0
    7.9220   11.0730   25.1450 C   0  0  0  0  0  0  0  0  0  0  0  0
    9.1600   10.5120   24.4970 C   0  0  0  0  0  0  0  0  0  0  0  0
    8.8830    9.2480   23.9390 O   0  0  0  0  0  0  0  0  0  0  0  0
   10.0620    8.6070   23.4940 C   0  0  0  0  0  0  0  0  0  0  0  0
 21 20  1  0
 20 19  1  0
 19 18  1  0
 18 17  1  0
 17 16  2  0
 16 15  1  0
 15 14  2  0
 14 13  1  0
 18 13  2  0
 13 12  1  0
 12 10  1  0
 11 10  2  0
 10  9  1  0
  9  7  1  0
  7  6  1  0
  6  5  1  0
  5  4  1  0
  4  2  1  6
  3  2  1  0
  2  1  2  0
  8  4  1  0
  9  8  1  0
M  END
>  <smiles>  (117) 
COCc1ccccc1CC(=O)N1CCC[C@H](C(N)=O)C1

>  <inchikey>  (117) 
GQZCOZOYCMVRCF-ZDUSSCGKSA-N

>  <alias>  (117) 
A4368a

$$$$
A4372a
     RDKit          3D

 19 20  0  0  0  0  0  0  0  0999 V2000
    7.7060   13.1690   22.6410 O   0  0  0  0  0  0  0  0  0  0  0  0
    8.7130   13.4130   23.2860 C   0  0  0  0  0  0  0  0  0  0  0  0
    9.5520   14.4150   22.9510 N   0  0  0  0  0  0  0  0  0  0  0  0
   10.6550   14.9270   23.7820 C   0  0  0  0  0  0  0  0  0  0  0  0
   11.9850   14.8470   23.0330 C   0  0  0  0  0  0  0  0  0  0  0  0
   11.8720   15.4650   21.6370 C   0  0  0  0  0  0  0  0  0  0  0  0
    9.4250   15.0810   21.6530 C   0  0  0  0  0  0  0  0  0  0  0  0
   10.7040   14.8510   20.8520 C   0  0  1  0  0  0  0  0  0  0  0  0
   10.6120   15.4020   19.4390 C   0  0  0  0  0  0  0  0  0  0  0  0
   10.2860   16.5710   19.2310 O   0  0  0  0  0  0  0  0  0  0  0  0
   10.8780   14.5450   18.4690 N   0  0  0  0  0  0  0  0  0  0  0  0
    9.1000   12.5800   24.4950 C   0  0  0  0  0  0  0  0  0  0  0  0
    7.9350   12.3800   25.4360 C   0  0  0  0  0  0  0  0  0  0  0  0
    7.2470   13.4430   26.0330 C   0  0  0  0  0  0  0  0  0  0  0  0
    7.6160   14.7060   25.9920 O   0  0  0  0  0  0  0  0  0  0  0  0
    6.1010   13.2820   26.8250 N   0  0  0  0  0  0  0  0  0  0  0  0
    5.6990   12.0190   27.0300 C   0  0  0  0  0  0  0  0  0  0  0  0
    6.3450   10.9140   26.5120 C   0  0  0  0  0  0  0  0  0  0  0  0
    7.4580   11.1010   25.7070 C   0  0  0  0  0  0  0  0  0  0  0  0
 11  9  1  0
 10  9  2  0
  8  9  1  6
  8  6  1  0
  6  5  1  0
  5  4  1  0
  4  3  1  0
  3  2  1  0
  2  1  2  0
 12  2  1  0
 13 12  1  0
 13 19  2  0
 19 18  1  0
 18 17  2  0
 17 16  1  0
 16 14  2  0
 14 13  1  0
 15 14  1  0
  7  3  1  0
  8  7  1  0
M  END
>  <smiles>  (118) 
NC(=O)[C@H]1CCCN(C(=O)Cc2cccnc2O)C1

>  <inchikey>  (118) 
YJUWSGAKKBDWFC-JTQLQIEISA-N

>  <alias>  (118) 
A4372a

$$$$
A4373a
     RDKit          3D

 21 23  0  0  0  0  0  0  0  0999 V2000
    7.6890   13.4080   22.4600 O   0  0  0  0  0  0  0  0  0  0  0  0
    8.4800   13.9760   23.2000 C   0  0  0  0  0  0  0  0  0  0  0  0
    9.2190   15.0280   22.7890 N   0  0  0  0  0  0  0  0  0  0  0  0
   10.2440   15.6980   23.6070 C   0  0  0  0  0  0  0  0  0  0  0  0
   11.6170   15.4900   22.9950 C   0  0  0  0  0  0  0  0  0  0  0  0
   11.6310   15.9240   21.5220 C   0  0  0  0  0  0  0  0  0  0  0  0
    9.1440   15.5650   21.4270 C   0  0  0  0  0  0  0  0  0  0  0  0
   10.4750   15.3030   20.7170 C   0  0  1  0  0  0  0  0  0  0  0  0
   10.5080   15.7670   19.2700 C   0  0  0  0  0  0  0  0  0  0  0  0
   10.1840   16.9140   18.9590 O   0  0  0  0  0  0  0  0  0  0  0  0
   10.9780   14.8960   18.3970 N   0  0  0  0  0  0  0  0  0  0  0  0
    8.6820   13.5380   24.6400 C   0  0  0  0  0  0  0  0  0  0  0  0
    7.9860   12.2380   24.9470 C   0  0  0  0  0  0  0  0  0  0  0  0
    8.3500   11.0600   24.2950 C   0  0  0  0  0  0  0  0  0  0  0  0
    9.4510   10.8410   23.4930 O   0  0  0  0  0  0  0  0  0  0  0  0
    9.4750    9.4240   23.2840 C   0  0  0  0  0  0  0  0  0  0  0  0
    8.2540    8.8810   23.7950 O   0  0  0  0  0  0  0  0  0  0  0  0
    7.7350    9.8760   24.5910 C   0  0  0  0  0  0  0  0  0  0  0  0
    6.7190    9.8030   25.5340 C   0  0  0  0  0  0  0  0  0  0  0  0
    6.3430   10.9670   26.1900 C   0  0  0  0  0  0  0  0  0  0  0  0
    6.9780   12.1670   25.9100 C   0  0  0  0  0  0  0  0  0  0  0  0
 11  9  1  0
 10  9  2  0
  8  9  1  6
  8  6  1  0
  6  5  1  0
  5  4  1  0
  4  3  1  0
  3  2  1  0
  2  1  2  0
 12  2  1  0
 13 12  1  0
 13 21  2  0
 21 20  1  0
 20 19  2  0
 19 18  1  0
 18 14  2  0
 14 13  1  0
 15 14  1  0
 16 15  1  0
 17 16  1  0
 18 17  1  0
  7  3  1  0
  8  7  1  0
M  END
>  <smiles>  (119) 
NC(=O)[C@H]1CCCN(C(=O)Cc2cccc3c2OCO3)C1

>  <inchikey>  (119) 
NOJSSPFVAUJASA-NSHDSACASA-N

>  <alias>  (119) 
A4373a

$$$$
A4380a
     RDKit          3D

 20 21  0  0  0  0  0  0  0  0999 V2000
    9.5120   10.6130   23.4430 Cl  0  0  0  0  0  0  0  0  0  0  0  0
    8.2170   10.8840   24.5620 C   0  0  0  0  0  0  0  0  0  0  0  0
    7.4360    9.8060   24.9350 C   0  0  0  0  0  0  0  0  0  0  0  0
    6.3740    9.9920   25.8000 C   0  0  0  0  0  0  0  0  0  0  0  0
    6.1300   11.2600   26.2500 C   0  0  0  0  0  0  0  0  0  0  0  0
    4.9960   11.4900   26.9660 F   0  0  0  0  0  0  0  0  0  0  0  0
    6.9110   12.3380   25.9210 C   0  0  0  0  0  0  0  0  0  0  0  0
    7.9830   12.1670   25.0470 C   0  0  0  0  0  0  0  0  0  0  0  0
    8.8730   13.3420   24.7110 C   0  0  0  0  0  0  0  0  0  0  0  0
    8.6850   13.8450   23.2900 C   0  0  0  0  0  0  0  0  0  0  0  0
    7.8030   13.4110   22.5700 O   0  0  0  0  0  0  0  0  0  0  0  0
    9.5320   14.8140   22.8810 N   0  0  0  0  0  0  0  0  0  0  0  0
   10.5720   15.4190   23.7310 C   0  0  0  0  0  0  0  0  0  0  0  0
   11.9370   15.3320   23.0670 C   0  0  0  0  0  0  0  0  0  0  0  0
   11.8810   15.8880   21.6410 C   0  0  0  0  0  0  0  0  0  0  0  0
    9.4600   15.3760   21.5270 C   0  0  0  0  0  0  0  0  0  0  0  0
   10.8010   15.1810   20.8100 C   0  0  1  0  0  0  0  0  0  0  0  0
   10.8150   15.6510   19.3640 C   0  0  0  0  0  0  0  0  0  0  0  0
   10.6900   16.8410   19.0780 O   0  0  0  0  0  0  0  0  0  0  0  0
   10.9840   14.7130   18.4510 N   0  0  0  0  0  0  0  0  0  0  0  0
 20 18  1  0
 19 18  2  0
 17 18  1  6
 17 15  1  0
 15 14  1  0
 14 13  1  0
 13 12  1  0
 12 10  1  0
 11 10  2  0
 10  9  1  0
  9  8  1  0
  8  7  2  0
  7  5  1  0
  6  5  1  0
  5  4  2  0
  4  3  1  0
  3  2  2  0
  8  2  1  0
  2  1  1  0
 16 12  1  0
 17 16  1  0
M  END
>  <smiles>  (120) 
NC(=O)[C@H]1CCCN(C(=O)Cc2cc(F)ccc2Cl)C1

>  <inchikey>  (120) 
YWIKMGDPLBZNIQ-VIFPVBQESA-N

>  <alias>  (120) 
A4380a

$$$$
A4381a
     RDKit          3D

 26 27  0  0  0  0  0  0  0  0999 V2000
    4.2080   11.7330   26.5420 F   0  0  0  0  0  0  0  0  0  0  0  0
    5.2850   12.5490   26.5440 C   0  0  0  0  0  0  0  0  0  0  0  0
    5.4610   12.6600   27.8800 F   0  0  0  0  0  0  0  0  0  0  0  0
    4.8660   13.7310   26.0010 F   0  0  0  0  0  0  0  0  0  0  0  0
    6.4910   11.9580   25.8410 C   0  0  0  0  0  0  0  0  0  0  0  0
    6.4760   10.5690   25.7750 C   0  0  0  0  0  0  0  0  0  0  0  0
    7.5460    9.8500   25.2720 C   0  0  0  0  0  0  0  0  0  0  0  0
    8.7130   10.5020   24.8950 C   0  0  0  0  0  0  0  0  0  0  0  0
    9.6870    9.8750   23.9750 C   0  0  0  0  0  0  0  0  0  0  0  0
    9.3690    8.6260   23.6440 F   0  0  0  0  0  0  0  0  0  0  0  0
   10.9120    9.9290   24.4650 F   0  0  0  0  0  0  0  0  0  0  0  0
    9.7580   10.5450   22.8350 F   0  0  0  0  0  0  0  0  0  0  0  0
    8.7690   11.8680   25.0810 C   0  0  0  0  0  0  0  0  0  0  0  0
    7.6500   12.6170   25.3900 C   0  0  0  0  0  0  0  0  0  0  0  0
    7.6470   13.9750   24.7200 C   0  0  0  0  0  0  0  0  0  0  0  0
    8.2470   13.8800   23.3220 C   0  0  0  0  0  0  0  0  0  0  0  0
    7.7720   13.0930   22.5220 O   0  0  0  0  0  0  0  0  0  0  0  0
    9.2800   14.6910   22.9800 N   0  0  0  0  0  0  0  0  0  0  0  0
   10.3980   15.0550   23.8650 C   0  0  0  0  0  0  0  0  0  0  0  0
   11.7500   14.8620   23.1870 C   0  0  0  0  0  0  0  0  0  0  0  0
   11.7820   15.5260   21.8070 C   0  0  0  0  0  0  0  0  0  0  0  0
    9.3160   15.3360   21.6590 C   0  0  0  0  0  0  0  0  0  0  0  0
   10.6280   15.0320   20.9250 C   0  0  1  0  0  0  0  0  0  0  0  0
   10.7300   15.6050   19.5200 C   0  0  0  0  0  0  0  0  0  0  0  0
   10.6060   16.8140   19.3110 O   0  0  0  0  0  0  0  0  0  0  0  0
   10.9720   14.7380   18.5520 N   0  0  0  0  0  0  0  0  0  0  0  0
 26 24  1  0
 25 24  2  0
 23 24  1  6
 23 21  1  0
 21 20  1  0
 20 19  1  0
 19 18  1  0
 18 16  1  0
 17 16  2  0
 16 15  1  0
 15 14  1  0
 14 13  2  0
 13  8  1  0
  9  8  1  0
 12  9  1  0
 11  9  1  0
 10  9  1  0
  8  7  2  0
  7  6  1  0
  6  5  2  0
 14  5  1  0
  5  2  1  0
  3  2  1  0
  4  2  1  0
  2  1  1  0
 22 18  1  0
 23 22  1  0
M  END
>  <smiles>  (121) 
NC(=O)[C@H]1CCCN(C(=O)Cc2cc(C(F)(F)F)ccc2C(F)(F)F)C1

>  <inchikey>  (121) 
STXHBHXJQBAUQV-VIFPVBQESA-N

>  <alias>  (121) 
A4381a

$$$$
A4203a
     RDKit          3D

 21 22  0  0  0  0  0  0  0  0999 V2000
   10.3810   16.6610   19.1510 O   0  0  0  0  0  0  0  0  0  0  0  0
   10.7580   15.5090   19.3780 C   0  0  0  0  0  0  0  0  0  0  0  0
   11.0800   14.6580   18.4190 N   0  0  0  0  0  0  0  0  0  0  0  0
   10.8760   14.9860   20.8010 C   0  0  1  0  0  0  0  0  0  0  0  0
   12.0450   15.6480   21.5470 C   0  0  0  0  0  0  0  0  0  0  0  0
   12.1830   15.1170   22.9770 C   0  0  0  0  0  0  0  0  0  0  0  0
   10.8740   15.2470   23.7300 C   0  0  0  0  0  0  0  0  0  0  0  0
    9.6010   15.1840   21.6240 C   0  0  0  0  0  0  0  0  0  0  0  0
    9.7860   14.6190   22.9640 N   0  0  0  0  0  0  0  0  0  0  0  0
    9.0090   13.6070   23.3970 C   0  0  0  0  0  0  0  0  0  0  0  0
    8.0980   13.1560   22.7210 O   0  0  0  0  0  0  0  0  0  0  0  0
    9.3180   13.0580   24.7780 C   0  0  0  0  0  0  0  0  0  0  0  0
    8.2640   12.0890   25.2630 C   0  0  0  0  0  0  0  0  0  0  0  0
    8.2730   10.7490   24.8600 C   0  0  0  0  0  0  0  0  0  0  0  0
    9.2450   10.4230   23.9520 O   0  0  0  0  0  0  0  0  0  0  0  0
    9.3660    9.0580   23.5610 C   0  0  0  0  0  0  0  0  0  0  0  0
    7.2780   12.5020   26.1520 C   0  0  0  0  0  0  0  0  0  0  0  0
    6.3200   11.6280   26.6210 C   0  0  0  0  0  0  0  0  0  0  0  0
    6.3440   10.3280   26.1970 C   0  0  0  0  0  0  0  0  0  0  0  0
    5.0190    9.2820   26.6110 Cl  0  0  0  0  0  0  0  0  0  0  0  0
    7.3240    9.8580   25.3440 C   0  0  0  0  0  0  0  0  0  0  0  0
 16 15  1  0
 15 14  1  0
 14 21  2  0
 21 19  1  0
 20 19  1  0
 19 18  2  0
 18 17  1  0
 17 13  2  0
 14 13  1  0
 13 12  1  0
 12 10  1  0
 11 10  2  0
 10  9  1  0
  9  7  1  0
  7  6  1  0
  6  5  1  0
  5  4  1  0
  4  2  1  6
  3  2  1  0
  2  1  2  0
  8  4  1  0
  9  8  1  0
M  END
>  <smiles>  (122) 
COc1cc(Cl)ccc1CC(=O)N1CCC[C@H](C(N)=O)C1

>  <inchikey>  (122) 
RXCDGQVWMAQTNG-NSHDSACASA-N

>  <alias>  (122) 
A4203a

$$$$
A4207a
     RDKit          3D

 24 25  0  0  0  0  0  0  0  0999 V2000
   10.7690   14.5130   18.6270 O   0  0  0  0  0  0  0  0  0  0  0  0
   10.5740   15.3110   19.5510 C   0  0  0  0  0  0  0  0  0  0  0  0
   10.1690   16.5490   19.3530 N   0  0  0  0  0  0  0  0  0  0  0  0
   10.8380   14.9170   20.9950 C   0  0  1  0  0  0  0  0  0  0  0  0
   12.0370   15.6880   21.5760 C   0  0  0  0  0  0  0  0  0  0  0  0
   12.2900   15.2860   23.0280 C   0  0  0  0  0  0  0  0  0  0  0  0
   11.0400   15.5000   23.8630 C   0  0  0  0  0  0  0  0  0  0  0  0
    9.6000   15.1290   21.8750 C   0  0  0  0  0  0  0  0  0  0  0  0
    9.8940   14.7890   23.2730 N   0  0  0  0  0  0  0  0  0  0  0  0
    9.1520   13.9480   24.0320 C   0  0  0  0  0  0  0  0  0  0  0  0
    9.4680   13.6770   25.1810 O   0  0  0  0  0  0  0  0  0  0  0  0
    7.8290   13.3980   23.4570 C   0  0  2  0  0  0  0  0  0  0  0  0
    6.8750   14.4950   23.3140 N   0  0  0  0  0  0  0  0  0  0  0  0
    6.0080   14.5960   22.2970 C   0  0  0  0  0  0  0  0  0  0  0  0
    5.9220   13.7320   21.4250 O   0  0  0  0  0  0  0  0  0  0  0  0
    5.1680   15.8390   22.2730 C   0  0  0  0  0  0  0  0  0  0  0  0
    7.2850   12.3240   24.3910 C   0  0  0  0  0  0  0  0  0  0  0  0
    7.7230   11.0050   24.2680 C   0  0  0  0  0  0  0  0  0  0  0  0
    8.7090   10.8050   23.3380 O   0  0  0  0  0  0  0  0  0  0  0  0
    9.3830    9.5350   23.3260 C   0  0  0  0  0  0  0  0  0  0  0  0
    6.2900   12.6000   25.3290 C   0  0  0  0  0  0  0  0  0  0  0  0
    5.7300   11.5900   26.0970 C   0  0  0  0  0  0  0  0  0  0  0  0
    6.1510   10.2880   25.9390 C   0  0  0  0  0  0  0  0  0  0  0  0
    7.1550    9.9870   25.0300 C   0  0  0  0  0  0  0  0  0  0  0  0
 20 19  1  0
 19 18  1  0
 18 24  2  0
 24 23  1  0
 23 22  2  0
 22 21  1  0
 21 17  2  0
 18 17  1  0
 17 12  1  0
 12 13  1  1
 14 13  1  0
 16 14  1  0
 15 14  2  0
 12 10  1  0
 11 10  2  0
 10  9  1  0
  9  7  1  0
  7  6  1  0
  6  5  1  0
  5  4  1  0
  4  2  1  6
  3  2  1  0
  2  1  2  0
  8  4  1  0
  9  8  1  0
M  END
>  <smiles>  (123) 
COc1ccccc1[C@@H](NC(C)=O)C(=O)N1CCC[C@H](C(N)=O)C1

>  <inchikey>  (123) 
KEZJHWCQWSCOQQ-SWLSCSKDSA-N

>  <alias>  (123) 
A4207a

$$$$
A4207b
     RDKit          3D

 24 25  0  0  0  0  0  0  0  0999 V2000
   10.2760   16.6760   19.3340 O   0  0  0  0  0  0  0  0  0  0  0  0
   10.6960   15.5260   19.5310 C   0  0  0  0  0  0  0  0  0  0  0  0
   10.8900   14.6500   18.5520 N   0  0  0  0  0  0  0  0  0  0  0  0
   11.0170   15.0370   20.9350 C   0  0  1  0  0  0  0  0  0  0  0  0
   12.2150   15.8120   21.5230 C   0  0  0  0  0  0  0  0  0  0  0  0
   12.4400   15.4790   22.9970 C   0  0  0  0  0  0  0  0  0  0  0  0
   11.1720   15.7160   23.7920 C   0  0  0  0  0  0  0  0  0  0  0  0
    9.7690   15.2370   21.8090 C   0  0  0  0  0  0  0  0  0  0  0  0
   10.0590   14.9450   23.2190 N   0  0  0  0  0  0  0  0  0  0  0  0
    9.3890   14.0620   23.9910 C   0  0  0  0  0  0  0  0  0  0  0  0
    9.7930   13.7430   25.1070 O   0  0  0  0  0  0  0  0  0  0  0  0
    8.0730   13.4530   23.4470 C   0  0  2  0  0  0  0  0  0  0  0  0
    7.0900   14.5180   23.2790 N   0  0  0  0  0  0  0  0  0  0  0  0
    6.1830   14.5300   22.2810 C   0  0  0  0  0  0  0  0  0  0  0  0
    6.1440   13.6490   21.4190 O   0  0  0  0  0  0  0  0  0  0  0  0
    5.2260   15.6780   22.2820 C   0  0  0  0  0  0  0  0  0  0  0  0
    7.5720   12.4160   24.4440 C   0  0  0  0  0  0  0  0  0  0  0  0
    7.9600   11.0850   24.3170 C   0  0  0  0  0  0  0  0  0  0  0  0
    8.8940   10.8430   23.3420 O   0  0  0  0  0  0  0  0  0  0  0  0
    9.4120    9.5120   23.2260 C   0  0  0  0  0  0  0  0  0  0  0  0
    6.6830   12.7480   25.4650 C   0  0  0  0  0  0  0  0  0  0  0  0
    6.1730   11.7780   26.3140 C   0  0  0  0  0  0  0  0  0  0  0  0
    6.5400   10.4640   26.1550 C   0  0  0  0  0  0  0  0  0  0  0  0
    7.4370   10.1070   25.1580 C   0  0  0  0  0  0  0  0  0  0  0  0
 20 19  1  0
 19 18  1  0
 18 24  2  0
 24 23  1  0
 23 22  2  0
 22 21  1  0
 21 17  2  0
 18 17  1  0
 17 12  1  0
 12 13  1  1
 14 13  1  0
 16 14  1  0
 15 14  2  0
 12 10  1  0
 11 10  2  0
 10  9  1  0
  9  7  1  0
  7  6  1  0
  6  5  1  0
  5  4  1  0
  4  2  1  6
  3  2  1  0
  2  1  2  0
  8  4  1  0
  9  8  1  0
M  END
>  <smiles>  (124) 
COc1ccccc1[C@@H](NC(C)=O)C(=O)N1CCC[C@H](C(N)=O)C1

>  <inchikey>  (124) 
KEZJHWCQWSCOQQ-SWLSCSKDSA-N

>  <alias>  (124) 
A4207b

$$$$
A4209a
     RDKit          3D

 21 22  0  0  0  0  0  0  0  0999 V2000
   11.0060   14.7650   18.4640 O   0  0  0  0  0  0  0  0  0  0  0  0
   10.6760   15.5320   19.3700 C   0  0  0  0  0  0  0  0  0  0  0  0
   10.2750   16.7760   19.1560 N   0  0  0  0  0  0  0  0  0  0  0  0
   10.7040   15.0840   20.8200 C   0  0  1  0  0  0  0  0  0  0  0  0
   11.7930   15.8110   21.6190 C   0  0  0  0  0  0  0  0  0  0  0  0
   11.8860   15.2720   23.0480 C   0  0  0  0  0  0  0  0  0  0  0  0
   10.5300   15.3050   23.7340 C   0  0  0  0  0  0  0  0  0  0  0  0
    9.3770   15.2790   21.5470 C   0  0  0  0  0  0  0  0  0  0  0  0
    9.4860   14.7030   22.8880 N   0  0  0  0  0  0  0  0  0  0  0  0
    8.7000   13.6610   23.2300 C   0  0  0  0  0  0  0  0  0  0  0  0
    7.7870   13.2710   22.5160 O   0  0  0  0  0  0  0  0  0  0  0  0
    9.0110   13.0030   24.5590 C   0  0  0  0  0  0  0  0  0  0  0  0
    7.9400   12.0260   24.9780 C   0  0  0  0  0  0  0  0  0  0  0  0
    8.0470   10.6780   24.6080 C   0  0  0  0  0  0  0  0  0  0  0  0
    9.0230   10.4110   23.6820 O   0  0  0  0  0  0  0  0  0  0  0  0
    9.3010    9.0470   23.3660 C   0  0  0  0  0  0  0  0  0  0  0  0
    6.8970   12.3850   25.8370 C   0  0  0  0  0  0  0  0  0  0  0  0
    6.6540   14.0610   26.2480 Cl  0  0  0  0  0  0  0  0  0  0  0  0
    6.0230   11.4500   26.3600 C   0  0  0  0  0  0  0  0  0  0  0  0
    6.1680   10.1210   26.0070 C   0  0  0  0  0  0  0  0  0  0  0  0
    7.1720    9.7290   25.1310 C   0  0  0  0  0  0  0  0  0  0  0  0
 16 15  1  0
 15 14  1  0
 14 21  2  0
 21 20  1  0
 20 19  2  0
 19 17  1  0
 18 17  1  0
 17 13  2  0
 14 13  1  0
 13 12  1  0
 12 10  1  0
 11 10  2  0
 10  9  1  0
  9  7  1  0
  7  6  1  0
  6  5  1  0
  5  4  1  0
  4  2  1  6
  3  2  1  0
  2  1  2  0
  8  4  1  0
  9  8  1  0
M  END
>  <smiles>  (125) 
COc1cccc(Cl)c1CC(=O)N1CCC[C@H](C(N)=O)C1

>  <inchikey>  (125) 
NHPQEFHMDYOTOA-JTQLQIEISA-N

>  <alias>  (125) 
A4209a

$$$$
A4237a
     RDKit          3D

 26 28  0  0  0  0  0  0  0  0999 V2000
    7.0620   19.1480   27.0320 F   0  0  0  0  0  0  0  0  0  0  0  0
    7.0240   17.8430   26.6600 C   0  0  0  0  0  0  0  0  0  0  0  0
    7.5710   16.9070   27.4910 C   0  0  0  0  0  0  0  0  0  0  0  0
    7.5490   15.5830   27.0900 C   0  0  0  0  0  0  0  0  0  0  0  0
    6.4490   17.5240   25.4650 C   0  0  0  0  0  0  0  0  0  0  0  0
    6.4400   16.1960   25.0780 C   0  0  0  0  0  0  0  0  0  0  0  0
    6.9900   15.2090   25.8790 C   0  0  0  0  0  0  0  0  0  0  0  0
    6.9830   13.7640   25.4390 C   0  0  0  0  0  0  0  0  0  0  0  0
    8.2580   13.3580   24.6670 C   0  0  1  0  0  0  0  0  0  0  0  0
    8.4100   11.8630   24.4350 C   0  0  0  0  0  0  0  0  0  0  0  0
    7.5310   10.9470   24.9910 C   0  0  0  0  0  0  0  0  0  0  0  0
    7.7280    9.5890   24.8180 C   0  0  0  0  0  0  0  0  0  0  0  0
    8.8090    9.1320   24.0980 C   0  0  0  0  0  0  0  0  0  0  0  0
    9.6690   10.0260   23.5190 C   0  0  0  0  0  0  0  0  0  0  0  0
    9.4710   11.3850   23.6800 C   0  0  0  0  0  0  0  0  0  0  0  0
    8.2110   13.9100   23.2440 C   0  0  0  0  0  0  0  0  0  0  0  0
    7.3840   13.4890   22.4520 O   0  0  0  0  0  0  0  0  0  0  0  0
    9.1180   14.8440   22.8880 N   0  0  0  0  0  0  0  0  0  0  0  0
   10.1670   15.4010   23.7580 C   0  0  0  0  0  0  0  0  0  0  0  0
   11.5570   15.1460   23.1770 C   0  0  0  0  0  0  0  0  0  0  0  0
   11.6340   15.6080   21.7200 C   0  0  0  0  0  0  0  0  0  0  0  0
    9.1540   15.3700   21.5230 C   0  0  0  0  0  0  0  0  0  0  0  0
   10.4950   15.0080   20.8830 C   0  0  1  0  0  0  0  0  0  0  0  0
   10.5340   15.5050   19.4480 C   0  0  0  0  0  0  0  0  0  0  0  0
   10.2600   16.6760   19.1720 O   0  0  0  0  0  0  0  0  0  0  0  0
   10.8460   14.6030   18.5330 N   0  0  0  0  0  0  0  0  0  0  0  0
 26 24  1  0
 25 24  2  0
 23 24  1  6
 23 21  1  0
 21 20  1  0
 20 19  1  0
 19 18  1  0
 18 16  1  0
 17 16  2  0
 16  9  1  0
  9  8  1  6
  8  7  1  0
  7  4  2  0
  4  3  1  0
  3  2  2  0
  2  1  1  0
  5  2  1  0
  6  5  2  0
  7  6  1  0
 10  9  1  0
 10 15  2  0
 15 14  1  0
 14 13  2  0
 13 12  1  0
 12 11  2  0
 11 10  1  0
 22 18  1  0
 23 22  1  0
M  END
>  <smiles>  (126) 
NC(=O)[C@H]1CCCN(C(=O)[C@@H](Cc2ccc(F)cc2)c2ccccc2)C1

>  <inchikey>  (126) 
BJVLTIUJQBTOEQ-HKUYNNGSSA-N

>  <alias>  (126) 
A4237a

$$$$
A4237b
     RDKit          3D

 26 28  0  0  0  0  0  0  0  0999 V2000
    8.8270   19.0800   27.0420 F   0  0  0  0  0  0  0  0  0  0  0  0
    8.4350   17.7980   26.8060 C   0  0  0  0  0  0  0  0  0  0  0  0
    9.0770   16.7880   27.4620 C   0  0  0  0  0  0  0  0  0  0  0  0
    8.7250   15.4840   27.1600 C   0  0  0  0  0  0  0  0  0  0  0  0
    7.4400   17.5750   25.8990 C   0  0  0  0  0  0  0  0  0  0  0  0
    7.1060   16.2650   25.6030 C   0  0  0  0  0  0  0  0  0  0  0  0
    7.7680   15.2020   26.1970 C   0  0  0  0  0  0  0  0  0  0  0  0
    7.6100   13.8030   25.6610 C   0  0  0  0  0  0  0  0  0  0  0  0
    8.8090   13.3920   24.7810 C   0  0  1  0  0  0  0  0  0  0  0  0
    8.9450   11.9030   24.5150 C   0  0  0  0  0  0  0  0  0  0  0  0
    9.9740   11.4320   23.7100 C   0  0  0  0  0  0  0  0  0  0  0  0
   10.1210   10.0780   23.4710 C   0  0  0  0  0  0  0  0  0  0  0  0
    9.2450    9.1800   24.0260 C   0  0  0  0  0  0  0  0  0  0  0  0
    8.2110    9.6310   24.8140 C   0  0  0  0  0  0  0  0  0  0  0  0
    8.0570   10.9850   25.0530 C   0  0  0  0  0  0  0  0  0  0  0  0
    8.6220   13.9690   23.3800 C   0  0  0  0  0  0  0  0  0  0  0  0
    7.7270   13.5400   22.6650 O   0  0  0  0  0  0  0  0  0  0  0  0
    9.4800   14.9230   22.9540 N   0  0  0  0  0  0  0  0  0  0  0  0
   10.5170   15.5780   23.7690 C   0  0  0  0  0  0  0  0  0  0  0  0
   11.9070   15.3690   23.1650 C   0  0  0  0  0  0  0  0  0  0  0  0
   11.9310   15.7630   21.6850 C   0  0  0  0  0  0  0  0  0  0  0  0
    9.4640   15.3740   21.5600 C   0  0  0  0  0  0  0  0  0  0  0  0
   10.8110   15.0620   20.8990 C   0  0  1  0  0  0  0  0  0  0  0  0
   10.7590   15.5300   19.4540 C   0  0  0  0  0  0  0  0  0  0  0  0
   10.4250   16.6870   19.1710 O   0  0  0  0  0  0  0  0  0  0  0  0
   11.0050   14.6030   18.5370 N   0  0  0  0  0  0  0  0  0  0  0  0
 26 24  1  0
 25 24  2  0
 23 24  1  6
 23 21  1  0
 21 20  1  0
 20 19  1  0
 19 18  1  0
 18 16  1  0
 17 16  2  0
 16  9  1  0
  9  8  1  1
  8  7  1  0
  7  4  2  0
  4  3  1  0
  3  2  2  0
  2  1  1  0
  5  2  1  0
  6  5  2  0
  7  6  1  0
 10  9  1  0
 10 15  2  0
 15 14  1  0
 14 13  2  0
 13 12  1  0
 12 11  2  0
 11 10  1  0
 22 18  1  0
 23 22  1  0
M  END
>  <smiles>  (127) 
NC(=O)[C@H]1CCCN(C(=O)[C@@H](Cc2ccc(F)cc2)c2ccccc2)C1

>  <inchikey>  (127) 
BJVLTIUJQBTOEQ-HKUYNNGSSA-N

>  <alias>  (127) 
A4237b

$$$$
A4254a
     RDKit          3D

 20 22  0  0  0  0  0  0  0  0999 V2000
    9.2780    9.9440   23.5970 Cl  0  0  0  0  0  0  0  0  0  0  0  0
    8.1260   10.6180   24.7030 C   0  0  0  0  0  0  0  0  0  0  0  0
    7.1960    9.7690   25.2840 C   0  0  0  0  0  0  0  0  0  0  0  0
    6.2860   10.2830   26.2020 C   0  0  0  0  0  0  0  0  0  0  0  0
    6.3100   11.6330   26.5150 C   0  0  0  0  0  0  0  0  0  0  0  0
    8.1630   11.9800   24.9960 C   0  0  0  0  0  0  0  0  0  0  0  0
    7.2390   12.4700   25.9010 C   0  0  0  0  0  0  0  0  0  0  0  0
    7.7050   13.9110   25.7450 C   0  0  0  0  0  0  0  0  0  0  0  0
    8.7930   13.3460   24.7670 C   0  0  2  0  0  0  0  0  0  0  0  0
    8.6700   13.7480   23.2970 C   0  0  0  0  0  0  0  0  0  0  0  0
    7.8390   13.2100   22.5840 O   0  0  0  0  0  0  0  0  0  0  0  0
    9.4840   14.7220   22.8280 N   0  0  0  0  0  0  0  0  0  0  0  0
   10.3960   15.5240   23.6650 C   0  0  0  0  0  0  0  0  0  0  0  0
   11.7970   15.5660   23.0780 C   0  0  0  0  0  0  0  0  0  0  0  0
   11.7580   16.0170   21.6170 C   0  0  0  0  0  0  0  0  0  0  0  0
    9.4210   15.1390   21.4220 C   0  0  0  0  0  0  0  0  0  0  0  0
   10.8130   15.1410   20.7850 C   0  0  1  0  0  0  0  0  0  0  0  0
   10.8000   15.5540   19.3220 C   0  0  0  0  0  0  0  0  0  0  0  0
   10.3970   16.6690   18.9730 O   0  0  0  0  0  0  0  0  0  0  0  0
   11.2440   14.6520   18.4660 N   0  0  0  0  0  0  0  0  0  0  0  0
 20 18  1  0
 19 18  2  0
 17 18  1  6
 17 15  1  0
 15 14  1  0
 14 13  1  0
 13 12  1  0
 12 10  1  0
 11 10  2  0
  9 10  1  6
  9  8  1  0
  8  7  1  0
  7  5  1  0
  5  4  2  0
  4  3  1  0
  3  2  2  0
  2  1  1  0
  6  2  1  0
  7  6  2  0
  9  6  1  0
 16 12  1  0
 17 16  1  0
M  END
>  <smiles>  (128) 
NC(=O)[C@H]1CCCN(C(=O)[C@H]2Cc3cccc(Cl)c32)C1

>  <inchikey>  (128) 
PSMBGTQKKMWRON-QWRGUYRKSA-N

>  <alias>  (128) 
A4254a

$$$$
A4260a
     RDKit          3D

 22 24  0  0  0  0  0  0  0  0999 V2000
    9.4110    8.8160   23.4200 Cl  0  0  0  0  0  0  0  0  0  0  0  0
    8.4940    9.9960   24.3200 C   0  0  0  0  0  0  0  0  0  0  0  0
    7.4760    9.5760   25.1450 C   0  0  0  0  0  0  0  0  0  0  0  0
    6.7370   10.5160   25.8420 C   0  0  0  0  0  0  0  0  0  0  0  0
    8.7950   11.3310   24.1670 C   0  0  0  0  0  0  0  0  0  0  0  0
    8.0500   12.2960   24.8470 C   0  0  0  0  0  0  0  0  0  0  0  0
    7.0110   11.8660   25.6730 C   0  0  0  0  0  0  0  0  0  0  0  0
    6.1370   12.7350   26.2770 O   0  0  0  0  0  0  0  0  0  0  0  0
    6.7030   14.0350   26.6040 C   0  0  0  0  0  0  0  0  0  0  0  0
    7.3560   14.7180   25.4310 C   0  0  0  0  0  0  0  0  0  0  0  0
    8.3620   13.7750   24.7180 C   0  0  2  0  0  0  0  0  0  0  0  0
    8.4300   14.1040   23.2270 C   0  0  0  0  0  0  0  0  0  0  0  0
    7.6850   13.5420   22.4420 O   0  0  0  0  0  0  0  0  0  0  0  0
    9.2880   15.0680   22.8210 N   0  0  0  0  0  0  0  0  0  0  0  0
   10.3100   15.7320   23.6480 C   0  0  0  0  0  0  0  0  0  0  0  0
   11.7010   15.5660   23.0510 C   0  0  0  0  0  0  0  0  0  0  0  0
   11.7180   15.9820   21.5780 C   0  0  0  0  0  0  0  0  0  0  0  0
    9.2570   15.5670   21.4440 C   0  0  0  0  0  0  0  0  0  0  0  0
   10.6060   15.2790   20.7870 C   0  0  1  0  0  0  0  0  0  0  0  0
   10.6640   15.6380   19.3120 C   0  0  0  0  0  0  0  0  0  0  0  0
   10.8620   14.7730   18.4580 O   0  0  0  0  0  0  0  0  0  0  0  0
   10.4940   16.9140   19.0160 N   0  0  0  0  0  0  0  0  0  0  0  0
 22 20  1  0
 21 20  2  0
 19 20  1  6
 19 17  1  0
 17 16  1  0
 16 15  1  0
 15 14  1  0
 14 12  1  0
 13 12  2  0
 11 12  1  6
 11 10  1  0
 10  9  1  0
  9  8  1  0
  8  7  1  0
  7  4  2  0
  4  3  1  0
  3  2  2  0
  2  1  1  0
  5  2  1  0
  6  5  2  0
  7  6  1  0
 11  6  1  0
 18 14  1  0
 19 18  1  0
M  END
>  <smiles>  (129) 
NC(=O)[C@H]1CCCN(C(=O)[C@H]2CCOc3ccc(Cl)cc32)C1

>  <inchikey>  (129) 
BPTVIAUUXZRLLA-JQWIXIFHSA-N

>  <alias>  (129) 
A4260a

$$$$
A4283a
     RDKit          3D

 20 21  0  0  0  0  0  0  0  0999 V2000
   10.2480   16.6640   19.1990 O   0  0  0  0  0  0  0  0  0  0  0  0
   10.6300   15.5190   19.4370 C   0  0  0  0  0  0  0  0  0  0  0  0
   11.0000   14.6730   18.4850 N   0  0  0  0  0  0  0  0  0  0  0  0
   10.6720   14.9830   20.8600 C   0  0  1  0  0  0  0  0  0  0  0  0
   11.8090   15.6270   21.6770 C   0  0  0  0  0  0  0  0  0  0  0  0
   11.8290   15.0670   23.1040 C   0  0  0  0  0  0  0  0  0  0  0  0
   10.4680   15.2390   23.7700 C   0  0  0  0  0  0  0  0  0  0  0  0
    9.3370   15.2170   21.5830 C   0  0  0  0  0  0  0  0  0  0  0  0
    9.4020   14.6620   22.9360 N   0  0  0  0  0  0  0  0  0  0  0  0
    8.5630   13.6670   23.3100 C   0  0  0  0  0  0  0  0  0  0  0  0
    7.6740   13.2610   22.5810 O   0  0  0  0  0  0  0  0  0  0  0  0
    8.7980   13.0670   24.6810 C   0  0  0  0  0  0  0  0  0  0  0  0
    7.8020   12.0070   25.0460 C   0  0  0  0  0  0  0  0  0  0  0  0
    7.9660   10.6870   24.6160 C   0  0  0  0  0  0  0  0  0  0  0  0
    9.0230   10.4720   23.7680 O   0  0  0  0  0  0  0  0  0  0  0  0
    9.2770    9.1320   23.3300 C   0  0  0  0  0  0  0  0  0  0  0  0
    6.8010   12.3810   25.8610 N   0  0  0  0  0  0  0  0  0  0  0  0
    5.9500   11.4300   26.2850 C   0  0  0  0  0  0  0  0  0  0  0  0
    6.0420   10.1050   25.9100 C   0  0  0  0  0  0  0  0  0  0  0  0
    7.0740    9.7190   25.0610 C   0  0  0  0  0  0  0  0  0  0  0  0
 16 15  1  0
 15 14  1  0
 14 20  2  0
 20 19  1  0
 19 18  2  0
 18 17  1  0
 17 13  2  0
 14 13  1  0
 13 12  1  0
 12 10  1  0
 11 10  2  0
 10  9  1  0
  9  7  1  0
  7  6  1  0
  6  5  1  0
  5  4  1  0
  4  2  1  6
  3  2  1  0
  2  1  2  0
  8  4  1  0
  9  8  1  0
M  END
>  <smiles>  (130) 
COc1cccnc1CC(=O)N1CCC[C@H](C(N)=O)C1

>  <inchikey>  (130) 
VJNDTMIDSGNFJC-JTQLQIEISA-N

>  <alias>  (130) 
A4283a

$$$$
A4283b
     RDKit          3D

 20 21  0  0  0  0  0  0  0  0999 V2000
   10.3090   16.6270   19.2350 O   0  0  0  0  0  0  0  0  0  0  0  0
   10.7300   15.4830   19.4450 C   0  0  0  0  0  0  0  0  0  0  0  0
   11.0560   14.6340   18.4760 N   0  0  0  0  0  0  0  0  0  0  0  0
   10.8520   14.9440   20.8600 C   0  0  1  0  0  0  0  0  0  0  0  0
   12.0150   15.6230   21.6140 C   0  0  0  0  0  0  0  0  0  0  0  0
   12.1100   15.1110   23.0590 C   0  0  0  0  0  0  0  0  0  0  0  0
   10.7640   15.2530   23.7790 C   0  0  0  0  0  0  0  0  0  0  0  0
    9.5490   15.1420   21.6500 C   0  0  0  0  0  0  0  0  0  0  0  0
    9.7060   14.5910   22.9990 N   0  0  0  0  0  0  0  0  0  0  0  0
    8.9290   13.5640   23.4150 C   0  0  0  0  0  0  0  0  0  0  0  0
    7.9940   13.1480   22.7390 O   0  0  0  0  0  0  0  0  0  0  0  0
    9.2570   12.9620   24.7720 C   0  0  0  0  0  0  0  0  0  0  0  0
    8.2710   11.8950   25.1750 C   0  0  0  0  0  0  0  0  0  0  0  0
    8.4130   10.5810   24.7240 C   0  0  0  0  0  0  0  0  0  0  0  0
    9.4130   10.3790   23.8100 O   0  0  0  0  0  0  0  0  0  0  0  0
    9.6450    9.0370   23.3540 C   0  0  0  0  0  0  0  0  0  0  0  0
    7.3030   12.2510   26.0350 N   0  0  0  0  0  0  0  0  0  0  0  0
    6.4870   11.2940   26.5000 C   0  0  0  0  0  0  0  0  0  0  0  0
    6.5790    9.9750   26.1280 C   0  0  0  0  0  0  0  0  0  0  0  0
    7.5570    9.6030   25.2140 C   0  0  0  0  0  0  0  0  0  0  0  0
 16 15  1  0
 15 14  1  0
 14 20  2  0
 20 19  1  0
 19 18  2  0
 18 17  1  0
 17 13  2  0
 14 13  1  0
 13 12  1  0
 12 10  1  0
 11 10  2  0
 10  9  1  0
  9  7  1  0
  7  6  1  0
  6  5  1  0
  5  4  1  0
  4  2  1  6
  3  2  1  0
  2  1  2  0
  8  4  1  0
  9  8  1  0
M  END
>  <smiles>  (131) 
COc1cccnc1CC(=O)N1CCC[C@H](C(N)=O)C1

>  <inchikey>  (131) 
VJNDTMIDSGNFJC-JTQLQIEISA-N

>  <alias>  (131) 
A4283b

$$$$
A4386a
     RDKit          3D

 20 21  0  0  0  0  0  0  0  0999 V2000
   10.4190   16.8030   19.1770 O   0  0  0  0  0  0  0  0  0  0  0  0
   10.7180   15.6260   19.3960 C   0  0  0  0  0  0  0  0  0  0  0  0
   11.1850   14.8260   18.4550 N   0  0  0  0  0  0  0  0  0  0  0  0
   10.6910   15.0550   20.8050 C   0  0  1  0  0  0  0  0  0  0  0  0
   11.7930   15.7110   21.6580 C   0  0  0  0  0  0  0  0  0  0  0  0
   11.8360   15.1560   23.0800 C   0  0  0  0  0  0  0  0  0  0  0  0
   10.4790   15.2900   23.7360 C   0  0  0  0  0  0  0  0  0  0  0  0
    9.3500   15.2230   21.5320 C   0  0  0  0  0  0  0  0  0  0  0  0
    9.4200   14.6900   22.9030 N   0  0  0  0  0  0  0  0  0  0  0  0
    8.5390   13.7650   23.3560 C   0  0  0  0  0  0  0  0  0  0  0  0
    7.6470   13.3110   22.6480 O   0  0  0  0  0  0  0  0  0  0  0  0
    8.6880   13.3460   24.8100 C   0  0  0  0  0  0  0  0  0  0  0  0
    7.8410   12.1490   25.1850 C   0  0  0  0  0  0  0  0  0  0  0  0
    8.0950   10.8490   24.7200 C   0  0  0  0  0  0  0  0  0  0  0  0
    9.4150   10.6170   23.5730 S   0  0  0  0  0  0  0  0  0  0  0  0
    9.5290    8.8350   23.4160 C   0  0  0  0  0  0  0  0  0  0  0  0
    6.7860   12.3290   26.0770 C   0  0  0  0  0  0  0  0  0  0  0  0
    6.0100   11.2630   26.4920 C   0  0  0  0  0  0  0  0  0  0  0  0
    6.2740    9.9970   26.0360 C   0  0  0  0  0  0  0  0  0  0  0  0
    7.3210    9.7770   25.1640 C   0  0  0  0  0  0  0  0  0  0  0  0
 16 15  1  0
 15 14  1  0
 14 20  2  0
 20 19  1  0
 19 18  2  0
 18 17  1  0
 17 13  2  0
 14 13  1  0
 13 12  1  0
 12 10  1  0
 11 10  2  0
 10  9  1  0
  9  7  1  0
  7  6  1  0
  6  5  1  0
  5  4  1  0
  4  2  1  6
  3  2  1  0
  2  1  2  0
  8  4  1  0
  9  8  1  0
M  END
>  <smiles>  (132) 
CSc1ccccc1CC(=O)N1CCC[C@H](C(N)=O)C1

>  <inchikey>  (132) 
OEVXZKJZIWUQNR-LBPRGKRZSA-N

>  <alias>  (132) 
A4386a

$$$$
A4402a
     RDKit          3D

 19 20  0  0  0  0  0  0  0  0999 V2000
    7.6760   13.4110   22.2940 O   0  0  0  0  0  0  0  0  0  0  0  0
    8.5040   13.8540   23.0540 C   0  0  0  0  0  0  0  0  0  0  0  0
    9.2030   14.9860   22.7580 N   0  0  0  0  0  0  0  0  0  0  0  0
    9.1890   15.4760   21.3750 C   0  0  0  0  0  0  0  0  0  0  0  0
   10.4810   15.1510   20.6690 C   0  0  0  0  0  0  0  0  0  0  0  0
   10.4630   15.5020   19.2050 C   0  0  0  0  0  0  0  0  0  0  0  0
   10.1000   16.6220   18.8280 O   0  0  0  0  0  0  0  0  0  0  0  0
   10.8340   14.5350   18.3820 N   0  0  0  0  0  0  0  0  0  0  0  0
   10.0440   15.7570   23.6760 C   0  0  0  0  0  0  0  0  0  0  0  0
    9.6450   15.5070   25.1150 C   0  0  0  0  0  0  0  0  0  0  0  0
    9.4080   14.0350   25.4120 C   0  0  0  0  0  0  0  0  0  0  0  0
    8.6490   13.3730   24.3340 N   0  0  0  0  0  0  0  0  0  0  0  0
    8.2220   12.0500   24.6350 C   0  0  0  0  0  0  0  0  0  0  0  0
    7.2780   11.8180   25.6320 C   0  0  0  0  0  0  0  0  0  0  0  0
    6.9020   10.5160   25.9120 C   0  0  0  0  0  0  0  0  0  0  0  0
    7.4320    9.4640   25.1780 C   0  0  0  0  0  0  0  0  0  0  0  0
    8.7750   10.9810   23.9340 C   0  0  0  0  0  0  0  0  0  0  0  0
    8.3740    9.6790   24.1880 C   0  0  0  0  0  0  0  0  0  0  0  0
    9.0080    8.5220   23.4550 C   0  0  0  0  0  0  0  0  0  0  0  0
 19 18  1  0
 18 16  2  0
 16 15  1  0
 15 14  2  0
 14 13  1  0
 13 12  1  0
 12 11  1  0
 11 10  1  0
 10  9  1  0
  9  3  1  0
  4  3  1  0
  5  4  1  0
  6  5  1  0
  8  6  1  0
  7  6  2  0
  3  2  1  0
 12  2  1  0
  2  1  2  0
 17 13  2  0
 18 17  1  0
M  END
>  <smiles>  (133) 
Cc1cccc(N2CCCN(CCC(N)=O)C2=O)c1

>  <inchikey>  (133) 
SQAKFKXNPUIJIK-UHFFFAOYSA-N

>  <alias>  (133) 
A4402a

$$$$
A4423a
     RDKit          3D

 20 21  0  0  0  0  0  0  0  0999 V2000
    7.8680   13.1260   22.9750 O   0  0  0  0  0  0  0  0  0  0  0  0
    8.8550   13.4080   23.6420 C   0  0  0  0  0  0  0  0  0  0  0  0
    9.7090   14.3910   23.2800 N   0  0  0  0  0  0  0  0  0  0  0  0
    9.4890   15.1850   22.0690 C   0  0  0  0  0  0  0  0  0  0  0  0
   10.4350   14.7100   20.9700 C   0  0  1  0  0  0  0  0  0  0  0  0
   10.4570   15.6320   19.7540 C   0  0  0  0  0  0  0  0  0  0  0  0
   11.3150   14.9800   18.6920 C   0  0  0  0  0  0  0  0  0  0  0  0
   11.0360   15.5200   17.4150 O   0  0  0  0  0  0  0  0  0  0  0  0
   11.8320   14.4450   21.5630 C   0  0  0  0  0  0  0  0  0  0  0  0
   12.0720   15.0680   22.9350 C   0  0  0  0  0  0  0  0  0  0  0  0
   10.9950   14.6710   23.9420 C   0  0  0  0  0  0  0  0  0  0  0  0
    9.2210   12.6520   24.9070 C   0  0  0  0  0  0  0  0  0  0  0  0
    8.2260   11.5730   25.2560 C   0  0  0  0  0  0  0  0  0  0  0  0
    8.3010   10.3050   24.6760 C   0  0  0  0  0  0  0  0  0  0  0  0
    9.3080   10.1420   23.7580 O   0  0  0  0  0  0  0  0  0  0  0  0
    9.6030    8.8160   23.3030 C   0  0  0  0  0  0  0  0  0  0  0  0
    7.2230   11.7630   26.1850 C   0  0  0  0  0  0  0  0  0  0  0  0
    6.3320   10.8390   26.5530 N   0  0  0  0  0  0  0  0  0  0  0  0
    6.4310    9.6430   25.9710 C   0  0  0  0  0  0  0  0  0  0  0  0
    7.3950    9.3210   25.0360 C   0  0  0  0  0  0  0  0  0  0  0  0
 16 15  1  0
 15 14  1  0
 14 20  2  0
 20 19  1  0
 19 18  2  0
 18 17  1  0
 17 13  2  0
 14 13  1  0
 13 12  1  0
 12  2  1  0
  2  1  2  0
  3  2  1  0
  3 11  1  0
 11 10  1  0
 10  9  1  0
  9  5  1  0
  5  6  1  6
  7  6  1  0
  8  7  1  0
  5  4  1  0
  4  3  1  0
M  END
>  <smiles>  (134) 
COc1ccncc1CC(=O)N1CCC[C@H](CCO)C1

>  <inchikey>  (134) 
ZXLDVMYOYPVIJI-GFCCVEGCSA-N

>  <alias>  (134) 
A4423a

$$$$
A4431a
     RDKit          3D

 21 22  0  0  0  0  0  0  0  0999 V2000
   10.2610   16.6690   19.0880 O   0  0  0  0  0  0  0  0  0  0  0  0
   10.6510   15.5390   19.3840 C   0  0  0  0  0  0  0  0  0  0  0  0
   11.1010   14.6750   18.4850 N   0  0  0  0  0  0  0  0  0  0  0  0
   10.6980   15.0770   20.8290 C   0  0  1  0  0  0  0  0  0  0  0  0
   11.7860   15.8150   21.6140 C   0  0  0  0  0  0  0  0  0  0  0  0
   11.9100   15.2630   23.0330 C   0  0  0  0  0  0  0  0  0  0  0  0
   10.5820   15.3470   23.7500 C   0  0  0  0  0  0  0  0  0  0  0  0
    9.3800   15.2550   21.5850 C   0  0  0  0  0  0  0  0  0  0  0  0
    9.5080   14.7360   22.9510 N   0  0  0  0  0  0  0  0  0  0  0  0
    8.6740   13.7770   23.4020 C   0  0  0  0  0  0  0  0  0  0  0  0
    7.8020   13.2900   22.6920 O   0  0  0  0  0  0  0  0  0  0  0  0
    8.9150   13.2990   24.8210 C   0  0  0  0  0  0  0  0  0  0  0  0
    8.0470   12.1220   25.2040 C   0  0  0  0  0  0  0  0  0  0  0  0
    8.2280   10.8140   24.7340 C   0  0  0  0  0  0  0  0  0  0  0  0
    9.5400   10.5390   23.5870 S   0  0  0  0  0  0  0  0  0  0  0  0
    9.5310    8.7660   23.3420 C   0  0  0  0  0  0  0  0  0  0  0  0
    7.0320   12.3750   26.1130 C   0  0  0  0  0  0  0  0  0  0  0  0
    6.2220   11.3530   26.5350 C   0  0  0  0  0  0  0  0  0  0  0  0
    4.8390   11.7460   27.7690 Br  0  0  0  0  0  0  0  0  0  0  0  0
    6.3840   10.0620   26.0850 C   0  0  0  0  0  0  0  0  0  0  0  0
    7.3920    9.7890   25.1780 C   0  0  0  0  0  0  0  0  0  0  0  0
 16 15  1  0
 15 14  1  0
 14 21  2  0
 21 20  1  0
 20 18  2  0
 19 18  1  0
 18 17  1  0
 17 13  2  0
 14 13  1  0
 13 12  1  0
 12 10  1  0
 11 10  2  0
 10  9  1  0
  9  7  1  0
  7  6  1  0
  6  5  1  0
  5  4  1  0
  4  2  1  6
  3  2  1  0
  2  1  2  0
  8  4  1  0
  9  8  1  0
M  END
>  <smiles>  (135) 
CSc1ccc(Br)cc1CC(=O)N1CCC[C@H](C(N)=O)C1

>  <inchikey>  (135) 
CJGWUQPZRLLSPL-JTQLQIEISA-N

>  <alias>  (135) 
A4431a

$$$$
A4445a
     RDKit          3D

 21 22  0  0  0  0  0  0  0  0999 V2000
   10.1300   16.5490   19.3600 O   0  0  0  0  0  0  0  0  0  0  0  0
   10.4710   15.3860   19.5830 C   0  0  0  0  0  0  0  0  0  0  0  0
   10.7600   14.5370   18.6040 N   0  0  0  0  0  0  0  0  0  0  0  0
   10.6090   14.8700   21.0050 C   0  0  1  0  0  0  0  0  0  0  0  0
   11.7840   15.5360   21.7410 C   0  0  0  0  0  0  0  0  0  0  0  0
   11.9150   14.9800   23.1580 C   0  0  0  0  0  0  0  0  0  0  0  0
   10.5740   15.0480   23.9030 C   0  0  0  0  0  0  0  0  0  0  0  0
    9.3150   15.0030   21.8140 C   0  0  0  0  0  0  0  0  0  0  0  0
    9.4950   14.4030   23.1420 N   0  0  0  0  0  0  0  0  0  0  0  0
    8.6950   13.3640   23.5160 C   0  0  0  0  0  0  0  0  0  0  0  0
    7.7200   13.0480   22.8440 O   0  0  0  0  0  0  0  0  0  0  0  0
    9.0370   12.5340   24.7500 C   0  0  1  0  0  0  0  0  0  0  0  0
   10.3010   13.0010   25.4750 C   0  0  0  0  0  0  0  0  0  0  0  0
    7.8390   12.4220   25.6890 C   0  0  0  0  0  0  0  0  0  0  0  0
    7.3530   13.5520   26.3500 C   0  0  0  0  0  0  0  0  0  0  0  0
    8.0440   14.7090   26.1100 O   0  0  0  0  0  0  0  0  0  0  0  0
    7.5640   15.9110   26.7280 C   0  0  0  0  0  0  0  0  0  0  0  0
    7.2020   11.2080   25.9130 C   0  0  0  0  0  0  0  0  0  0  0  0
    6.0820   11.1300   26.7230 C   0  0  0  0  0  0  0  0  0  0  0  0
    5.6100   12.2510   27.3610 C   0  0  0  0  0  0  0  0  0  0  0  0
    6.2490   13.4690   27.1960 C   0  0  0  0  0  0  0  0  0  0  0  0
 17 16  1  0
 16 15  1  0
 15 21  2  0
 21 20  1  0
 20 19  2  0
 19 18  1  0
 18 14  2  0
 15 14  1  0
 14 12  1  0
 12 13  1  1
 12 10  1  0
 11 10  2  0
 10  9  1  0
  9  7  1  0
  7  6  1  0
  6  5  1  0
  5  4  1  0
  4  2  1  6
  3  2  1  0
  2  1  2  0
  8  4  1  0
  9  8  1  0
M  END
>  <smiles>  (136) 
COc1ccccc1[C@H](C)C(=O)N1CCC[C@H](C(N)=O)C1

>  <inchikey>  (136) 
PMVJSDCMAGKMNB-RYUDHWBXSA-N

>  <alias>  (136) 
A4445a

$$$$
A4445b
     RDKit          3D

 21 22  0  0  0  0  0  0  0  0999 V2000
   10.2460   16.6790   19.3080 O   0  0  0  0  0  0  0  0  0  0  0  0
   10.5800   15.5020   19.5380 C   0  0  0  0  0  0  0  0  0  0  0  0
   10.8380   14.6230   18.5710 N   0  0  0  0  0  0  0  0  0  0  0  0
   10.7200   14.9970   20.9640 C   0  0  1  0  0  0  0  0  0  0  0  0
   11.8600   15.7240   21.7050 C   0  0  0  0  0  0  0  0  0  0  0  0
   11.9770   15.1950   23.1360 C   0  0  0  0  0  0  0  0  0  0  0  0
   10.6130   15.2750   23.8520 C   0  0  0  0  0  0  0  0  0  0  0  0
    9.4080   15.1190   21.7520 C   0  0  0  0  0  0  0  0  0  0  0  0
    9.5680   14.5560   23.1000 N   0  0  0  0  0  0  0  0  0  0  0  0
    8.7850   13.4810   23.4560 C   0  0  0  0  0  0  0  0  0  0  0  0
    7.8100   13.1410   22.7780 O   0  0  0  0  0  0  0  0  0  0  0  0
    9.1370   12.6520   24.6880 C   0  0  1  0  0  0  0  0  0  0  0  0
   10.3720   13.1670   25.4280 C   0  0  0  0  0  0  0  0  0  0  0  0
    7.9180   12.4790   25.5900 C   0  0  0  0  0  0  0  0  0  0  0  0
    7.3970   13.5790   26.2710 C   0  0  0  0  0  0  0  0  0  0  0  0
    8.0370   14.7630   26.0300 O   0  0  0  0  0  0  0  0  0  0  0  0
    7.6020   15.9240   26.7450 C   0  0  0  0  0  0  0  0  0  0  0  0
    7.2910   11.2470   25.7550 C   0  0  0  0  0  0  0  0  0  0  0  0
    6.1710   11.1210   26.5630 C   0  0  0  0  0  0  0  0  0  0  0  0
    5.6920   12.2080   27.2510 C   0  0  0  0  0  0  0  0  0  0  0  0
    6.3030   13.4430   27.1200 C   0  0  0  0  0  0  0  0  0  0  0  0
 17 16  1  0
 16 15  1  0
 15 21  2  0
 21 20  1  0
 20 19  2  0
 19 18  1  0
 18 14  2  0
 15 14  1  0
 14 12  1  0
 12 13  1  1
 12 10  1  0
 11 10  2  0
 10  9  1  0
  9  7  1  0
  7  6  1  0
  6  5  1  0
  5  4  1  0
  4  2  1  6
  3  2  1  0
  2  1  2  0
  8  4  1  0
  9  8  1  0
M  END
>  <smiles>  (137) 
COc1ccccc1[C@H](C)C(=O)N1CCC[C@H](C(N)=O)C1

>  <inchikey>  (137) 
PMVJSDCMAGKMNB-RYUDHWBXSA-N

>  <alias>  (137) 
A4445b

$$$$
A4449a
     RDKit          3D

 24 25  0  0  0  0  0  0  0  0999 V2000
   10.3000   16.6260   19.2230 O   0  0  0  0  0  0  0  0  0  0  0  0
   10.7080   15.4780   19.4300 C   0  0  0  0  0  0  0  0  0  0  0  0
   10.9920   14.6260   18.4490 N   0  0  0  0  0  0  0  0  0  0  0  0
   10.8160   14.9250   20.8400 C   0  0  1  0  0  0  0  0  0  0  0  0
   11.9350   15.6100   21.6410 C   0  0  0  0  0  0  0  0  0  0  0  0
   12.0230   15.0050   23.0430 C   0  0  0  0  0  0  0  0  0  0  0  0
   10.6780   15.1030   23.7580 C   0  0  0  0  0  0  0  0  0  0  0  0
    9.4810   15.0970   21.5740 C   0  0  0  0  0  0  0  0  0  0  0  0
    9.5610   14.5830   22.9450 N   0  0  0  0  0  0  0  0  0  0  0  0
    8.6100   13.7390   23.4090 C   0  0  0  0  0  0  0  0  0  0  0  0
    7.7240   13.3140   22.6870 O   0  0  0  0  0  0  0  0  0  0  0  0
    8.6570   13.3160   24.9130 C   0  0  1  0  0  0  0  0  0  0  0  0
    8.4080   14.4670   25.7780 N   0  0  0  0  0  0  0  0  0  0  0  0
    9.2320   14.8050   26.7830 C   0  0  0  0  0  0  0  0  0  0  0  0
   10.2920   14.2150   26.9860 O   0  0  0  0  0  0  0  0  0  0  0  0
    8.7720   15.9250   27.6670 C   0  0  0  0  0  0  0  0  0  0  0  0
    7.7030   12.1600   25.1990 C   0  0  0  0  0  0  0  0  0  0  0  0
    7.9630   10.8670   24.7230 C   0  0  0  0  0  0  0  0  0  0  0  0
    9.0720   10.7500   23.9280 O   0  0  0  0  0  0  0  0  0  0  0  0
    9.5280    9.4350   23.5920 C   0  0  0  0  0  0  0  0  0  0  0  0
    6.5680   12.3540   25.9840 C   0  0  0  0  0  0  0  0  0  0  0  0
    5.7240   11.3000   26.2950 C   0  0  0  0  0  0  0  0  0  0  0  0
    5.9980   10.0360   25.8260 C   0  0  0  0  0  0  0  0  0  0  0  0
    7.1230    9.8080   25.0480 C   0  0  0  0  0  0  0  0  0  0  0  0
 20 19  1  0
 19 18  1  0
 18 24  2  0
 24 23  1  0
 23 22  2  0
 22 21  1  0
 21 17  2  0
 18 17  1  0
 17 12  1  0
 12 13  1  1
 14 13  1  0
 16 14  1  0
 15 14  2  0
 12 10  1  0
 11 10  2  0
 10  9  1  0
  9  7  1  0
  7  6  1  0
  6  5  1  0
  5  4  1  0
  4  2  1  6
  3  2  1  0
  2  1  2  0
  8  4  1  0
  9  8  1  0
M  END
>  <smiles>  (138) 
COc1ccccc1[C@H](NC(C)=O)C(=O)N1CCC[C@H](C(N)=O)C1

>  <inchikey>  (138) 
KEZJHWCQWSCOQQ-WFASDCNBSA-N

>  <alias>  (138) 
A4449a

$$$$
A4449b
     RDKit          3D

 24 25  0  0  0  0  0  0  0  0999 V2000
   10.3990   16.6280   19.2010 O   0  0  0  0  0  0  0  0  0  0  0  0
   10.8170   15.4750   19.3960 C   0  0  0  0  0  0  0  0  0  0  0  0
   11.0830   14.6220   18.4200 N   0  0  0  0  0  0  0  0  0  0  0  0
   10.9800   14.9250   20.8020 C   0  0  1  0  0  0  0  0  0  0  0  0
   12.1100   15.6440   21.5630 C   0  0  0  0  0  0  0  0  0  0  0  0
   12.2430   15.0720   22.9770 C   0  0  0  0  0  0  0  0  0  0  0  0
   10.9050   15.1610   23.7190 C   0  0  0  0  0  0  0  0  0  0  0  0
    9.6640   15.0800   21.5720 C   0  0  0  0  0  0  0  0  0  0  0  0
    9.7970   14.5690   22.9410 N   0  0  0  0  0  0  0  0  0  0  0  0
    8.8720   13.7060   23.4350 C   0  0  0  0  0  0  0  0  0  0  0  0
    7.9590   13.2710   22.7450 O   0  0  0  0  0  0  0  0  0  0  0  0
    8.9630   13.3010   24.9390 C   0  0  1  0  0  0  0  0  0  0  0  0
    8.6560   14.4680   25.7660 N   0  0  0  0  0  0  0  0  0  0  0  0
    9.4670   14.8630   26.7620 C   0  0  0  0  0  0  0  0  0  0  0  0
   10.5580   14.3240   26.9720 O   0  0  0  0  0  0  0  0  0  0  0  0
    8.9800   16.0280   27.5760 C   0  0  0  0  0  0  0  0  0  0  0  0
    8.0270   12.1320   25.2500 C   0  0  0  0  0  0  0  0  0  0  0  0
    8.2670   10.8470   24.7460 C   0  0  0  0  0  0  0  0  0  0  0  0
    9.3600   10.7280   23.9280 O   0  0  0  0  0  0  0  0  0  0  0  0
    9.7750    9.4090   23.5470 C   0  0  0  0  0  0  0  0  0  0  0  0
    6.9520   12.2970   26.1210 C   0  0  0  0  0  0  0  0  0  0  0  0
    6.1500   11.2260   26.4880 C   0  0  0  0  0  0  0  0  0  0  0  0
    6.4070    9.9730   25.9930 C   0  0  0  0  0  0  0  0  0  0  0  0
    7.4610    9.7730   25.1140 C   0  0  0  0  0  0  0  0  0  0  0  0
 20 19  1  0
 19 18  1  0
 18 24  2  0
 24 23  1  0
 23 22  2  0
 22 21  1  0
 21 17  2  0
 18 17  1  0
 17 12  1  0
 12 13  1  1
 14 13  1  0
 16 14  1  0
 15 14  2  0
 12 10  1  0
 11 10  2  0
 10  9  1  0
  9  7  1  0
  7  6  1  0
  6  5  1  0
  5  4  1  0
  4  2  1  6
  3  2  1  0
  2  1  2  0
  8  4  1  0
  9  8  1  0
M  END
>  <smiles>  (139) 
COc1ccccc1[C@H](NC(C)=O)C(=O)N1CCC[C@H](C(N)=O)C1

>  <inchikey>  (139) 
KEZJHWCQWSCOQQ-WFASDCNBSA-N

>  <alias>  (139) 
A4449b

$$$$
A4451a
     RDKit          3D

 23 25  0  0  0  0  0  0  0  0999 V2000
    7.8130   13.2640   22.7780 O   0  0  0  0  0  0  0  0  0  0  0  0
    8.6550   13.8390   23.4410 C   0  0  0  0  0  0  0  0  0  0  0  0
    9.3670   14.8680   22.9540 N   0  0  0  0  0  0  0  0  0  0  0  0
   10.3730   15.6160   23.7210 C   0  0  0  0  0  0  0  0  0  0  0  0
   11.7440   15.4310   23.1020 C   0  0  0  0  0  0  0  0  0  0  0  0
   11.7030   15.8430   21.6350 C   0  0  0  0  0  0  0  0  0  0  0  0
    9.2750   15.2480   21.5430 C   0  0  0  0  0  0  0  0  0  0  0  0
   10.6330   15.0570   20.8700 C   0  0  1  0  0  0  0  0  0  0  0  0
   10.5090   15.5360   19.4350 C   0  0  0  0  0  0  0  0  0  0  0  0
   10.1500   16.6920   19.1760 O   0  0  0  0  0  0  0  0  0  0  0  0
   10.7550   14.6200   18.4990 N   0  0  0  0  0  0  0  0  0  0  0  0
    8.9530   13.3850   24.8790 C   0  0  1  0  0  0  0  0  0  0  0  0
    8.1900   14.1590   25.8740 N   0  0  0  0  0  0  0  0  0  0  0  0
    8.8180   14.5820   27.0020 N   0  0  0  0  0  0  0  0  0  0  0  0
    7.8800   15.2560   27.6610 C   0  0  0  0  0  0  0  0  0  0  0  0
    6.6700   15.2770   26.9720 C   0  0  0  0  0  0  0  0  0  0  0  0
    6.9030   14.5590   25.8300 C   0  0  0  0  0  0  0  0  0  0  0  0
    8.7750   11.8980   25.0340 C   0  0  0  0  0  0  0  0  0  0  0  0
    9.7200   11.0310   24.5170 C   0  0  0  0  0  0  0  0  0  0  0  0
    9.4540    9.6830   24.4170 C   0  0  0  0  0  0  0  0  0  0  0  0
    8.2610    9.1920   24.8400 C   0  0  0  0  0  0  0  0  0  0  0  0
    7.3340   10.0300   25.4000 C   0  0  0  0  0  0  0  0  0  0  0  0
    7.5860   11.3780   25.4960 C   0  0  0  0  0  0  0  0  0  0  0  0
 11  9  1  0
 10  9  2  0
  8  9  1  6
  8  6  1  0
  6  5  1  0
  5  4  1  0
  4  3  1  0
  3  2  1  0
  2  1  2  0
 12  2  1  0
 18 12  1  0
 18 23  2  0
 23 22  1  0
 22 21  2  0
 21 20  1  0
 20 19  2  0
 19 18  1  0
 12 13  1  1
 13 17  1  0
 17 16  2  0
 16 15  1  0
 15 14  2  0
 14 13  1  0
  7  3  1  0
  8  7  1  0
M  END
>  <smiles>  (140) 
NC(=O)[C@H]1CCCN(C(=O)[C@H](c2ccccc2)n2cccn2)C1

>  <inchikey>  (140) 
QFDXKCWZNOGADA-GJZGRUSLSA-N

>  <alias>  (140) 
A4451a

$$$$
A4451b
     RDKit          3D

 23 25  0  0  0  0  0  0  0  0999 V2000
    8.0160   13.2840   22.7990 O   0  0  0  0  0  0  0  0  0  0  0  0
    8.8790   13.8710   23.4520 C   0  0  0  0  0  0  0  0  0  0  0  0
    9.5750   14.9080   22.9590 N   0  0  0  0  0  0  0  0  0  0  0  0
   10.5760   15.6900   23.7060 C   0  0  0  0  0  0  0  0  0  0  0  0
   11.9380   15.5510   23.0630 C   0  0  0  0  0  0  0  0  0  0  0  0
   11.8660   15.9450   21.5850 C   0  0  0  0  0  0  0  0  0  0  0  0
    9.4440   15.2860   21.5480 C   0  0  0  0  0  0  0  0  0  0  0  0
   10.7940   15.1180   20.8460 C   0  0  1  0  0  0  0  0  0  0  0  0
   10.6360   15.5940   19.4150 C   0  0  0  0  0  0  0  0  0  0  0  0
   10.2940   16.7640   19.1670 O   0  0  0  0  0  0  0  0  0  0  0  0
   10.8230   14.6640   18.4820 N   0  0  0  0  0  0  0  0  0  0  0  0
    9.1920   13.4120   24.8850 C   0  0  1  0  0  0  0  0  0  0  0  0
    8.4130   14.1810   25.8810 N   0  0  0  0  0  0  0  0  0  0  0  0
    9.0250   14.5800   27.0280 N   0  0  0  0  0  0  0  0  0  0  0  0
    8.0730   15.2310   27.6930 C   0  0  0  0  0  0  0  0  0  0  0  0
    6.8700   15.2590   26.9940 C   0  0  0  0  0  0  0  0  0  0  0  0
    7.1210   14.5730   25.8330 C   0  0  0  0  0  0  0  0  0  0  0  0
    8.9920   11.9200   25.0280 C   0  0  0  0  0  0  0  0  0  0  0  0
    9.9240   11.0510   24.4990 C   0  0  0  0  0  0  0  0  0  0  0  0
    9.6460    9.7030   24.3960 C   0  0  0  0  0  0  0  0  0  0  0  0
    8.4480    9.2180   24.8250 C   0  0  0  0  0  0  0  0  0  0  0  0
    7.5290   10.0580   25.3870 C   0  0  0  0  0  0  0  0  0  0  0  0
    7.7940   11.4050   25.4870 C   0  0  0  0  0  0  0  0  0  0  0  0
 11  9  1  0
 10  9  2  0
  8  9  1  6
  8  6  1  0
  6  5  1  0
  5  4  1  0
  4  3  1  0
  3  2  1  0
  2  1  2  0
 12  2  1  0
 18 12  1  0
 18 23  2  0
 23 22  1  0
 22 21  2  0
 21 20  1  0
 20 19  2  0
 19 18  1  0
 12 13  1  1
 13 17  1  0
 17 16  2  0
 16 15  1  0
 15 14  2  0
 14 13  1  0
  7  3  1  0
  8  7  1  0
M  END
>  <smiles>  (141) 
NC(=O)[C@H]1CCCN(C(=O)[C@H](c2ccccc2)n2cccn2)C1

>  <inchikey>  (141) 
QFDXKCWZNOGADA-GJZGRUSLSA-N

>  <alias>  (141) 
A4451b

$$$$
A4456a
     RDKit          3D

 21 23  0  0  0  0  0  0  0  0999 V2000
    7.5770   13.3890   22.4230 O   0  0  0  0  0  0  0  0  0  0  0  0
    8.5050   13.6060   23.1390 C   0  0  0  0  0  0  0  0  0  0  0  0
    9.3950   14.6210   22.9130 N   0  0  0  0  0  0  0  0  0  0  0  0
   10.4420   15.2470   23.7470 C   0  0  0  0  0  0  0  0  0  0  0  0
   11.8240   15.1810   23.0910 C   0  0  0  0  0  0  0  0  0  0  0  0
   11.7840   15.7250   21.6520 C   0  0  0  0  0  0  0  0  0  0  0  0
    9.3550   15.2100   21.5680 C   0  0  0  0  0  0  0  0  0  0  0  0
   10.6850   14.9880   20.8480 C   0  0  1  0  0  0  0  0  0  0  0  0
   10.5970   15.4990   19.4200 C   0  0  0  0  0  0  0  0  0  0  0  0
   10.2250   16.6490   19.1750 O   0  0  0  0  0  0  0  0  0  0  0  0
   10.9290   14.6270   18.4660 N   0  0  0  0  0  0  0  0  0  0  0  0
    8.8130   12.3160   23.8820 C   0  0  2  0  0  0  0  0  0  0  0  0
    7.8670   12.0320   25.0260 C   0  0  0  0  0  0  0  0  0  0  0  0
    8.0640   10.6580   24.9530 C   0  0  0  0  0  0  0  0  0  0  0  0
    9.5170   10.4380   24.5830 C   0  0  0  0  0  0  0  0  0  0  0  0
   10.0110   11.8730   24.4020 C   0  0  0  0  0  0  0  0  0  0  0  0
    6.7370   12.5350   25.6840 C   0  0  0  0  0  0  0  0  0  0  0  0
    6.5470   13.8680   25.8880 O   0  0  0  0  0  0  0  0  0  0  0  0
    5.7720   11.6490   26.1760 C   0  0  0  0  0  0  0  0  0  0  0  0
    5.9180   10.2810   25.9730 C   0  0  0  0  0  0  0  0  0  0  0  0
    7.0590    9.7870   25.3550 C   0  0  0  0  0  0  0  0  0  0  0  0
 11  9  1  0
 10  9  2  0
  8  9  1  6
  8  6  1  0
  6  5  1  0
  5  4  1  0
  4  3  1  0
  3  2  1  0
  2  1  2  0
 12  2  1  1
 12 16  1  0
 16 15  1  0
 15 14  1  0
 14 21  2  0
 21 20  1  0
 20 19  2  0
 19 17  1  0
 18 17  1  0
 17 13  2  0
 14 13  1  0
 13 12  1  0
  7  3  1  0
  8  7  1  0
M  END
>  <smiles>  (142) 
NC(=O)[C@H]1CCCN(C(=O)[C@H]2CCc3cccc(O)c32)C1

>  <inchikey>  (142) 
ICZSVGPDCFQROW-RYUDHWBXSA-N

>  <alias>  (142) 
A4456a

$$$$
A4456b
     RDKit          3D

 21 23  0  0  0  0  0  0  0  0999 V2000
    8.4350   14.9400   24.9290 O   0  0  0  0  0  0  0  0  0  0  0  0
    9.0240   14.3060   24.0530 C   0  0  0  0  0  0  0  0  0  0  0  0
    9.6860   14.9230   23.0520 N   0  0  0  0  0  0  0  0  0  0  0  0
   10.7930   15.6130   23.7230 C   0  0  0  0  0  0  0  0  0  0  0  0
   12.0690   15.3590   22.9980 C   0  0  0  0  0  0  0  0  0  0  0  0
   11.9460   15.8350   21.5490 C   0  0  0  0  0  0  0  0  0  0  0  0
    9.4900   15.2270   21.6220 C   0  0  0  0  0  0  0  0  0  0  0  0
   10.8070   15.0760   20.8450 C   0  0  1  0  0  0  0  0  0  0  0  0
   10.6760   15.5640   19.4140 C   0  0  0  0  0  0  0  0  0  0  0  0
   10.2880   16.7150   19.1710 O   0  0  0  0  0  0  0  0  0  0  0  0
   10.9450   14.6680   18.4610 N   0  0  0  0  0  0  0  0  0  0  0  0
    9.0160   12.7840   24.0980 C   0  0  2  0  0  0  0  0  0  0  0  0
    8.2190   12.2030   25.2470 C   0  0  0  0  0  0  0  0  0  0  0  0
    8.4020   10.8340   25.0620 C   0  0  0  0  0  0  0  0  0  0  0  0
    9.6870   10.6000   24.3090 C   0  0  0  0  0  0  0  0  0  0  0  0
   10.2860   12.0020   24.2810 C   0  0  0  0  0  0  0  0  0  0  0  0
    7.1830   12.6660   26.0590 C   0  0  0  0  0  0  0  0  0  0  0  0
    7.0080   14.0200   26.2260 O   0  0  0  0  0  0  0  0  0  0  0  0
    6.3020   11.7500   26.6320 C   0  0  0  0  0  0  0  0  0  0  0  0
    6.4550   10.3920   26.3910 C   0  0  0  0  0  0  0  0  0  0  0  0
    7.4970    9.9310   25.6050 C   0  0  0  0  0  0  0  0  0  0  0  0
 11  9  1  0
 10  9  2  0
  8  9  1  6
  8  6  1  0
  6  5  1  0
  5  4  1  0
  4  3  1  0
  3  2  1  0
  2  1  2  0
 12  2  1  1
 12 16  1  0
 16 15  1  0
 15 14  1  0
 14 21  2  0
 21 20  1  0
 20 19  2  0
 19 17  1  0
 18 17  1  0
 17 13  2  0
 14 13  1  0
 13 12  1  0
  7  3  1  0
  8  7  1  0
M  END
>  <smiles>  (143) 
NC(=O)[C@H]1CCCN(C(=O)[C@H]2CCc3cccc(O)c32)C1

>  <inchikey>  (143) 
ICZSVGPDCFQROW-RYUDHWBXSA-N

>  <alias>  (143) 
A4456b

$$$$
A4461a
     RDKit          3D

 19 20  0  0  0  0  0  0  0  0999 V2000
    9.2990   10.1620   23.6400 Cl  0  0  0  0  0  0  0  0  0  0  0  0
    8.1590   10.6910   24.8350 C   0  0  0  0  0  0  0  0  0  0  0  0
    7.2830    9.7780   25.3980 C   0  0  0  0  0  0  0  0  0  0  0  0
    6.3520   10.1230   26.2960 N   0  0  0  0  0  0  0  0  0  0  0  0
    6.3000   11.4090   26.6490 C   0  0  0  0  0  0  0  0  0  0  0  0
    7.1430   12.3790   26.1430 C   0  0  0  0  0  0  0  0  0  0  0  0
    8.1100   12.0290   25.2060 C   0  0  0  0  0  0  0  0  0  0  0  0
    9.1100   13.0470   24.7090 C   0  0  0  0  0  0  0  0  0  0  0  0
    8.7530   13.6340   23.3540 C   0  0  0  0  0  0  0  0  0  0  0  0
    7.8250   13.1990   22.6870 O   0  0  0  0  0  0  0  0  0  0  0  0
    9.5220   14.6640   22.9330 N   0  0  0  0  0  0  0  0  0  0  0  0
   10.4950   15.3860   23.7680 C   0  0  0  0  0  0  0  0  0  0  0  0
   11.8880   15.2980   23.1660 C   0  0  0  0  0  0  0  0  0  0  0  0
   11.8820   15.7580   21.7040 C   0  0  0  0  0  0  0  0  0  0  0  0
    9.4450   15.1690   21.5590 C   0  0  0  0  0  0  0  0  0  0  0  0
   10.8090   15.0340   20.8720 C   0  0  1  0  0  0  0  0  0  0  0  0
   10.7800   15.5440   19.4400 C   0  0  0  0  0  0  0  0  0  0  0  0
   10.5310   16.7240   19.1860 O   0  0  0  0  0  0  0  0  0  0  0  0
   11.0280   14.6480   18.5020 N   0  0  0  0  0  0  0  0  0  0  0  0
 19 17  1  0
 18 17  2  0
 16 17  1  6
 16 14  1  0
 14 13  1  0
 13 12  1  0
 12 11  1  0
 11  9  1  0
 10  9  2  0
  9  8  1  0
  8  7  1  0
  7  6  2  0
  6  5  1  0
  5  4  2  0
  4  3  1  0
  3  2  2  0
  7  2  1  0
  2  1  1  0
 15 11  1  0
 16 15  1  0
M  END
>  <smiles>  (144) 
NC(=O)[C@H]1CCCN(C(=O)Cc2ccncc2Cl)C1

>  <inchikey>  (144) 
KLQSXSCJLXMZBZ-JTQLQIEISA-N

>  <alias>  (144) 
A4461a

$$$$
A4463a
     RDKit          3D

 21 23  0  0  0  0  0  0  0  0999 V2000
    7.9580   13.3260   22.6900 O   0  0  0  0  0  0  0  0  0  0  0  0
    8.7580   13.8810   23.4280 C   0  0  0  0  0  0  0  0  0  0  0  0
    9.5530   14.8890   23.0000 N   0  0  0  0  0  0  0  0  0  0  0  0
   10.6110   15.5300   23.7970 C   0  0  0  0  0  0  0  0  0  0  0  0
   11.9720   15.3030   23.1500 C   0  0  0  0  0  0  0  0  0  0  0  0
   11.9650   15.7180   21.6710 C   0  0  0  0  0  0  0  0  0  0  0  0
    9.4790   15.4070   21.6290 C   0  0  0  0  0  0  0  0  0  0  0  0
   10.7880   15.1000   20.8890 C   0  0  1  0  0  0  0  0  0  0  0  0
   10.7640   15.5670   19.4410 C   0  0  0  0  0  0  0  0  0  0  0  0
   10.4130   16.7140   19.1430 O   0  0  0  0  0  0  0  0  0  0  0  0
   11.1020   14.6670   18.5360 N   0  0  0  0  0  0  0  0  0  0  0  0
    8.9030   13.4610   24.8800 C   0  0  0  0  0  0  0  0  0  0  0  0
    8.2190   12.1400   25.1580 C   0  0  0  0  0  0  0  0  0  0  0  0
    8.6390   10.9580   24.5160 C   0  0  0  0  0  0  0  0  0  0  0  0
    9.6720   10.8090   23.6390 N   0  0  0  0  0  0  0  0  0  0  0  0
    9.7270    9.2000   23.2620 S   0  0  0  0  0  0  0  0  0  0  0  0
    8.4550    8.6770   24.1620 N   0  0  0  0  0  0  0  0  0  0  0  0
    7.9490    9.7410   24.7990 C   0  0  0  0  0  0  0  0  0  0  0  0
    6.8570    9.7280   25.6810 C   0  0  0  0  0  0  0  0  0  0  0  0
    6.4710   10.8990   26.3020 C   0  0  0  0  0  0  0  0  0  0  0  0
    7.1500   12.0810   26.0520 C   0  0  0  0  0  0  0  0  0  0  0  0
 11  9  1  0
 10  9  2  0
  8  9  1  6
  8  6  1  0
  6  5  1  0
  5  4  1  0
  4  3  1  0
  3  2  1  0
  2  1  2  0
 12  2  1  0
 13 12  1  0
 13 21  2  0
 21 20  1  0
 20 19  2  0
 19 18  1  0
 18 17  2  0
 17 16  1  0
 16 15  1  0
 15 14  2  0
 14 13  1  0
 18 14  1  0
  7  3  1  0
  8  7  1  0
M  END
>  <smiles>  (145) 
NC(=O)[C@H]1CCCN(C(=O)Cc2cccc3nsnc23)C1

>  <inchikey>  (145) 
MSPQKNPSTZGBCJ-JTQLQIEISA-N

>  <alias>  (145) 
A4463a

$$$$
A4467a
     RDKit          3D

 21 23  0  0  0  0  0  0  0  0999 V2000
    7.2040   13.0360   22.5250 O   0  0  0  0  0  0  0  0  0  0  0  0
    7.9360   13.6260   23.2850 C   0  0  0  0  0  0  0  0  0  0  0  0
    8.8820   14.4770   22.8420 N   0  0  0  0  0  0  0  0  0  0  0  0
   10.0130   14.9470   23.6580 C   0  0  0  0  0  0  0  0  0  0  0  0
   11.3660   14.6840   23.0510 C   0  0  0  0  0  0  0  0  0  0  0  0
   11.4170   15.1480   21.6280 C   0  0  0  0  0  0  0  0  0  0  0  0
    8.8800   15.1310   21.5410 C   0  0  0  0  0  0  0  0  0  0  0  0
   10.1690   14.7380   20.8320 C   0  0  1  0  0  0  0  0  0  0  0  0
   10.1880   15.2770   19.4120 C   0  0  0  0  0  0  0  0  0  0  0  0
    9.8420   16.4040   19.1350 O   0  0  0  0  0  0  0  0  0  0  0  0
   10.3610   14.3810   18.4990 N   0  0  0  0  0  0  0  0  0  0  0  0
    7.7220   13.4110   24.8180 C   0  0  0  0  0  0  0  0  0  0  0  0
    8.3540   14.1710   25.9900 C   0  0  0  0  0  0  0  0  0  0  0  0
    7.2710   14.3390   27.0700 C   0  0  0  0  0  0  0  0  0  0  0  0
    6.0110   13.6290   26.6020 C   0  0  0  0  0  0  0  0  0  0  0  0
    6.1980   13.4350   25.0570 C   0  0  0  0  0  0  0  0  0  0  0  0
    8.3560   12.0540   24.9500 N   0  0  0  0  0  0  0  0  0  0  0  0
    9.6710   11.7350   25.0570 N   0  0  0  0  0  0  0  0  0  0  0  0
    9.6730   10.4190   25.0970 C   0  0  0  0  0  0  0  0  0  0  0  0
    8.3890    9.8950   25.0510 C   0  0  0  0  0  0  0  0  0  0  0  0
    7.5750   10.9570   24.9100 C   0  0  0  0  0  0  0  0  0  0  0  0
 11  9  1  0
 10  9  2  0
  8  9  1  6
  8  6  1  0
  6  5  1  0
  5  4  1  0
  4  3  1  0
  3  2  1  0
  2  1  2  0
 12  2  1  0
 17 12  1  0
 17 21  1  0
 21 20  2  0
 20 19  1  0
 19 18  2  0
 18 17  1  0
 12 16  1  0
 16 15  1  0
 15 14  1  0
 14 13  1  0
 13 12  1  0
  7  3  1  0
  8  7  1  0
M  END
>  <smiles>  (146) 
NC(=O)[C@H]1CCCN(C(=O)C2(n3cccn3)CCCC2)C1

>  <inchikey>  (146) 
YQFLIUDOUNFRNX-LBPRGKRZSA-N

>  <alias>  (146) 
A4467a

$$$$
A4472a
     RDKit          3D

 19 21  0  0  0  0  0  0  0  0999 V2000
    7.6410   13.0950   22.7760 O   0  0  0  0  0  0  0  0  0  0  0  0
    8.4620   13.6540   23.4720 C   0  0  0  0  0  0  0  0  0  0  0  0
    8.3820   13.5660   24.9950 C   0  0  2  0  0  0  0  0  0  0  0  0
    7.4830   12.4770   25.5310 C   0  0  0  0  0  0  0  0  0  0  0  0
    7.5840   11.1260   25.6760 N   0  0  0  0  0  0  0  0  0  0  0  0
    6.6260   10.5990   26.3710 N   0  0  0  0  0  0  0  0  0  0  0  0
    5.5240   11.7600   26.8960 S   0  0  0  0  0  0  0  0  0  0  0  0
    6.3910   13.0120   26.1420 C   0  0  0  0  0  0  0  0  0  0  0  0
    6.3360   14.4990   25.9940 C   0  0  0  0  0  0  0  0  0  0  0  0
    7.7840   14.8330   25.6590 C   0  0  0  0  0  0  0  0  0  0  0  0
    9.3980   14.4540   22.9230 N   0  0  0  0  0  0  0  0  0  0  0  0
   10.5610   14.9420   23.6890 C   0  0  0  0  0  0  0  0  0  0  0  0
   11.8470   14.8560   22.8890 C   0  0  0  0  0  0  0  0  0  0  0  0
   11.6570   15.5040   21.5280 C   0  0  0  0  0  0  0  0  0  0  0  0
    9.2400   14.9620   21.5500 C   0  0  0  0  0  0  0  0  0  0  0  0
   10.5360   14.7850   20.7600 C   0  0  1  0  0  0  0  0  0  0  0  0
   10.4810   15.2540   19.3170 C   0  0  0  0  0  0  0  0  0  0  0  0
    9.9880   16.3480   19.0240 O   0  0  0  0  0  0  0  0  0  0  0  0
   11.0900   14.4800   18.4340 N   0  0  0  0  0  0  0  0  0  0  0  0
 19 17  1  0
 18 17  2  0
 16 17  1  6
 16 14  1  0
 14 13  1  0
 13 12  1  0
 12 11  1  0
 11  2  1  0
  2  1  2  0
  3  2  1  6
  3 10  1  0
 10  9  1  0
  9  8  1  0
  8  7  1  0
  7  6  1  0
  6  5  2  0
  5  4  1  0
  8  4  2  0
  4  3  1  0
 15 11  1  0
 16 15  1  0
M  END
>  <smiles>  (147) 
NC(=O)[C@H]1CCCN(C(=O)[C@H]2CCc3snnc32)C1

>  <inchikey>  (147) 
FSHIEOXXSXYCQT-YUMQZZPRSA-N

>  <alias>  (147) 
A4472a

$$$$
A4476a
     RDKit          3D

 21 23  0  0  0  0  0  0  0  0999 V2000
   10.2470   16.7230   18.9160 O   0  0  0  0  0  0  0  0  0  0  0  0
   10.5680   15.5890   19.2750 C   0  0  0  0  0  0  0  0  0  0  0  0
   10.9750   14.6490   18.4360 N   0  0  0  0  0  0  0  0  0  0  0  0
   10.5730   15.2300   20.7210 C   0  0  2  0  0  0  0  0  0  0  0  0
    9.3410   14.5250   21.3190 C   0  0  0  0  0  0  0  0  0  0  0  0
   10.7180   16.3810   21.7190 C   0  0  0  0  0  0  0  0  0  0  0  0
   10.7340   15.5030   22.9690 C   0  0  2  0  0  0  0  0  0  0  0  0
   11.8250   14.4620   22.6880 C   0  0  0  0  0  0  0  0  0  0  0  0
   11.7820   14.3440   21.1440 C   0  0  0  0  0  0  0  0  0  0  0  0
    9.5590   14.6370   22.7680 N   0  0  0  0  0  0  0  0  0  0  0  0
    8.7630   14.2260   23.7660 C   0  0  0  0  0  0  0  0  0  0  0  0
    9.0220   14.4720   24.9380 O   0  0  0  0  0  0  0  0  0  0  0  0
    7.5180   13.4610   23.3650 C   0  0  0  0  0  0  0  0  0  0  0  0
    7.1360   12.4380   24.4110 C   0  0  0  0  0  0  0  0  0  0  0  0
    7.6090   11.1290   24.3160 C   0  0  0  0  0  0  0  0  0  0  0  0
    8.5790   10.9390   23.3690 O   0  0  0  0  0  0  0  0  0  0  0  0
    9.5340    9.8990   23.5810 C   0  0  0  0  0  0  0  0  0  0  0  0
    6.2160   12.7340   25.4120 C   0  0  0  0  0  0  0  0  0  0  0  0
    5.7440   11.7460   26.2600 C   0  0  0  0  0  0  0  0  0  0  0  0
    6.1850   10.4500   26.1220 C   0  0  0  0  0  0  0  0  0  0  0  0
    7.1170   10.1300   25.1440 C   0  0  0  0  0  0  0  0  0  0  0  0
 17 16  1  0
 16 15  1  0
 15 21  2  0
 21 20  1  0
 20 19  2  0
 19 18  1  0
 18 14  2  0
 15 14  1  0
 14 13  1  0
 13 11  1  0
 12 11  2  0
 11 10  1  0
 10  5  1  0
  5  4  1  0
  4  2  1  6
  3  2  1  0
  2  1  2  0
  4  9  1  0
  9  8  1  0
  7  8  1  6
 10  7  1  0
  7  6  1  0
  6  4  1  0
M  END
>  <smiles>  (148) 
COc1ccccc1CC(=O)N1C[C@]2(C(N)=O)CC[C@H]1C2

>  <inchikey>  (148) 
SHHPINGYNRIYNK-LRDDRELGSA-N

>  <alias>  (148) 
A4476a

$$$$
A4489a
     RDKit          3D

 19 20  0  0  0  0  0  0  0  0999 V2000
    7.6140   13.3020   22.4970 O   0  0  0  0  0  0  0  0  0  0  0  0
    8.5570   13.6370   23.1890 C   0  0  0  0  0  0  0  0  0  0  0  0
    9.3380   14.6860   22.8680 N   0  0  0  0  0  0  0  0  0  0  0  0
   10.3790   15.2580   23.7370 C   0  0  0  0  0  0  0  0  0  0  0  0
   11.7560   15.1090   23.1210 C   0  0  0  0  0  0  0  0  0  0  0  0
   11.7730   15.6390   21.6860 C   0  0  0  0  0  0  0  0  0  0  0  0
    9.2970   15.2470   21.5160 C   0  0  0  0  0  0  0  0  0  0  0  0
   10.6570   15.0010   20.8540 C   0  0  1  0  0  0  0  0  0  0  0  0
   10.6630   15.5240   19.4290 C   0  0  0  0  0  0  0  0  0  0  0  0
   10.3760   16.6960   19.1770 O   0  0  0  0  0  0  0  0  0  0  0  0
   10.9500   14.6390   18.4940 N   0  0  0  0  0  0  0  0  0  0  0  0
    8.9510   12.9010   24.4560 C   0  0  0  0  0  0  0  0  0  0  0  0
    7.9570   11.8460   24.8740 C   0  0  0  0  0  0  0  0  0  0  0  0
    8.1410   10.4570   24.5770 C   0  0  0  0  0  0  0  0  0  0  0  0
    9.1590   10.0320   23.8080 N   0  0  0  0  0  0  0  0  0  0  0  0
    7.3330    9.5110   25.1000 N   0  0  0  0  0  0  0  0  0  0  0  0
    6.3540    9.8950   25.9330 C   0  0  0  0  0  0  0  0  0  0  0  0
    6.1040   11.2010   26.2620 C   0  0  0  0  0  0  0  0  0  0  0  0
    6.9070   12.1810   25.7190 C   0  0  0  0  0  0  0  0  0  0  0  0
 11  9  1  0
 10  9  2  0
  8  9  1  6
  8  6  1  0
  6  5  1  0
  5  4  1  0
  4  3  1  0
  3  2  1  0
  2  1  2  0
 12  2  1  0
 13 12  1  0
 13 19  2  0
 19 18  1  0
 18 17  2  0
 17 16  1  0
 16 14  2  0
 14 13  1  0
 15 14  1  0
  7  3  1  0
  8  7  1  0
M  END
>  <smiles>  (149) 
NC(=O)[C@H]1CCCN(C(=O)Cc2cccnc2N)C1

>  <inchikey>  (149) 
UWGHAGSZEJRSBU-JTQLQIEISA-N

>  <alias>  (149) 
A4489a

$$$$
A4489b
     RDKit          3D

 19 20  0  0  0  0  0  0  0  0999 V2000
    7.8530   13.3190   22.6200 O   0  0  0  0  0  0  0  0  0  0  0  0
    8.8250   13.6770   23.2820 C   0  0  0  0  0  0  0  0  0  0  0  0
    9.5810   14.7410   22.9360 N   0  0  0  0  0  0  0  0  0  0  0  0
   10.6130   15.3850   23.7620 C   0  0  0  0  0  0  0  0  0  0  0  0
   11.9800   15.2660   23.1010 C   0  0  0  0  0  0  0  0  0  0  0  0
   11.9340   15.7700   21.6560 C   0  0  0  0  0  0  0  0  0  0  0  0
    9.4820   15.2840   21.5790 C   0  0  0  0  0  0  0  0  0  0  0  0
   10.8150   15.0660   20.8650 C   0  0  1  0  0  0  0  0  0  0  0  0
   10.7510   15.5590   19.4320 C   0  0  0  0  0  0  0  0  0  0  0  0
   10.4260   16.7270   19.1810 O   0  0  0  0  0  0  0  0  0  0  0  0
   11.0090   14.6470   18.4910 N   0  0  0  0  0  0  0  0  0  0  0  0
    9.2810   12.9490   24.5360 C   0  0  0  0  0  0  0  0  0  0  0  0
    8.3060   11.8810   24.9770 C   0  0  0  0  0  0  0  0  0  0  0  0
    8.4620   10.4960   24.6460 C   0  0  0  0  0  0  0  0  0  0  0  0
    9.4440   10.0730   23.8430 N   0  0  0  0  0  0  0  0  0  0  0  0
    7.6500    9.5500   25.1670 N   0  0  0  0  0  0  0  0  0  0  0  0
    6.6980    9.9320   26.0350 C   0  0  0  0  0  0  0  0  0  0  0  0
    6.4810   11.2330   26.4050 C   0  0  0  0  0  0  0  0  0  0  0  0
    7.2810   12.2140   25.8580 C   0  0  0  0  0  0  0  0  0  0  0  0
 11  9  1  0
 10  9  2  0
  8  9  1  6
  8  6  1  0
  6  5  1  0
  5  4  1  0
  4  3  1  0
  3  2  1  0
  2  1  2  0
 12  2  1  0
 13 12  1  0
 13 19  2  0
 19 18  1  0
 18 17  2  0
 17 16  1  0
 16 14  2  0
 14 13  1  0
 15 14  1  0
  7  3  1  0
  8  7  1  0
M  END
>  <smiles>  (150) 
NC(=O)[C@H]1CCCN(C(=O)Cc2cccnc2N)C1

>  <inchikey>  (150) 
UWGHAGSZEJRSBU-JTQLQIEISA-N

>  <alias>  (150) 
A4489b

$$$$
A4494a
     RDKit          3D

 22 24  0  0  0  0  0  0  0  0999 V2000
   10.4500   17.1070   19.2550 O   0  0  0  0  0  0  0  0  0  0  0  0
   10.5710   15.9110   19.5280 C   0  0  0  0  0  0  0  0  0  0  0  0
   10.7510   14.9820   18.6050 N   0  0  0  0  0  0  0  0  0  0  0  0
   10.5420   15.4270   20.9690 C   0  0  1  0  0  0  0  0  0  0  0  0
   11.7430   15.9680   21.7410 C   0  0  0  0  0  0  0  0  0  0  0  0
   11.7480   15.4430   23.1720 C   0  0  0  0  0  0  0  0  0  0  0  0
   10.4460   15.7500   23.8710 C   0  0  0  0  0  0  0  0  0  0  0  0
    9.3190   15.9090   21.7510 C   0  0  0  0  0  0  0  0  0  0  0  0
    9.2900   15.3040   23.0850 N   0  0  0  0  0  0  0  0  0  0  0  0
    8.2750   14.4280   23.2950 C   0  0  0  0  0  0  0  0  0  0  0  0
    7.9320   13.6640   22.4230 O   0  0  0  0  0  0  0  0  0  0  0  0
    7.4710   14.4450   24.5840 C   0  0  2  0  0  0  0  0  0  0  0  0
    8.2610   14.9680   25.7770 C   0  0  0  0  0  0  0  0  0  0  0  0
    7.1220   13.0040   24.8990 C   0  0  0  0  0  0  0  0  0  0  0  0
    7.9740   11.8540   24.6160 C   0  0  0  0  0  0  0  0  0  0  0  0
    7.1880   10.7780   24.9890 C   0  0  0  0  0  0  0  0  0  0  0  0
    6.0000   11.2100   25.4820 O   0  0  0  0  0  0  0  0  0  0  0  0
    5.9940   12.6420   25.4010 N   0  0  0  0  0  0  0  0  0  0  0  0
    9.1850   11.5940   23.9790 C   0  0  0  0  0  0  0  0  0  0  0  0
    9.5630   10.2830   23.7300 C   0  0  0  0  0  0  0  0  0  0  0  0
    8.7570    9.2290   24.1230 C   0  0  0  0  0  0  0  0  0  0  0  0
    7.5530    9.4680   24.7640 C   0  0  0  0  0  0  0  0  0  0  0  0
 12 13  1  1
 12 10  1  0
 11 10  2  0
 10  9  1  0
  9  7  1  0
  7  6  1  0
  6  5  1  0
  5  4  1  0
  4  2  1  6
  3  2  1  0
  2  1  2  0
  8  4  1  0
  9  8  1  0
 14 12  1  0
 14 18  2  0
 18 17  1  0
 17 16  1  0
 16 22  2  0
 22 21  1  0
 21 20  2  0
 20 19  1  0
 19 15  2  0
 15 14  1  0
 16 15  1  0
M  END
>  <smiles>  (151) 
C[C@@H](C(=O)N1CCC[C@H](C(N)=O)C1)c1noc2ccccc12

>  <inchikey>  (151) 
YGQQTIGGJIFJGJ-MNOVXSKESA-N

>  <alias>  (151) 
A4494a

$$$$
A4510a
     RDKit          3D

 23 24  0  0  0  0  0  0  0  0999 V2000
    9.4390    8.9130   23.8770 F   0  0  0  0  0  0  0  0  0  0  0  0
    9.5020   10.1810   24.2460 C   0  0  0  0  0  0  0  0  0  0  0  0
    9.7840   10.8740   23.1360 F   0  0  0  0  0  0  0  0  0  0  0  0
   10.5530   10.2530   25.0340 F   0  0  0  0  0  0  0  0  0  0  0  0
    8.2420   10.6570   24.9330 C   0  0  0  0  0  0  0  0  0  0  0  0
    7.4630    9.7480   25.4650 N   0  0  0  0  0  0  0  0  0  0  0  0
    6.4900   10.5160   26.0460 N   0  0  0  0  0  0  0  0  0  0  0  0
    5.4790    9.8780   26.8780 C   0  0  0  0  0  0  0  0  0  0  0  0
    6.6540   11.8360   25.8410 C   0  0  0  0  0  0  0  0  0  0  0  0
    7.8000   11.9690   25.1400 C   0  0  0  0  0  0  0  0  0  0  0  0
    8.4620   13.2990   24.8270 C   0  0  2  0  0  0  0  0  0  0  0  0
    7.7580   14.4610   25.5420 C   0  0  0  0  0  0  0  0  0  0  0  0
    8.5300   13.5790   23.3350 C   0  0  0  0  0  0  0  0  0  0  0  0
    7.6220   13.2400   22.5980 O   0  0  0  0  0  0  0  0  0  0  0  0
    9.5540   14.3430   22.8810 N   0  0  0  0  0  0  0  0  0  0  0  0
    9.4530   14.9730   21.5560 C   0  0  0  0  0  0  0  0  0  0  0  0
   10.7440   14.7590   20.7630 C   0  0  1  0  0  0  0  0  0  0  0  0
   10.6970   15.2420   19.3250 C   0  0  0  0  0  0  0  0  0  0  0  0
   10.2550   16.3620   19.0420 O   0  0  0  0  0  0  0  0  0  0  0  0
   11.1630   14.3980   18.4180 N   0  0  0  0  0  0  0  0  0  0  0  0
   11.8380   15.4670   21.5690 C   0  0  0  0  0  0  0  0  0  0  0  0
   12.0320   14.7620   22.9090 C   0  0  0  0  0  0  0  0  0  0  0  0
   10.7320   14.7060   23.6990 C   0  0  0  0  0  0  0  0  0  0  0  0
 11 12  1  1
 13 11  1  0
 14 13  2  0
 15 13  1  0
 15 23  1  0
 23 22  1  0
 22 21  1  0
 21 17  1  0
 17 18  1  6
 20 18  1  0
 19 18  2  0
 17 16  1  0
 16 15  1  0
 11 10  1  0
 10  9  2  0
  9  7  1  0
  8  7  1  0
  7  6  1  0
  6  5  2  0
 10  5  1  0
  5  2  1  0
  3  2  1  0
  4  2  1  0
  2  1  1  0
M  END
>  <smiles>  (152) 
C[C@H](C(=O)N1CCC[C@H](C(N)=O)C1)c1cn(C)nc1C(F)(F)F

>  <inchikey>  (152) 
CYDVRWFNSPMYQH-IUCAKERBSA-N

>  <alias>  (152) 
A4510a

$$$$
A4514a
     RDKit          3D

 20 22  0  0  0  0  0  0  0  0999 V2000
    7.1590   13.1980   22.3790 O   0  0  0  0  0  0  0  0  0  0  0  0
    7.9140   13.6450   23.2210 C   0  0  0  0  0  0  0  0  0  0  0  0
    8.9370   14.4650   22.8930 N   0  0  0  0  0  0  0  0  0  0  0  0
   10.0340   14.8490   23.7970 C   0  0  0  0  0  0  0  0  0  0  0  0
   11.4030   14.6750   23.1530 C   0  0  0  0  0  0  0  0  0  0  0  0
   11.4430   15.3500   21.7840 C   0  0  0  0  0  0  0  0  0  0  0  0
    8.9750   15.0840   21.5620 C   0  0  0  0  0  0  0  0  0  0  0  0
   10.3230   14.8110   20.8820 C   0  0  1  0  0  0  0  0  0  0  0  0
   10.4430   15.3640   19.4720 C   0  0  0  0  0  0  0  0  0  0  0  0
   10.0450   16.4990   19.1990 O   0  0  0  0  0  0  0  0  0  0  0  0
   10.9690   14.5470   18.5690 N   0  0  0  0  0  0  0  0  0  0  0  0
    7.6340   13.2550   24.6940 C   0  0  0  0  0  0  0  0  0  0  0  0
    8.0570   14.1760   25.8750 C   0  0  0  0  0  0  0  0  0  0  0  0
    6.6800   13.9640   26.5110 C   0  0  0  0  0  0  0  0  0  0  0  0
    6.1660   13.4200   25.1670 C   0  0  0  0  0  0  0  0  0  0  0  0
    8.1210   11.8330   24.8460 C   0  0  0  0  0  0  0  0  0  0  0  0
    7.5260   10.7760   25.4590 C   0  0  0  0  0  0  0  0  0  0  0  0
    8.2110    9.6200   25.2040 O   0  0  0  0  0  0  0  0  0  0  0  0
    9.3020    9.9760   24.4280 C   0  0  0  0  0  0  0  0  0  0  0  0
    9.2930   11.2960   24.1940 C   0  0  0  0  0  0  0  0  0  0  0  0
 11  9  1  0
 10  9  2  0
  8  9  1  6
  8  6  1  0
  6  5  1  0
  5  4  1  0
  4  3  1  0
  3  2  1  0
  2  1  2  0
 12  2  1  0
 16 12  1  0
 16 20  1  0
 20 19  2  0
 19 18  1  0
 18 17  1  0
 17 16  2  0
 12 15  1  0
 15 14  1  0
 14 13  1  0
 13 12  1  0
  7  3  1  0
  8  7  1  0
M  END
>  <smiles>  (153) 
NC(=O)[C@H]1CCCN(C(=O)C2(c3ccoc3)CCC2)C1

>  <inchikey>  (153) 
GKBXREDGVWBKIB-NSHDSACASA-N

>  <alias>  (153) 
A4514a

$$$$
A4526a
     RDKit          3D

 18 19  0  0  0  0  0  0  0  0999 V2000
   10.4900   16.7700   19.2180 O   0  0  0  0  0  0  0  0  0  0  0  0
   10.5730   15.5620   19.4420 C   0  0  0  0  0  0  0  0  0  0  0  0
   10.7230   14.6640   18.4860 N   0  0  0  0  0  0  0  0  0  0  0  0
   10.4950   15.0210   20.8590 C   0  0  1  0  0  0  0  0  0  0  0  0
   11.6340   15.5750   21.7270 C   0  0  0  0  0  0  0  0  0  0  0  0
   11.5550   15.0560   23.1640 C   0  0  0  0  0  0  0  0  0  0  0  0
   10.1870   15.3420   23.7610 C   0  0  0  0  0  0  0  0  0  0  0  0
    9.1610   15.3620   21.5330 C   0  0  0  0  0  0  0  0  0  0  0  0
    9.1250   14.8100   22.8910 N   0  0  0  0  0  0  0  0  0  0  0  0
    8.1860   13.9070   23.2510 C   0  0  0  0  0  0  0  0  0  0  0  0
    7.3700   13.4870   22.4500 O   0  0  0  0  0  0  0  0  0  0  0  0
    8.1740   13.4230   24.6880 C   0  0  1  0  0  0  0  0  0  0  0  0
    6.8100   13.7110   25.3140 C   0  0  0  0  0  0  0  0  0  0  0  0
    8.4480   11.9400   24.6360 C   0  0  0  0  0  0  0  0  0  0  0  0
    9.8370   11.3110   23.8530 S   0  0  0  0  0  0  0  0  0  0  0  0
    9.4060    9.7050   24.2000 C   0  0  0  0  0  0  0  0  0  0  0  0
    8.2580    9.6200   24.8870 C   0  0  0  0  0  0  0  0  0  0  0  0
    7.6710   10.9070   25.1560 C   0  0  0  0  0  0  0  0  0  0  0  0
 12 13  1  6
 12 10  1  0
 11 10  2  0
 10  9  1  0
  9  7  1  0
  7  6  1  0
  6  5  1  0
  5  4  1  0
  4  2  1  6
  3  2  1  0
  2  1  2  0
  8  4  1  0
  9  8  1  0
 14 12  1  0
 14 18  2  0
 18 17  1  0
 17 16  2  0
 16 15  1  0
 15 14  1  0
M  END
>  <smiles>  (154) 
C[C@H](C(=O)N1CCC[C@H](C(N)=O)C1)c1cccs1

>  <inchikey>  (154) 
JQNFTWVJWFLFOK-UWVGGRQHSA-N

>  <alias>  (154) 
A4526a

$$$$
A4528a
     RDKit          3D

 23 25  0  0  0  0  0  0  0  0999 V2000
    9.7120    9.5120   23.3890 Cl  0  0  0  0  0  0  0  0  0  0  0  0
    8.4370   10.3110   24.2700 C   0  0  0  0  0  0  0  0  0  0  0  0
    7.3770    9.5590   24.7370 C   0  0  0  0  0  0  0  0  0  0  0  0
    6.3780   10.1680   25.4790 C   0  0  0  0  0  0  0  0  0  0  0  0
    8.5280   11.6740   24.5010 C   0  0  0  0  0  0  0  0  0  0  0  0
    7.5030   12.2750   25.2300 C   0  0  0  0  0  0  0  0  0  0  0  0
    6.4350   11.5310   25.7130 C   0  0  0  0  0  0  0  0  0  0  0  0
    5.3890   12.1120   26.3840 O   0  0  0  0  0  0  0  0  0  0  0  0
    5.1390   13.4900   26.0030 C   0  0  0  0  0  0  0  0  0  0  0  0
    6.3850   14.3620   26.0880 C   0  0  0  0  0  0  0  0  0  0  0  0
    7.5420   13.7030   25.4680 N   0  0  0  0  0  0  0  0  0  0  0  0
    8.6080   14.5750   25.0150 C   0  0  0  0  0  0  0  0  0  0  0  0
    8.5660   14.7580   23.4970 C   0  0  0  0  0  0  0  0  0  0  0  0
    7.6790   14.2410   22.8300 O   0  0  0  0  0  0  0  0  0  0  0  0
    9.5590   15.4750   22.9370 N   0  0  0  0  0  0  0  0  0  0  0  0
   10.7830   15.9030   23.6300 C   0  0  0  0  0  0  0  0  0  0  0  0
   12.0300   15.4860   22.8650 C   0  0  0  0  0  0  0  0  0  0  0  0
   11.9350   15.8780   21.3860 C   0  0  0  0  0  0  0  0  0  0  0  0
    9.4550   15.8910   21.5350 C   0  0  0  0  0  0  0  0  0  0  0  0
   10.6450   15.3510   20.7360 C   0  0  1  0  0  0  0  0  0  0  0  0
   10.5680   15.7410   19.2700 C   0  0  0  0  0  0  0  0  0  0  0  0
   10.3260   16.9040   18.9290 O   0  0  0  0  0  0  0  0  0  0  0  0
   10.7570   14.7630   18.4030 N   0  0  0  0  0  0  0  0  0  0  0  0
 23 21  1  0
 22 21  2  0
 20 21  1  6
 20 18  1  0
 18 17  1  0
 17 16  1  0
 16 15  1  0
 15 13  1  0
 14 13  2  0
 13 12  1  0
 12 11  1  0
 11 10  1  0
 10  9  1  0
  9  8  1  0
  8  7  1  0
  7  4  2  0
  4  3  1  0
  3  2  2  0
  2  1  1  0
  5  2  1  0
  6  5  2  0
  7  6  1  0
 11  6  1  0
 19 15  1  0
 20 19  1  0
M  END
>  <smiles>  (155) 
NC(=O)[C@H]1CCCN(C(=O)CN2CCOc3ccc(Cl)cc32)C1

>  <inchikey>  (155) 
IOHMNWTYJRXITL-NSHDSACASA-N

>  <alias>  (155) 
A4528a

$$$$
A4538a
     RDKit          3D

 22 23  0  0  0  0  0  0  0  0999 V2000
    9.8220   10.8490   23.4240 Br  0  0  0  0  0  0  0  0  0  0  0  0
    8.3580   10.9920   24.6250 C   0  0  0  0  0  0  0  0  0  0  0  0
    7.6320    9.8520   24.9150 C   0  0  0  0  0  0  0  0  0  0  0  0
    8.0470    8.6660   24.4120 F   0  0  0  0  0  0  0  0  0  0  0  0
    6.5110    9.8900   25.7060 C   0  0  0  0  0  0  0  0  0  0  0  0
    6.1160   11.1080   26.2270 C   0  0  0  0  0  0  0  0  0  0  0  0
    6.8440   12.2580   25.9630 C   0  0  0  0  0  0  0  0  0  0  0  0
    7.9860   12.2360   25.1650 C   0  0  0  0  0  0  0  0  0  0  0  0
    8.7720   13.5110   24.9740 C   0  0  0  0  0  0  0  0  0  0  0  0
    8.2710   14.5050   25.7710 F   0  0  0  0  0  0  0  0  0  0  0  0
   10.0600   13.3280   25.3860 F   0  0  0  0  0  0  0  0  0  0  0  0
    8.7270   13.9710   23.4930 C   0  0  0  0  0  0  0  0  0  0  0  0
    7.9190   13.4110   22.7720 O   0  0  0  0  0  0  0  0  0  0  0  0
    9.5240   14.9540   23.0250 N   0  0  0  0  0  0  0  0  0  0  0  0
   10.5210   15.6990   23.8100 C   0  0  0  0  0  0  0  0  0  0  0  0
   11.9090   15.5060   23.2190 C   0  0  0  0  0  0  0  0  0  0  0  0
   11.9240   15.8900   21.7360 C   0  0  0  0  0  0  0  0  0  0  0  0
    9.4640   15.3910   21.6250 C   0  0  0  0  0  0  0  0  0  0  0  0
   10.8190   15.1780   20.9360 C   0  0  1  0  0  0  0  0  0  0  0  0
   10.8290   15.6080   19.4770 C   0  0  0  0  0  0  0  0  0  0  0  0
   10.5460   16.7640   19.1470 O   0  0  0  0  0  0  0  0  0  0  0  0
   11.1530   14.6760   18.5970 N   0  0  0  0  0  0  0  0  0  0  0  0
 22 20  1  0
 21 20  2  0
 19 20  1  6
 19 17  1  0
 17 16  1  0
 16 15  1  0
 15 14  1  0
 14 12  1  0
 13 12  2  0
 12  9  1  0
 10  9  1  0
 11  9  1  0
  9  8  1  0
  8  7  2  0
  7  6  1  0
  6  5  2  0
  5  3  1  0
  4  3  1  0
  3  2  2  0
  8  2  1  0
  2  1  1  0
 18 14  1  0
 19 18  1  0
M  END
>  <smiles>  (156) 
NC(=O)[C@H]1CCCN(C(=O)C(F)(F)c2cccc(F)c2Br)C1

>  <inchikey>  (156) 
IYNYXVSXGLZHPJ-QMMMGPOBSA-N

>  <alias>  (156) 
A4538a

$$$$
A4544a
     RDKit          3D

 23 24  0  0  0  0  0  0  0  0999 V2000
   10.3400   16.9390   19.1580 O   0  0  0  0  0  0  0  0  0  0  0  0
   10.6690   15.7790   19.4210 C   0  0  0  0  0  0  0  0  0  0  0  0
   10.9510   14.8790   18.4940 N   0  0  0  0  0  0  0  0  0  0  0  0
   10.7560   15.2940   20.8570 C   0  0  1  0  0  0  0  0  0  0  0  0
   11.9570   15.9140   21.5890 C   0  0  0  0  0  0  0  0  0  0  0  0
   12.0250   15.4790   23.0620 C   0  0  0  0  0  0  0  0  0  0  0  0
   10.6990   15.7080   23.7670 C   0  0  0  0  0  0  0  0  0  0  0  0
    9.4950   15.6760   21.6360 C   0  0  0  0  0  0  0  0  0  0  0  0
    9.5950   15.1290   22.9910 N   0  0  0  0  0  0  0  0  0  0  0  0
    8.7600   14.1560   23.4030 C   0  0  0  0  0  0  0  0  0  0  0  0
    7.9630   13.6220   22.6470 O   0  0  0  0  0  0  0  0  0  0  0  0
    8.8600   13.7290   24.8540 C   0  0  0  0  0  0  0  0  0  0  0  0
    8.3170   12.3270   25.0070 C   0  0  0  0  0  0  0  0  0  0  0  0
    7.0640   12.0110   25.5500 C   0  0  0  0  0  0  0  0  0  0  0  0
    5.9350   13.2270   26.1680 S   0  0  0  0  0  0  0  0  0  0  0  0
    4.8110   12.5240   26.7190 O   0  0  0  0  0  0  0  0  0  0  0  0
    6.6580   14.1220   27.0290 O   0  0  0  0  0  0  0  0  0  0  0  0
    5.3830   14.1360   24.7730 C   0  0  0  0  0  0  0  0  0  0  0  0
    9.0510   11.2880   24.4400 C   0  0  0  0  0  0  0  0  0  0  0  0
    8.5280   10.0190   24.3890 C   0  0  0  0  0  0  0  0  0  0  0  0
    9.4710    8.6830   23.4280 Br  0  0  0  0  0  0  0  0  0  0  0  0
    7.3140    9.7100   24.9480 C   0  0  0  0  0  0  0  0  0  0  0  0
    6.5830   10.7110   25.5550 C   0  0  0  0  0  0  0  0  0  0  0  0
 18 15  1  0
 16 15  2  0
 17 15  2  0
 15 14  1  0
 14 23  2  0
 23 22  1  0
 22 20  2  0
 21 20  1  0
 20 19  1  0
 19 13  2  0
 14 13  1  0
 13 12  1  0
 12 10  1  0
 11 10  2  0
 10  9  1  0
  9  7  1  0
  7  6  1  0
  6  5  1  0
  5  4  1  0
  4  2  1  6
  3  2  1  0
  2  1  2  0
  8  4  1  0
  9  8  1  0
M  END
>  <smiles>  (157) 
CS(=O)(=O)c1ccc(Br)cc1CC(=O)N1CCC[C@H](C(N)=O)C1

>  <inchikey>  (157) 
YUPOYLBRRMVTGP-JTQLQIEISA-N

>  <alias>  (157) 
A4544a

$$$$
A4554a
     RDKit          3D

 22 23  0  0  0  0  0  0  0  0999 V2000
   10.8010   14.8080   18.3330 O   0  0  0  0  0  0  0  0  0  0  0  0
   10.6560   15.5990   19.2630 C   0  0  0  0  0  0  0  0  0  0  0  0
   10.6230   16.9070   19.0850 N   0  0  0  0  0  0  0  0  0  0  0  0
   10.5360   15.1080   20.6960 C   0  0  1  0  0  0  0  0  0  0  0  0
   11.7390   15.5630   21.5380 C   0  0  0  0  0  0  0  0  0  0  0  0
   11.6750   15.0310   22.9720 C   0  0  0  0  0  0  0  0  0  0  0  0
   10.3390   15.3590   23.6180 C   0  0  0  0  0  0  0  0  0  0  0  0
    9.2450   15.5100   21.4180 C   0  0  0  0  0  0  0  0  0  0  0  0
    9.2190   14.9290   22.7640 N   0  0  0  0  0  0  0  0  0  0  0  0
    8.3850   13.8840   23.0580 C   0  0  0  0  0  0  0  0  0  0  0  0
    7.6190   13.4200   22.2240 O   0  0  0  0  0  0  0  0  0  0  0  0
    8.4690   13.3970   24.3210 N   0  0  0  0  0  0  0  0  0  0  0  0
    7.6550   12.3740   24.8980 C   0  0  0  0  0  0  0  0  0  0  0  0
    6.6150   12.7260   25.7660 C   0  0  0  0  0  0  0  0  0  0  0  0
    6.3190   14.0640   25.8120 O   0  0  0  0  0  0  0  0  0  0  0  0
    6.9830   14.8630   26.7940 C   0  0  0  0  0  0  0  0  0  0  0  0
    7.9470   11.0110   24.6810 C   0  0  0  0  0  0  0  0  0  0  0  0
    9.2540   10.5420   23.5890 S   0  0  0  0  0  0  0  0  0  0  0  0
   10.6260   11.5590   24.1060 C   0  0  0  0  0  0  0  0  0  0  0  0
    7.2040   10.0350   25.3430 C   0  0  0  0  0  0  0  0  0  0  0  0
    6.1990   10.4070   26.2210 C   0  0  0  0  0  0  0  0  0  0  0  0
    5.9040   11.7420   26.4360 C   0  0  0  0  0  0  0  0  0  0  0  0
 16 15  1  0
 15 14  1  0
 14 22  2  0
 22 21  1  0
 21 20  2  0
 20 17  1  0
 18 17  1  0
 19 18  1  0
 17 13  2  0
 14 13  1  0
 13 12  1  0
 12 10  1  0
 11 10  2  0
 10  9  1  0
  9  7  1  0
  7  6  1  0
  6  5  1  0
  5  4  1  0
  4  2  1  6
  3  2  1  0
  2  1  2  0
  8  4  1  0
  9  8  1  0
M  END
>  <smiles>  (158) 
COc1cccc(SC)c1NC(=O)N1CCC[C@H](C(N)=O)C1

>  <inchikey>  (158) 
UWEZCQKXPKGRPJ-JTQLQIEISA-N

>  <alias>  (158) 
A4554a

$$$$
A4559a
     RDKit          3D

 22 24  0  0  0  0  0  0  0  0999 V2000
   10.3510   16.6780   19.1580 O   0  0  0  0  0  0  0  0  0  0  0  0
   10.7120   15.5250   19.4040 C   0  0  0  0  0  0  0  0  0  0  0  0
   10.9840   14.6350   18.4580 N   0  0  0  0  0  0  0  0  0  0  0  0
   10.7990   15.0200   20.8330 C   0  0  1  0  0  0  0  0  0  0  0  0
   11.9380   15.7030   21.6080 C   0  0  0  0  0  0  0  0  0  0  0  0
   11.9840   15.2020   23.0540 C   0  0  0  0  0  0  0  0  0  0  0  0
   10.6180   15.3620   23.7240 C   0  0  0  0  0  0  0  0  0  0  0  0
    9.4610   15.2590   21.5390 C   0  0  0  0  0  0  0  0  0  0  0  0
    9.5520   14.7540   22.9110 N   0  0  0  0  0  0  0  0  0  0  0  0
    8.7910   13.7100   23.2990 C   0  0  0  0  0  0  0  0  0  0  0  0
    7.8750   13.2730   22.6180 O   0  0  0  0  0  0  0  0  0  0  0  0
    9.1290   13.0860   24.6470 C   0  0  0  0  0  0  0  0  0  0  0  0
    8.2700   11.9270   24.8710 N   0  0  0  0  0  0  0  0  0  0  0  0
    7.0970   11.9080   25.6050 C   0  0  0  0  0  0  0  0  0  0  0  0
    6.3350   12.9420   26.1310 C   0  0  0  0  0  0  0  0  0  0  0  0
    5.1750   12.6230   26.8190 C   0  0  0  0  0  0  0  0  0  0  0  0
    8.5870   10.6270   24.5320 C   0  0  0  0  0  0  0  0  0  0  0  0
    7.6820    9.7740   25.0550 C   0  0  0  0  0  0  0  0  0  0  0  0
    6.7110   10.5680   25.7540 C   0  0  0  0  0  0  0  0  0  0  0  0
    5.5420   10.2880   26.4530 C   0  0  0  0  0  0  0  0  0  0  0  0
    4.7540   11.3040   26.9770 C   0  0  0  0  0  0  0  0  0  0  0  0
    3.4310   10.9880   27.6330 C   0  0  0  0  0  0  0  0  0  0  0  0
 22 21  1  0
 21 16  1  0
 16 15  2  0
 15 14  1  0
 14 19  2  0
 19 18  1  0
 18 17  2  0
 17 13  1  0
 14 13  1  0
 13 12  1  0
 12 10  1  0
 11 10  2  0
 10  9  1  0
  9  7  1  0
  7  6  1  0
  6  5  1  0
  5  4  1  0
  4  2  1  6
  3  2  1  0
  2  1  2  0
  8  4  1  0
  9  8  1  0
 20 19  1  0
 21 20  2  0
M  END
>  <smiles>  (159) 
Cc1ccc2c(ccn2CC(=O)N2CCC[C@H](C(N)=O)C2)c1

>  <inchikey>  (159) 
YRQRTFXUBOFTEB-AWEZNQCLSA-N

>  <alias>  (159) 
A4559a

$$$$
A4559b
     RDKit          3D

 22 24  0  0  0  0  0  0  0  0999 V2000
   10.3530   16.7250   19.1580 O   0  0  0  0  0  0  0  0  0  0  0  0
   10.7150   15.5670   19.3960 C   0  0  0  0  0  0  0  0  0  0  0  0
   10.9520   14.6670   18.4500 N   0  0  0  0  0  0  0  0  0  0  0  0
   10.8690   15.0800   20.8250 C   0  0  1  0  0  0  0  0  0  0  0  0
   12.0100   15.8220   21.5460 C   0  0  0  0  0  0  0  0  0  0  0  0
   12.1140   15.3850   23.0130 C   0  0  0  0  0  0  0  0  0  0  0  0
   10.7640   15.5260   23.7180 C   0  0  0  0  0  0  0  0  0  0  0  0
    9.5630   15.3050   21.5890 C   0  0  0  0  0  0  0  0  0  0  0  0
    9.7240   14.8170   22.9600 N   0  0  0  0  0  0  0  0  0  0  0  0
    9.0190   13.7430   23.3830 C   0  0  0  0  0  0  0  0  0  0  0  0
    8.0910   13.2660   22.7290 O   0  0  0  0  0  0  0  0  0  0  0  0
    9.4210   13.1480   24.7350 C   0  0  0  0  0  0  0  0  0  0  0  0
    8.5600   11.9960   25.0010 N   0  0  0  0  0  0  0  0  0  0  0  0
    7.4060   11.9960   25.7660 C   0  0  0  0  0  0  0  0  0  0  0  0
    6.7050   13.0390   26.3520 C   0  0  0  0  0  0  0  0  0  0  0  0
    5.5780   12.7410   27.1030 C   0  0  0  0  0  0  0  0  0  0  0  0
    8.8380   10.6970   24.6400 C   0  0  0  0  0  0  0  0  0  0  0  0
    7.9220    9.8560   25.1730 C   0  0  0  0  0  0  0  0  0  0  0  0
    6.9850   10.6630   25.9050 C   0  0  0  0  0  0  0  0  0  0  0  0
    5.8470   10.4040   26.6650 C   0  0  0  0  0  0  0  0  0  0  0  0
    5.1420   11.4300   27.2840 C   0  0  0  0  0  0  0  0  0  0  0  0
    3.9790   11.1260   28.1940 C   0  0  0  0  0  0  0  0  0  0  0  0
 22 21  1  0
 21 16  1  0
 16 15  2  0
 15 14  1  0
 14 19  2  0
 19 18  1  0
 18 17  2  0
 17 13  1  0
 14 13  1  0
 13 12  1  0
 12 10  1  0
 11 10  2  0
 10  9  1  0
  9  7  1  0
  7  6  1  0
  6  5  1  0
  5  4  1  0
  4  2  1  6
  3  2  1  0
  2  1  2  0
  8  4  1  0
  9  8  1  0
 20 19  1  0
 21 20  2  0
M  END
>  <smiles>  (160) 
Cc1ccc2c(ccn2CC(=O)N2CCC[C@H](C(N)=O)C2)c1

>  <inchikey>  (160) 
YRQRTFXUBOFTEB-AWEZNQCLSA-N

>  <alias>  (160) 
A4559b

$$$$
A4571a
     RDKit          3D

 23 24  0  0  0  0  0  0  0  0999 V2000
    9.7950   10.8660   23.0810 F   0  0  0  0  0  0  0  0  0  0  0  0
    9.5640   10.2070   24.2120 C   0  0  0  0  0  0  0  0  0  0  0  0
    9.5630    8.9240   23.8970 F   0  0  0  0  0  0  0  0  0  0  0  0
   10.6150   10.3970   24.9640 F   0  0  0  0  0  0  0  0  0  0  0  0
    8.2950   10.6490   24.8950 C   0  0  0  0  0  0  0  0  0  0  0  0
    7.5040    9.7230   25.3570 N   0  0  0  0  0  0  0  0  0  0  0  0
    6.5140   10.4590   25.9480 N   0  0  0  0  0  0  0  0  0  0  0  0
    5.5010    9.7800   26.7450 C   0  0  0  0  0  0  0  0  0  0  0  0
    6.6810   11.7860   25.8080 C   0  0  0  0  0  0  0  0  0  0  0  0
    7.8490   11.9470   25.1460 C   0  0  0  0  0  0  0  0  0  0  0  0
    8.5360   13.2760   24.8900 C   0  0  2  0  0  0  0  0  0  0  0  0
    7.8650   14.4100   25.6780 C   0  0  0  0  0  0  0  0  0  0  0  0
    8.5370   13.5970   23.4040 C   0  0  0  0  0  0  0  0  0  0  0  0
    7.6890   13.1350   22.6600 O   0  0  0  0  0  0  0  0  0  0  0  0
    9.4710   14.4650   22.9510 N   0  0  0  0  0  0  0  0  0  0  0  0
    9.3740   15.0350   21.6010 C   0  0  0  0  0  0  0  0  0  0  0  0
   10.6810   14.7980   20.8350 C   0  0  1  0  0  0  0  0  0  0  0  0
   10.6730   15.3020   19.4020 C   0  0  0  0  0  0  0  0  0  0  0  0
   10.1530   16.3860   19.1120 O   0  0  0  0  0  0  0  0  0  0  0  0
   11.2260   14.4960   18.5080 N   0  0  0  0  0  0  0  0  0  0  0  0
   11.8650   15.3680   21.6250 C   0  0  0  0  0  0  0  0  0  0  0  0
   11.9290   14.7330   23.0140 C   0  0  0  0  0  0  0  0  0  0  0  0
   10.6190   14.9490   23.7410 C   0  0  0  0  0  0  0  0  0  0  0  0
 11 12  1  1
 13 11  1  0
 14 13  2  0
 15 13  1  0
 15 23  1  0
 23 22  1  0
 22 21  1  0
 21 17  1  0
 17 18  1  6
 20 18  1  0
 19 18  2  0
 17 16  1  0
 16 15  1  0
 11 10  1  0
 10  9  2  0
  9  7  1  0
  8  7  1  0
  7  6  1  0
  6  5  2  0
 10  5  1  0
  5  2  1  0
  3  2  1  0
  4  2  1  0
  2  1  1  0
M  END
>  <smiles>  (161) 
C[C@H](C(=O)N1CCC[C@H](C(N)=O)C1)c1cn(C)nc1C(F)(F)F

>  <inchikey>  (161) 
CYDVRWFNSPMYQH-IUCAKERBSA-N

>  <alias>  (161) 
A4571a

$$$$
A4575a
     RDKit          3D

 20 22  0  0  0  0  0  0  0  0999 V2000
    7.1380   13.2580   22.4080 O   0  0  0  0  0  0  0  0  0  0  0  0
    7.9330   13.6560   23.2410 C   0  0  0  0  0  0  0  0  0  0  0  0
    8.9600   14.4770   22.9240 N   0  0  0  0  0  0  0  0  0  0  0  0
   10.0650   14.8640   23.8200 C   0  0  0  0  0  0  0  0  0  0  0  0
   11.4310   14.7710   23.1480 C   0  0  0  0  0  0  0  0  0  0  0  0
   11.4170   15.4570   21.7820 C   0  0  0  0  0  0  0  0  0  0  0  0
    8.9740   15.1330   21.6120 C   0  0  0  0  0  0  0  0  0  0  0  0
   10.3060   14.8710   20.9010 C   0  0  1  0  0  0  0  0  0  0  0  0
   10.3840   15.4090   19.4830 C   0  0  0  0  0  0  0  0  0  0  0  0
   10.0030   16.5520   19.2140 O   0  0  0  0  0  0  0  0  0  0  0  0
   10.8810   14.5780   18.5750 N   0  0  0  0  0  0  0  0  0  0  0  0
    7.6670   13.2330   24.7080 C   0  0  0  0  0  0  0  0  0  0  0  0
    7.9680   14.2050   25.8910 C   0  0  0  0  0  0  0  0  0  0  0  0
    6.5610   13.9500   26.4460 C   0  0  0  0  0  0  0  0  0  0  0  0
    6.1650   13.2820   25.1220 C   0  0  0  0  0  0  0  0  0  0  0  0
    8.2940   11.8610   24.8560 C   0  0  0  0  0  0  0  0  0  0  0  0
    9.4910   11.3620   24.3930 C   0  0  0  0  0  0  0  0  0  0  0  0
    9.5610   10.0120   24.5970 O   0  0  0  0  0  0  0  0  0  0  0  0
    8.3830    9.6590   25.2250 C   0  0  0  0  0  0  0  0  0  0  0  0
    7.6010   10.7290   25.4150 C   0  0  0  0  0  0  0  0  0  0  0  0
 11  9  1  0
 10  9  2  0
  8  9  1  6
  8  6  1  0
  6  5  1  0
  5  4  1  0
  4  3  1  0
  3  2  1  0
  2  1  2  0
 12  2  1  0
 16 12  1  0
 16 20  1  0
 20 19  2  0
 19 18  1  0
 18 17  1  0
 17 16  2  0
 12 15  1  0
 15 14  1  0
 14 13  1  0
 13 12  1  0
  7  3  1  0
  8  7  1  0
M  END
>  <smiles>  (162) 
NC(=O)[C@H]1CCCN(C(=O)C2(c3ccoc3)CCC2)C1

>  <inchikey>  (162) 
GKBXREDGVWBKIB-NSHDSACASA-N

>  <alias>  (162) 
A4575a

$$$$
A4586a
     RDKit          3D

 18 19  0  0  0  0  0  0  0  0999 V2000
   10.3350   16.7430   19.1740 O   0  0  0  0  0  0  0  0  0  0  0  0
   10.5080   15.5550   19.4530 C   0  0  0  0  0  0  0  0  0  0  0  0
   10.8390   14.6490   18.5470 N   0  0  0  0  0  0  0  0  0  0  0  0
   10.3700   15.0520   20.8810 C   0  0  1  0  0  0  0  0  0  0  0  0
   11.5190   15.5470   21.7650 C   0  0  0  0  0  0  0  0  0  0  0  0
   11.4620   14.9040   23.1560 C   0  0  0  0  0  0  0  0  0  0  0  0
   10.0980   15.1150   23.7970 C   0  0  0  0  0  0  0  0  0  0  0  0
    9.0620   15.3790   21.6130 C   0  0  0  0  0  0  0  0  0  0  0  0
    9.0070   14.6800   22.9040 N   0  0  0  0  0  0  0  0  0  0  0  0
    7.9960   13.7910   23.1390 C   0  0  0  0  0  0  0  0  0  0  0  0
    7.2520   13.4300   22.2420 O   0  0  0  0  0  0  0  0  0  0  0  0
    7.7800   13.2160   24.5290 C   0  0  2  0  0  0  0  0  0  0  0  0
    8.1300   14.1890   25.6650 C   0  0  0  0  0  0  0  0  0  0  0  0
    8.4280   11.8490   24.5980 C   0  0  0  0  0  0  0  0  0  0  0  0
    9.8450   11.4160   23.7500 S   0  0  0  0  0  0  0  0  0  0  0  0
    9.7010    9.8000   24.1900 C   0  0  0  0  0  0  0  0  0  0  0  0
    8.6280    9.5800   24.9660 C   0  0  0  0  0  0  0  0  0  0  0  0
    7.8920   10.7590   25.2130 C   0  0  0  0  0  0  0  0  0  0  0  0
 12 13  1  1
 12 10  1  0
 11 10  2  0
 10  9  1  0
  9  7  1  0
  7  6  1  0
  6  5  1  0
  5  4  1  0
  4  2  1  6
  3  2  1  0
  2  1  2  0
  8  4  1  0
  9  8  1  0
 14 12  1  0
 14 18  2  0
 18 17  1  0
 17 16  2  0
 16 15  1  0
 15 14  1  0
M  END
>  <smiles>  (163) 
C[C@@H](C(=O)N1CCC[C@H](C(N)=O)C1)c1cccs1

>  <inchikey>  (163) 
JQNFTWVJWFLFOK-ZJUUUORDSA-N

>  <alias>  (163) 
A4586a

$$$$
A4606a
     RDKit          3D

 20 22  0  0  0  0  0  0  0  0999 V2000
    7.8210   13.2160   22.6000 O   0  0  0  0  0  0  0  0  0  0  0  0
    8.7380   13.6030   23.3010 C   0  0  0  0  0  0  0  0  0  0  0  0
    9.5040   14.6500   22.9420 N   0  0  0  0  0  0  0  0  0  0  0  0
   10.5780   15.2370   23.7600 C   0  0  0  0  0  0  0  0  0  0  0  0
   11.9420   15.1030   23.0800 C   0  0  0  0  0  0  0  0  0  0  0  0
   11.8800   15.6310   21.6450 C   0  0  0  0  0  0  0  0  0  0  0  0
    9.4010   15.2250   21.5980 C   0  0  0  0  0  0  0  0  0  0  0  0
   10.7230   14.9770   20.8630 C   0  0  1  0  0  0  0  0  0  0  0  0
   10.6450   15.4910   19.4370 C   0  0  0  0  0  0  0  0  0  0  0  0
   10.2620   16.6370   19.1890 O   0  0  0  0  0  0  0  0  0  0  0  0
   10.9850   14.6200   18.4860 N   0  0  0  0  0  0  0  0  0  0  0  0
    9.0260   12.8850   24.6290 C   0  0  1  0  0  0  0  0  0  0  0  0
    7.8710   12.0250   25.0640 C   0  0  0  0  0  0  0  0  0  0  0  0
    8.0890   10.6760   24.7740 C   0  0  0  0  0  0  0  0  0  0  0  0
    9.4020   10.3660   24.1230 C   0  0  0  0  0  0  0  0  0  0  0  0
   10.4630   11.7650   24.4510 S   0  0  0  0  0  0  0  0  0  0  0  0
    6.7930   12.5010   25.6990 N   0  0  0  0  0  0  0  0  0  0  0  0
    5.8790   11.5890   26.0840 C   0  0  0  0  0  0  0  0  0  0  0  0
    5.9950   10.2280   25.8350 C   0  0  0  0  0  0  0  0  0  0  0  0
    7.1120    9.7710   25.1590 C   0  0  0  0  0  0  0  0  0  0  0  0
 11  9  1  0
 10  9  2  0
  8  9  1  6
  8  6  1  0
  6  5  1  0
  5  4  1  0
  4  3  1  0
  3  2  1  0
  2  1  2  0
 12  2  1  6
 12 16  1  0
 16 15  1  0
 15 14  1  0
 14 20  2  0
 20 19  1  0
 19 18  2  0
 18 17  1  0
 17 13  2  0
 14 13  1  0
 13 12  1  0
  7  3  1  0
  8  7  1  0
M  END
>  <smiles>  (164) 
NC(=O)[C@H]1CCCN(C(=O)[C@@H]2SCc3cccnc32)C1

>  <inchikey>  (164) 
VXTCJEPNAMERNR-JOYOIKCWSA-N

>  <alias>  (164) 
A4606a

$$$$
A4606b
     RDKit          3D

 20 22  0  0  0  0  0  0  0  0999 V2000
    8.0550   13.1940   22.7110 O   0  0  0  0  0  0  0  0  0  0  0  0
    8.9810   13.6430   23.3780 C   0  0  0  0  0  0  0  0  0  0  0  0
    9.6890   14.7250   22.9830 N   0  0  0  0  0  0  0  0  0  0  0  0
   10.7490   15.4080   23.7440 C   0  0  0  0  0  0  0  0  0  0  0  0
   12.0970   15.2620   23.0380 C   0  0  0  0  0  0  0  0  0  0  0  0
   11.9940   15.7440   21.5860 C   0  0  0  0  0  0  0  0  0  0  0  0
    9.5330   15.2390   21.6180 C   0  0  0  0  0  0  0  0  0  0  0  0
   10.8430   15.0280   20.8530 C   0  0  1  0  0  0  0  0  0  0  0  0
   10.6930   15.5320   19.4290 C   0  0  0  0  0  0  0  0  0  0  0  0
   10.3130   16.6920   19.2000 O   0  0  0  0  0  0  0  0  0  0  0  0
   10.9610   14.6450   18.4700 N   0  0  0  0  0  0  0  0  0  0  0  0
    9.3540   12.9550   24.7290 C   0  0  1  0  0  0  0  0  0  0  0  0
    8.2170   12.0480   25.1710 C   0  0  0  0  0  0  0  0  0  0  0  0
    8.4230   10.7080   24.8370 C   0  0  0  0  0  0  0  0  0  0  0  0
    9.7250   10.4190   24.1530 C   0  0  0  0  0  0  0  0  0  0  0  0
   10.7790   11.8370   24.4660 S   0  0  0  0  0  0  0  0  0  0  0  0
    7.1670   12.5060   25.8630 N   0  0  0  0  0  0  0  0  0  0  0  0
    6.2780   11.5840   26.2780 C   0  0  0  0  0  0  0  0  0  0  0  0
    6.3840   10.2360   25.9950 C   0  0  0  0  0  0  0  0  0  0  0  0
    7.4640    9.7910   25.2490 C   0  0  0  0  0  0  0  0  0  0  0  0
 11  9  1  0
 10  9  2  0
  8  9  1  6
  8  6  1  0
  6  5  1  0
  5  4  1  0
  4  3  1  0
  3  2  1  0
  2  1  2  0
 12  2  1  6
 12 16  1  0
 16 15  1  0
 15 14  1  0
 14 20  2  0
 20 19  1  0
 19 18  2  0
 18 17  1  0
 17 13  2  0
 14 13  1  0
 13 12  1  0
  7  3  1  0
  8  7  1  0
M  END
>  <smiles>  (165) 
NC(=O)[C@H]1CCCN(C(=O)[C@@H]2SCc3cccnc32)C1

>  <inchikey>  (165) 
VXTCJEPNAMERNR-JOYOIKCWSA-N

>  <alias>  (165) 
A4606b

$$$$
A4608a
     RDKit          3D

 21 23  0  0  0  0  0  0  0  0999 V2000
   10.2680   16.5110   19.1960 O   0  0  0  0  0  0  0  0  0  0  0  0
   10.6650   15.3770   19.4840 C   0  0  0  0  0  0  0  0  0  0  0  0
   11.2560   14.5860   18.6120 N   0  0  0  0  0  0  0  0  0  0  0  0
   10.5120   14.8190   20.8900 C   0  0  1  0  0  0  0  0  0  0  0  0
   11.7270   15.1540   21.7700 C   0  0  0  0  0  0  0  0  0  0  0  0
   11.6280   14.5050   23.1570 C   0  0  0  0  0  0  0  0  0  0  0  0
   10.2820   14.8060   23.8120 C   0  0  0  0  0  0  0  0  0  0  0  0
    9.2240   15.1840   21.6410 C   0  0  0  0  0  0  0  0  0  0  0  0
    9.1680   14.4570   22.9150 N   0  0  0  0  0  0  0  0  0  0  0  0
    8.2060   13.5420   23.1790 C   0  0  0  0  0  0  0  0  0  0  0  0
    7.3850   13.2130   22.3410 O   0  0  0  0  0  0  0  0  0  0  0  0
    8.2070   12.8420   24.5280 C   0  0  2  0  0  0  0  0  0  0  0  0
    8.5930   11.4000   24.2580 C   0  0  0  0  0  0  0  0  0  0  0  0
    9.4810   10.7970   23.4210 C   0  0  0  0  0  0  0  0  0  0  0  0
    6.8000   12.8940   25.1650 C   0  0  0  0  0  0  0  0  0  0  0  0
    6.7050   11.9640   26.3740 C   0  0  0  0  0  0  0  0  0  0  0  0
    6.8640   10.5050   25.9550 C   0  0  0  0  0  0  0  0  0  0  0  0
    7.9620   10.3300   24.9490 C   0  0  0  0  0  0  0  0  0  0  0  0
    8.4270    9.1750   24.5650 N   0  0  0  0  0  0  0  0  0  0  0  0
    9.3520    9.4790   23.6250 N   0  0  0  0  0  0  0  0  0  0  0  0
   10.0470    8.4030   22.9330 C   0  0  0  0  0  0  0  0  0  0  0  0
 21 20  1  0
 20 14  1  0
 14 13  2  0
 13 18  1  0
 19 18  2  0
 20 19  1  0
 18 17  1  0
 17 16  1  0
 16 15  1  0
 15 12  1  0
 13 12  1  0
 12 10  1  6
 11 10  2  0
 10  9  1  0
  9  7  1  0
  7  6  1  0
  6  5  1  0
  5  4  1  0
  4  2  1  6
  3  2  1  0
  2  1  2  0
  8  4  1  0
  9  8  1  0
M  END
>  <smiles>  (166) 
Cn1cc2c(n1)CCC[C@@H]2C(=O)N1CCC[C@H](C(N)=O)C1

>  <inchikey>  (166) 
BUOYLGKYMMYMLX-QWRGUYRKSA-N

>  <alias>  (166) 
A4608a

$$$$
A4644a
     RDKit          3D

 21 22  0  0  0  0  0  0  0  0999 V2000
    9.5820   10.5040   24.1090 Br  0  0  0  0  0  0  0  0  0  0  0  0
    8.0960   11.1020   25.1230 C   0  0  0  0  0  0  0  0  0  0  0  0
    7.1950   10.1940   25.6330 C   0  0  0  0  0  0  0  0  0  0  0  0
    7.3580    8.8810   25.3870 F   0  0  0  0  0  0  0  0  0  0  0  0
    6.1300   10.6100   26.3870 C   0  0  0  0  0  0  0  0  0  0  0  0
    5.2550    9.6890   26.8260 F   0  0  0  0  0  0  0  0  0  0  0  0
    5.9340   11.9380   26.6650 C   0  0  0  0  0  0  0  0  0  0  0  0
    6.8350   12.8590   26.1590 C   0  0  0  0  0  0  0  0  0  0  0  0
    7.9290   12.4660   25.3800 C   0  0  0  0  0  0  0  0  0  0  0  0
    8.9150   13.5050   24.9040 C   0  0  0  0  0  0  0  0  0  0  0  0
    8.6800   13.8990   23.4580 C   0  0  0  0  0  0  0  0  0  0  0  0
    7.8190   13.3590   22.7840 O   0  0  0  0  0  0  0  0  0  0  0  0
    9.4750   14.8710   22.9640 N   0  0  0  0  0  0  0  0  0  0  0  0
   10.5240   15.5550   23.7340 C   0  0  0  0  0  0  0  0  0  0  0  0
   11.8860   15.3600   23.0770 C   0  0  0  0  0  0  0  0  0  0  0  0
   11.8390   15.8070   21.6160 C   0  0  0  0  0  0  0  0  0  0  0  0
    9.3790   15.2790   21.5590 C   0  0  0  0  0  0  0  0  0  0  0  0
   10.7230   15.0760   20.8510 C   0  0  1  0  0  0  0  0  0  0  0  0
   10.6180   15.5710   19.4180 C   0  0  0  0  0  0  0  0  0  0  0  0
   10.2500   16.7190   19.1690 O   0  0  0  0  0  0  0  0  0  0  0  0
   10.8920   14.6820   18.4760 N   0  0  0  0  0  0  0  0  0  0  0  0
 21 19  1  0
 20 19  2  0
 18 19  1  6
 18 16  1  0
 16 15  1  0
 15 14  1  0
 14 13  1  0
 13 11  1  0
 12 11  2  0
 11 10  1  0
 10  9  1  0
  9  8  2  0
  8  7  1  0
  7  5  2  0
  6  5  1  0
  5  3  1  0
  4  3  1  0
  3  2  2  0
  9  2  1  0
  2  1  1  0
 17 13  1  0
 18 17  1  0
M  END
>  <smiles>  (167) 
NC(=O)[C@H]1CCCN(C(=O)Cc2ccc(F)c(F)c2Br)C1

>  <inchikey>  (167) 
CAOQILUKBAIRHC-VIFPVBQESA-N

>  <alias>  (167) 
A4644a

$$$$
A4644b
     RDKit          3D

 21 22  0  0  0  0  0  0  0  0999 V2000
    9.6390   10.5350   24.1150 Br  0  0  0  0  0  0  0  0  0  0  0  0
    8.1580   11.1070   25.1480 C   0  0  0  0  0  0  0  0  0  0  0  0
    7.2630   10.1930   25.6620 C   0  0  0  0  0  0  0  0  0  0  0  0
    7.4170    8.8830   25.4000 F   0  0  0  0  0  0  0  0  0  0  0  0
    6.2140   10.6020   26.4440 C   0  0  0  0  0  0  0  0  0  0  0  0
    5.3860    9.6640   26.9590 F   0  0  0  0  0  0  0  0  0  0  0  0
    6.0150   11.9300   26.7210 C   0  0  0  0  0  0  0  0  0  0  0  0
    6.9080   12.8540   26.2060 C   0  0  0  0  0  0  0  0  0  0  0  0
    7.9960   12.4690   25.4170 C   0  0  0  0  0  0  0  0  0  0  0  0
    8.9730   13.5080   24.9200 C   0  0  0  0  0  0  0  0  0  0  0  0
    8.7070   13.9100   23.4780 C   0  0  0  0  0  0  0  0  0  0  0  0
    7.8520   13.3450   22.8010 O   0  0  0  0  0  0  0  0  0  0  0  0
    9.4640   14.9200   22.9900 N   0  0  0  0  0  0  0  0  0  0  0  0
   10.4940   15.6470   23.7490 C   0  0  0  0  0  0  0  0  0  0  0  0
   11.8650   15.5000   23.0870 C   0  0  0  0  0  0  0  0  0  0  0  0
   11.7920   15.9250   21.6190 C   0  0  0  0  0  0  0  0  0  0  0  0
    9.3560   15.3250   21.5850 C   0  0  0  0  0  0  0  0  0  0  0  0
   10.6990   15.1420   20.8660 C   0  0  1  0  0  0  0  0  0  0  0  0
   10.5710   15.6350   19.4350 C   0  0  0  0  0  0  0  0  0  0  0  0
   10.1670   16.7760   19.1920 O   0  0  0  0  0  0  0  0  0  0  0  0
   10.8800   14.7580   18.4900 N   0  0  0  0  0  0  0  0  0  0  0  0
 21 19  1  0
 20 19  2  0
 18 19  1  6
 18 16  1  0
 16 15  1  0
 15 14  1  0
 14 13  1  0
 13 11  1  0
 12 11  2  0
 11 10  1  0
 10  9  1  0
  9  8  2  0
  8  7  1  0
  7  5  2  0
  6  5  1  0
  5  3  1  0
  4  3  1  0
  3  2  2  0
  9  2  1  0
  2  1  1  0
 17 13  1  0
 18 17  1  0
M  END
>  <smiles>  (168) 
NC(=O)[C@H]1CCCN(C(=O)Cc2ccc(F)c(F)c2Br)C1

>  <inchikey>  (168) 
CAOQILUKBAIRHC-VIFPVBQESA-N

>  <alias>  (168) 
A4644b

$$$$
A4650a
     RDKit          3D

 22 23  0  0  0  0  0  0  0  0999 V2000
   10.3330   10.6700   24.7220 F   0  0  0  0  0  0  0  0  0  0  0  0
    9.2750   10.5860   23.9190 C   0  0  0  0  0  0  0  0  0  0  0  0
    9.2260    9.3200   23.5010 F   0  0  0  0  0  0  0  0  0  0  0  0
    9.5630   11.2800   22.8270 F   0  0  0  0  0  0  0  0  0  0  0  0
    8.0050   11.0420   24.5900 C   0  0  0  0  0  0  0  0  0  0  0  0
    7.0960   10.0630   24.9710 C   0  0  0  0  0  0  0  0  0  0  0  0
    5.9570   10.3910   25.6880 C   0  0  0  0  0  0  0  0  0  0  0  0
    5.7100   11.6960   26.0270 C   0  0  0  0  0  0  0  0  0  0  0  0
    6.5920   12.6880   25.6370 C   0  0  0  0  0  0  0  0  0  0  0  0
    7.7440   12.3810   24.9150 C   0  0  0  0  0  0  0  0  0  0  0  0
    8.6940   13.4940   24.5330 C   0  0  0  0  0  0  0  0  0  0  0  0
    8.4840   13.9670   23.1050 C   0  0  0  0  0  0  0  0  0  0  0  0
    7.6030   13.4850   22.4110 O   0  0  0  0  0  0  0  0  0  0  0  0
    9.2830   14.9590   22.6570 N   0  0  0  0  0  0  0  0  0  0  0  0
   10.2910   15.6640   23.4660 C   0  0  0  0  0  0  0  0  0  0  0  0
   11.6470   15.6560   22.7840 C   0  0  0  0  0  0  0  0  0  0  0  0
   11.5350   16.1490   21.3360 C   0  0  0  0  0  0  0  0  0  0  0  0
    9.1530   15.4700   21.2880 C   0  0  0  0  0  0  0  0  0  0  0  0
   10.4860   15.3490   20.5460 C   0  0  1  0  0  0  0  0  0  0  0  0
   10.3960   15.8230   19.1050 C   0  0  0  0  0  0  0  0  0  0  0  0
   10.0750   16.9830   18.8340 O   0  0  0  0  0  0  0  0  0  0  0  0
   10.6810   14.9190   18.1790 N   0  0  0  0  0  0  0  0  0  0  0  0
 22 20  1  0
 21 20  2  0
 19 20  1  6
 19 17  1  0
 17 16  1  0
 16 15  1  0
 15 14  1  0
 14 12  1  0
 13 12  2  0
 12 11  1  0
 11 10  1  0
 10  9  2  0
  9  8  1  0
  8  7  2  0
  7  6  1  0
  6  5  2  0
 10  5  1  0
  5  2  1  0
  3  2  1  0
  4  2  1  0
  2  1  1  0
 18 14  1  0
 19 18  1  0
M  END
>  <smiles>  (169) 
NC(=O)[C@H]1CCCN(C(=O)Cc2ccccc2C(F)(F)F)C1

>  <inchikey>  (169) 
QPXHUQPZPULEMO-NSHDSACASA-N

>  <alias>  (169) 
A4650a

$$$$
A4654a
     RDKit          3D

 24 26  0  0  0  0  0  0  0  0999 V2000
    6.0130   14.1250   25.3090 O   0  0  0  0  0  0  0  0  0  0  0  0
    6.8650   13.5650   26.3270 S   0  0  0  0  0  0  0  0  0  0  0  0
    7.9670   14.3720   26.7930 O   0  0  0  0  0  0  0  0  0  0  0  0
    5.8840   13.0590   27.6930 C   0  0  0  0  0  0  0  0  0  0  0  0
    5.0140   11.8590   27.3390 C   0  0  0  0  0  0  0  0  0  0  0  0
    5.8490   10.6090   27.1250 C   0  0  0  0  0  0  0  0  0  0  0  0
    6.9190   10.7680   26.0760 C   0  0  0  0  0  0  0  0  0  0  0  0
    7.4140    9.6290   25.4460 C   0  0  0  0  0  0  0  0  0  0  0  0
    8.4860    9.6930   24.5770 C   0  0  0  0  0  0  0  0  0  0  0  0
    9.0720   10.9070   24.2850 C   0  0  0  0  0  0  0  0  0  0  0  0
    7.4890   12.0120   25.7450 C   0  0  0  0  0  0  0  0  0  0  0  0
    8.5630   12.0800   24.8420 C   0  0  0  0  0  0  0  0  0  0  0  0
    9.0470   13.3100   24.3690 N   0  0  0  0  0  0  0  0  0  0  0  0
    8.6560   13.8280   23.1820 C   0  0  0  0  0  0  0  0  0  0  0  0
    7.7970   13.2970   22.4850 O   0  0  0  0  0  0  0  0  0  0  0  0
    9.2420   15.0060   22.8240 N   0  0  0  0  0  0  0  0  0  0  0  0
   10.2700   15.6990   23.6210 C   0  0  0  0  0  0  0  0  0  0  0  0
   11.6510   15.4960   23.0210 C   0  0  0  0  0  0  0  0  0  0  0  0
   11.6590   15.8950   21.5470 C   0  0  0  0  0  0  0  0  0  0  0  0
    9.1900   15.4250   21.4220 C   0  0  0  0  0  0  0  0  0  0  0  0
   10.5490   15.1750   20.7640 C   0  0  1  0  0  0  0  0  0  0  0  0
   10.4930   15.6710   19.3290 C   0  0  0  0  0  0  0  0  0  0  0  0
   10.1810   16.8410   19.0760 O   0  0  0  0  0  0  0  0  0  0  0  0
   10.7940   14.7730   18.3940 N   0  0  0  0  0  0  0  0  0  0  0  0
 24 22  1  0
 23 22  2  0
 21 22  1  6
 21 19  1  0
 19 18  1  0
 18 17  1  0
 17 16  1  0
 16 14  1  0
 15 14  2  0
 14 13  1  0
 13 12  1  0
 12 10  1  0
 10  9  2  0
  9  8  1  0
  8  7  2  0
  7 11  1  0
 12 11  2  0
 11  2  1  0
  3  2  2  0
  2  1  2  0
  4  2  1  0
  5  4  1  0
  6  5  1  0
  7  6  1  0
 20 16  1  0
 21 20  1  0
M  END
>  <smiles>  (170) 
NC(=O)[C@H]1CCCN(C(=O)Nc2cccc3c2S(=O)(=O)CCC3)C1

>  <inchikey>  (170) 
JYAIADPZFKQZMS-LBPRGKRZSA-N

>  <alias>  (170) 
A4654a

$$$$
A4669a
     RDKit          3D

 23 25  0  0  0  0  0  0  0  0999 V2000
    9.1220    9.9790   24.0670 Cl  0  0  0  0  0  0  0  0  0  0  0  0
    7.9600   10.7470   25.1070 C   0  0  0  0  0  0  0  0  0  0  0  0
    6.9620    9.9560   25.6430 C   0  0  0  0  0  0  0  0  0  0  0  0
    5.9540   10.5470   26.3690 C   0  0  0  0  0  0  0  0  0  0  0  0
    4.9110    9.7520   26.7810 O   0  0  0  0  0  0  0  0  0  0  0  0
    4.0690   10.3430   27.8000 C   0  0  0  0  0  0  0  0  0  0  0  0
    3.8390   11.8370   27.6050 C   0  0  0  0  0  0  0  0  0  0  0  0
    5.0720   12.5540   27.4130 O   0  0  0  0  0  0  0  0  0  0  0  0
    5.9750   11.9320   26.5900 C   0  0  0  0  0  0  0  0  0  0  0  0
    6.9820   12.7020   26.0450 C   0  0  0  0  0  0  0  0  0  0  0  0
    8.0070   12.1240   25.2980 C   0  0  0  0  0  0  0  0  0  0  0  0
    9.1420   12.9780   24.7780 C   0  0  0  0  0  0  0  0  0  0  0  0
    8.8350   13.5860   23.4220 C   0  0  0  0  0  0  0  0  0  0  0  0
    7.8970   13.1940   22.7450 O   0  0  0  0  0  0  0  0  0  0  0  0
    9.6680   14.5600   22.9960 N   0  0  0  0  0  0  0  0  0  0  0  0
   10.7770   15.1230   23.7830 C   0  0  0  0  0  0  0  0  0  0  0  0
   12.1090   15.0040   23.0470 C   0  0  0  0  0  0  0  0  0  0  0  0
   12.0030   15.5740   21.6290 C   0  0  0  0  0  0  0  0  0  0  0  0
    9.5450   15.0900   21.6320 C   0  0  0  0  0  0  0  0  0  0  0  0
   10.8560   14.8900   20.8630 C   0  0  1  0  0  0  0  0  0  0  0  0
   10.7140   15.4210   19.4470 C   0  0  0  0  0  0  0  0  0  0  0  0
   10.2920   16.5570   19.2330 O   0  0  0  0  0  0  0  0  0  0  0  0
   11.0080   14.5650   18.4690 N   0  0  0  0  0  0  0  0  0  0  0  0
 23 21  1  0
 22 21  2  0
 20 21  1  6
 20 18  1  0
 18 17  1  0
 17 16  1  0
 16 15  1  0
 15 13  1  0
 14 13  2  0
 13 12  1  0
 12 11  1  0
 11 10  2  0
 10  9  1  0
  9  4  2  0
  4  3  1  0
  3  2  2  0
 11  2  1  0
  2  1  1  0
  5  4  1  0
  6  5  1  0
  7  6  1  0
  8  7  1  0
  9  8  1  0
 19 15  1  0
 20 19  1  0
M  END
>  <smiles>  (171) 
NC(=O)[C@H]1CCCN(C(=O)Cc2cc3c(cc2Cl)OCCO3)C1

>  <inchikey>  (171) 
JLLIPNXJKWLVDW-JTQLQIEISA-N

>  <alias>  (171) 
A4669a

$$$$
A4669b
     RDKit          3D

 23 25  0  0  0  0  0  0  0  0999 V2000
    9.3240   10.2240   24.2030 Cl  0  0  0  0  0  0  0  0  0  0  0  0
    8.1850   11.0160   25.2480 C   0  0  0  0  0  0  0  0  0  0  0  0
    7.2220   10.2400   25.8670 C   0  0  0  0  0  0  0  0  0  0  0  0
    6.2910   10.8540   26.6800 C   0  0  0  0  0  0  0  0  0  0  0  0
    5.3540   10.0620   27.3030 O   0  0  0  0  0  0  0  0  0  0  0  0
    4.5740   10.7250   28.3290 C   0  0  0  0  0  0  0  0  0  0  0  0
    4.2210   12.1560   27.9610 C   0  0  0  0  0  0  0  0  0  0  0  0
    5.4090   12.9160   27.6280 O   0  0  0  0  0  0  0  0  0  0  0  0
    6.3260   12.2480   26.8550 C   0  0  0  0  0  0  0  0  0  0  0  0
    7.3010   12.9940   26.2330 C   0  0  0  0  0  0  0  0  0  0  0  0
    8.2610   12.3920   25.4270 C   0  0  0  0  0  0  0  0  0  0  0  0
    9.3600   13.2340   24.8220 C   0  0  0  0  0  0  0  0  0  0  0  0
    8.9820   13.7450   23.4430 C   0  0  0  0  0  0  0  0  0  0  0  0
    8.0280   13.2840   22.8040 O   0  0  0  0  0  0  0  0  0  0  0  0
    9.7690   14.7350   22.9660 N   0  0  0  0  0  0  0  0  0  0  0  0
   10.8430   15.4320   23.6990 C   0  0  0  0  0  0  0  0  0  0  0  0
   12.1830   15.2810   22.9780 C   0  0  0  0  0  0  0  0  0  0  0  0
   12.0600   15.7390   21.5220 C   0  0  0  0  0  0  0  0  0  0  0  0
    9.5980   15.1740   21.5780 C   0  0  0  0  0  0  0  0  0  0  0  0
   10.9110   14.9960   20.8060 C   0  0  1  0  0  0  0  0  0  0  0  0
   10.7410   15.4950   19.3820 C   0  0  0  0  0  0  0  0  0  0  0  0
   10.3360   16.6410   19.1570 O   0  0  0  0  0  0  0  0  0  0  0  0
   10.9900   14.6080   18.4260 N   0  0  0  0  0  0  0  0  0  0  0  0
 23 21  1  0
 22 21  2  0
 20 21  1  6
 20 18  1  0
 18 17  1  0
 17 16  1  0
 16 15  1  0
 15 13  1  0
 14 13  2  0
 13 12  1  0
 12 11  1  0
 11 10  2  0
 10  9  1  0
  9  4  2  0
  4  3  1  0
  3  2  2  0
 11  2  1  0
  2  1  1  0
  5  4  1  0
  6  5  1  0
  7  6  1  0
  8  7  1  0
  9  8  1  0
 19 15  1  0
 20 19  1  0
M  END
>  <smiles>  (172) 
NC(=O)[C@H]1CCCN(C(=O)Cc2cc3c(cc2Cl)OCCO3)C1

>  <inchikey>  (172) 
JLLIPNXJKWLVDW-JTQLQIEISA-N

>  <alias>  (172) 
A4669b

$$$$
A4670a
     RDKit          3D

 21 22  0  0  0  0  0  0  0  0999 V2000
   10.3980   16.5810   18.9060 O   0  0  0  0  0  0  0  0  0  0  0  0
   10.8270   15.4650   19.2000 C   0  0  0  0  0  0  0  0  0  0  0  0
   11.2590   14.6010   18.2960 N   0  0  0  0  0  0  0  0  0  0  0  0
   10.8780   15.0010   20.6450 C   0  0  1  0  0  0  0  0  0  0  0  0
   11.9200   15.7960   21.4440 C   0  0  0  0  0  0  0  0  0  0  0  0
   11.9190   15.3980   22.9200 C   0  0  0  0  0  0  0  0  0  0  0  0
   10.5270   15.5370   23.5150 C   0  0  0  0  0  0  0  0  0  0  0  0
    9.5060   15.2130   21.2910 C   0  0  0  0  0  0  0  0  0  0  0  0
    9.5330   14.8170   22.7020 N   0  0  0  0  0  0  0  0  0  0  0  0
    8.6740   13.8930   23.1790 C   0  0  0  0  0  0  0  0  0  0  0  0
    7.7450   13.4650   22.5120 O   0  0  0  0  0  0  0  0  0  0  0  0
    8.9090   13.4210   24.6020 C   0  0  0  0  0  0  0  0  0  0  0  0
    7.8410   12.4740   25.1090 C   0  0  0  0  0  0  0  0  0  0  0  0
    6.7980   12.9130   25.9340 C   0  0  0  0  0  0  0  0  0  0  0  0
    6.6550   14.6300   26.3220 S   0  0  0  0  0  0  0  0  0  0  0  0
    7.4420   14.7550   27.9280 C   0  0  0  0  0  0  0  0  0  0  0  0
    7.9010   11.1110   24.8180 C   0  0  0  0  0  0  0  0  0  0  0  0
    9.3030   10.4270   23.7350 Br  0  0  0  0  0  0  0  0  0  0  0  0
    6.9790   10.2100   25.3170 C   0  0  0  0  0  0  0  0  0  0  0  0
    5.9750   10.6620   26.1500 C   0  0  0  0  0  0  0  0  0  0  0  0
    5.8760   12.0060   26.4570 C   0  0  0  0  0  0  0  0  0  0  0  0
 16 15  1  0
 15 14  1  0
 14 21  2  0
 21 20  1  0
 20 19  2  0
 19 17  1  0
 18 17  1  0
 17 13  2  0
 14 13  1  0
 13 12  1  0
 12 10  1  0
 11 10  2  0
 10  9  1  0
  9  7  1  0
  7  6  1  0
  6  5  1  0
  5  4  1  0
  4  2  1  6
  3  2  1  0
  2  1  2  0
  8  4  1  0
  9  8  1  0
M  END
>  <smiles>  (173) 
CSc1cccc(Br)c1CC(=O)N1CCC[C@H](C(N)=O)C1

>  <inchikey>  (173) 
SRQVRMUCHBMAPS-JTQLQIEISA-N

>  <alias>  (173) 
A4670a

$$$$
A4673a
     RDKit          3D

 22 24  0  0  0  0  0  0  0  0999 V2000
    9.5720   10.0880   23.9830 Br  0  0  0  0  0  0  0  0  0  0  0  0
    8.1270   10.7520   25.0090 C   0  0  0  0  0  0  0  0  0  0  0  0
    7.2030    9.8260   25.4560 C   0  0  0  0  0  0  0  0  0  0  0  0
    6.1020   10.2960   26.1200 C   0  0  0  0  0  0  0  0  0  0  0  0
    5.0200    9.5880   26.5930 O   0  0  0  0  0  0  0  0  0  0  0  0
    4.2590   10.5360   27.3500 C   0  0  0  0  0  0  0  0  0  0  0  0
    4.7420   11.8400   27.0260 O   0  0  0  0  0  0  0  0  0  0  0  0
    5.9240   11.6320   26.3480 C   0  0  0  0  0  0  0  0  0  0  0  0
    6.8530   12.5620   25.9160 C   0  0  0  0  0  0  0  0  0  0  0  0
    7.9890   12.1270   25.2300 C   0  0  0  0  0  0  0  0  0  0  0  0
    9.0390   13.1220   24.7890 C   0  0  0  0  0  0  0  0  0  0  0  0
    8.7990   13.6490   23.3850 C   0  0  0  0  0  0  0  0  0  0  0  0
    7.9110   13.2150   22.6760 O   0  0  0  0  0  0  0  0  0  0  0  0
    9.6360   14.6140   22.9560 N   0  0  0  0  0  0  0  0  0  0  0  0
   10.7230   15.2090   23.7500 C   0  0  0  0  0  0  0  0  0  0  0  0
   12.0500   15.0870   23.0150 C   0  0  0  0  0  0  0  0  0  0  0  0
   11.9350   15.6790   21.6090 C   0  0  0  0  0  0  0  0  0  0  0  0
    9.5110   15.1230   21.5840 C   0  0  0  0  0  0  0  0  0  0  0  0
   10.8340   14.9560   20.8320 C   0  0  1  0  0  0  0  0  0  0  0  0
   10.7210   15.4730   19.4090 C   0  0  0  0  0  0  0  0  0  0  0  0
   10.2980   16.6100   19.1730 O   0  0  0  0  0  0  0  0  0  0  0  0
   11.0180   14.5930   18.4460 N   0  0  0  0  0  0  0  0  0  0  0  0
 22 20  1  0
 21 20  2  0
 19 20  1  6
 19 17  1  0
 17 16  1  0
 16 15  1  0
 15 14  1  0
 14 12  1  0
 13 12  2  0
 12 11  1  0
 11 10  1  0
 10  9  2  0
  9  8  1  0
  8  4  2  0
  4  3  1  0
  3  2  2  0
 10  2  1  0
  2  1  1  0
  5  4  1  0
  6  5  1  0
  7  6  1  0
  8  7  1  0
 18 14  1  0
 19 18  1  0
M  END
>  <smiles>  (174) 
NC(=O)[C@H]1CCCN(C(=O)Cc2cc3c(cc2Br)OCO3)C1

>  <inchikey>  (174) 
ZWOYLBVAIIBBQA-VIFPVBQESA-N

>  <alias>  (174) 
A4673a

$$$$
A4673b
     RDKit          3D

 22 24  0  0  0  0  0  0  0  0999 V2000
    9.7340   10.1680   23.9790 Br  0  0  0  0  0  0  0  0  0  0  0  0
    8.3410   10.8380   25.0670 C   0  0  0  0  0  0  0  0  0  0  0  0
    7.4010    9.9300   25.5360 C   0  0  0  0  0  0  0  0  0  0  0  0
    6.3350   10.4290   26.2470 C   0  0  0  0  0  0  0  0  0  0  0  0
    5.2560    9.7480   26.7750 O   0  0  0  0  0  0  0  0  0  0  0  0
    4.5510   10.7160   27.5550 C   0  0  0  0  0  0  0  0  0  0  0  0
    5.0780   12.0110   27.2360 O   0  0  0  0  0  0  0  0  0  0  0  0
    6.2140   11.7670   26.4950 C   0  0  0  0  0  0  0  0  0  0  0  0
    7.1550   12.6690   26.0400 C   0  0  0  0  0  0  0  0  0  0  0  0
    8.2550   12.2100   25.3110 C   0  0  0  0  0  0  0  0  0  0  0  0
    9.2960   13.1950   24.8230 C   0  0  0  0  0  0  0  0  0  0  0  0
    9.0030   13.6950   23.4160 C   0  0  0  0  0  0  0  0  0  0  0  0
    8.0880   13.2280   22.7490 O   0  0  0  0  0  0  0  0  0  0  0  0
    9.7890   14.6970   22.9530 N   0  0  0  0  0  0  0  0  0  0  0  0
   10.8620   15.3790   23.6990 C   0  0  0  0  0  0  0  0  0  0  0  0
   12.1910   15.2510   22.9540 C   0  0  0  0  0  0  0  0  0  0  0  0
   12.0480   15.7840   21.5260 C   0  0  0  0  0  0  0  0  0  0  0  0
    9.6200   15.1780   21.5770 C   0  0  0  0  0  0  0  0  0  0  0  0
   10.9330   15.0170   20.7940 C   0  0  1  0  0  0  0  0  0  0  0  0
   10.7720   15.5130   19.3680 C   0  0  0  0  0  0  0  0  0  0  0  0
   10.3780   16.6660   19.1370 O   0  0  0  0  0  0  0  0  0  0  0  0
   11.0460   14.6250   18.4120 N   0  0  0  0  0  0  0  0  0  0  0  0
 22 20  1  0
 21 20  2  0
 19 20  1  6
 19 17  1  0
 17 16  1  0
 16 15  1  0
 15 14  1  0
 14 12  1  0
 13 12  2  0
 12 11  1  0
 11 10  1  0
 10  9  2  0
  9  8  1  0
  8  4  2  0
  4  3  1  0
  3  2  2  0
 10  2  1  0
  2  1  1  0
  5  4  1  0
  6  5  1  0
  7  6  1  0
  8  7  1  0
 18 14  1  0
 19 18  1  0
M  END
>  <smiles>  (175) 
NC(=O)[C@H]1CCCN(C(=O)Cc2cc3c(cc2Br)OCO3)C1

>  <inchikey>  (175) 
ZWOYLBVAIIBBQA-VIFPVBQESA-N

>  <alias>  (175) 
A4673b

$$$$
A4707a
     RDKit          3D

 16 17  0  0  0  0  0  0  0  0999 V2000
    7.4500   12.7250   22.5540 O   0  0  0  0  0  0  0  0  0  0  0  0
    8.4010   13.0870   23.2010 C   0  0  0  0  0  0  0  0  0  0  0  0
    8.7780   12.3330   24.4480 C   0  0  0  0  0  0  0  0  0  0  0  0
    8.3160   10.8850   24.2720 C   0  0  0  0  0  0  0  0  0  0  0  0
    9.2980   10.3210   23.3110 C   0  0  0  0  0  0  0  0  0  0  0  0
    9.9820    9.1260   24.6340 S   0  0  0  0  0  0  0  0  0  0  0  0
    8.4140    9.8570   25.3690 C   0  0  0  0  0  0  0  0  0  0  0  0
    9.1100   14.1840   22.9120 N   0  0  0  0  0  0  0  0  0  0  0  0
   10.1470   14.6500   23.8400 C   0  0  0  0  0  0  0  0  0  0  0  0
   11.5270   14.6610   23.1600 C   0  0  0  0  0  0  0  0  0  0  0  0
   11.5270   15.3200   21.7880 C   0  0  0  0  0  0  0  0  0  0  0  0
    9.0510   14.9930   21.7060 C   0  0  0  0  0  0  0  0  0  0  0  0
   10.3460   14.8160   20.9360 C   0  0  1  0  0  0  0  0  0  0  0  0
   10.3220   15.3730   19.5180 C   0  0  0  0  0  0  0  0  0  0  0  0
    9.9550   16.4700   19.2650 O   0  0  0  0  0  0  0  0  0  0  0  0
   10.8010   14.4760   18.6290 N   0  0  0  0  0  0  0  0  0  0  0  0
 16 14  1  0
 15 14  2  0
 13 14  1  6
 13 11  1  0
 11 10  1  0
 10  9  1  0
  9  8  1  0
  8  2  1  0
  2  1  2  0
  3  2  1  0
  4  3  1  0
  4  7  1  0
  7  6  1  0
  6  5  1  0
  5  4  1  0
 12  8  1  0
 13 12  1  0
M  END
>  <smiles>  (176) 
NC(=O)[C@H]1CCCN(C(=O)CC2CSC2)C1

>  <inchikey>  (176) 
BKTQIMHCVRWPFO-VIFPVBQESA-N

>  <alias>  (176) 
A4707a

$$$$
A4715a
     RDKit          3D

 16 17  0  0  0  0  0  0  0  0999 V2000
    7.7530   13.9460   22.6790 O   0  0  0  0  0  0  0  0  0  0  0  0
    8.8440   13.8920   23.2200 C   0  0  0  0  0  0  0  0  0  0  0  0
    9.9810   14.2160   22.5720 N   0  0  0  0  0  0  0  0  0  0  0  0
   11.4440   14.1760   22.6590 C   0  0  0  0  0  0  0  0  0  0  0  0
   11.5020   14.9370   21.3250 C   0  0  0  0  0  0  0  0  0  0  0  0
   12.2510   14.3280   20.2700 O   0  0  0  0  0  0  0  0  0  0  0  0
    9.9820   14.7560   21.2090 C   0  0  0  0  0  0  0  0  0  0  0  0
    8.9820   13.4400   24.6620 C   0  0  0  0  0  0  0  0  0  0  0  0
    7.9680   12.3790   25.0290 C   0  0  0  0  0  0  0  0  0  0  0  0
    8.0520   11.0680   24.5480 C   0  0  0  0  0  0  0  0  0  0  0  0
    9.2960   10.7180   23.3450 S   0  0  0  0  0  0  0  0  0  0  0  0
    9.2270    8.9250   23.2250 C   0  0  0  0  0  0  0  0  0  0  0  0
    6.9650   12.6740   25.9490 C   0  0  0  0  0  0  0  0  0  0  0  0
    6.0970   11.6940   26.3990 C   0  0  0  0  0  0  0  0  0  0  0  0
    6.2090   10.4060   25.9400 C   0  0  0  0  0  0  0  0  0  0  0  0
    7.1780   10.0840   25.0090 C   0  0  0  0  0  0  0  0  0  0  0  0
 12 11  1  0
 11 10  1  0
 10 16  2  0
 16 15  1  0
 15 14  2  0
 14 13  1  0
 13  9  2  0
 10  9  1  0
  9  8  1  0
  8  2  1  0
  2  1  2  0
  3  2  1  0
  3  7  1  0
  7  5  1  0
  6  5  1  0
  5  4  1  0
  4  3  1  0
M  END
>  <smiles>  (177) 
CSc1ccccc1CC(=O)N1CC(O)C1

>  <inchikey>  (177) 
YMOIRNXOTTYMES-UHFFFAOYSA-N

>  <alias>  (177) 
A4715a

$$$$
A4735a
     RDKit          3D

 21 23  0  0  0  0  0  0  0  0999 V2000
    8.4760   13.3900   22.7820 O   0  0  0  0  0  0  0  0  0  0  0  0
    9.3560   13.5950   23.5540 C   0  0  0  0  0  0  0  0  0  0  0  0
    9.1110   13.1850   24.9920 C   0  0  0  0  0  0  0  0  0  0  0  0
    7.9930   12.1560   25.0900 C   0  0  0  0  0  0  0  0  0  0  0  0
    6.8460   12.4550   25.8250 C   0  0  0  0  0  0  0  0  0  0  0  0
    5.9130   11.4870   26.1170 C   0  0  0  0  0  0  0  0  0  0  0  0
    6.0940   10.1950   25.6890 C   0  0  0  0  0  0  0  0  0  0  0  0
    7.1830    9.8700   24.8990 C   0  0  0  0  0  0  0  0  0  0  0  0
    8.1260   10.8540   24.5870 C   0  0  0  0  0  0  0  0  0  0  0  0
    9.4660   10.5020   23.4910 S   0  0  0  0  0  0  0  0  0  0  0  0
    9.1500    8.7560   22.9340 C   0  0  0  0  0  0  0  0  0  0  0  0
   10.5160   14.1250   23.0740 N   0  0  0  0  0  0  0  0  0  0  0  0
   10.4610   14.3780   21.6350 C   0  0  2  0  0  0  0  0  0  0  0  0
   11.9440   14.3960   21.2190 C   0  0  0  0  0  0  0  0  0  0  0  0
   12.6960   14.8530   22.4770 C   0  0  0  0  0  0  0  0  0  0  0  0
   11.7820   14.5840   23.6630 C   0  0  0  0  0  0  0  0  0  0  0  0
    9.8210   15.6740   21.1940 C   0  0  0  0  0  0  0  0  0  0  0  0
    9.6760   16.7950   21.9660 N   0  0  0  0  0  0  0  0  0  0  0  0
    9.1650   17.7610   21.1970 C   0  0  0  0  0  0  0  0  0  0  0  0
    8.9450   17.3240   19.9660 N   0  0  0  0  0  0  0  0  0  0  0  0
    9.3620   16.0210   19.9540 C   0  0  0  0  0  0  0  0  0  0  0  0
 11 10  1  0
 10  9  1  0
  9  8  1  0
  8  7  2  0
  7  6  1  0
  6  5  2  0
  5  4  1  0
  9  4  2  0
  4  3  1  0
  3  2  1  0
  2  1  2  0
 12  2  1  0
 12 16  1  0
 16 15  1  0
 15 14  1  0
 14 13  1  0
 13 12  1  0
 13 17  1  1
 17 21  2  0
 21 20  1  0
 20 19  2  0
 19 18  1  0
 18 17  1  0
M  END
>  <smiles>  (178) 
CSc1ccccc1CC(=O)N1CCC[C@@H]1c1cnc[nH]1

>  <inchikey>  (178) 
IQMOOOOGYWCBAO-CQSZACIVSA-N

>  <alias>  (178) 
A4735a

$$$$
A4739a
     RDKit          3D

 21 23  0  0  0  0  0  0  0  0999 V2000
   10.5170   16.7780   19.0560 O   0  0  0  0  0  0  0  0  0  0  0  0
   10.9130   15.6380   19.3310 C   0  0  0  0  0  0  0  0  0  0  0  0
   11.2780   14.7590   18.4190 N   0  0  0  0  0  0  0  0  0  0  0  0
   10.9800   15.1520   20.7590 C   0  0  1  0  0  0  0  0  0  0  0  0
   11.0290   16.1020   21.9370 C   0  0  2  0  0  0  0  0  0  0  0  0
   11.8180   15.6400   23.1640 C   0  0  0  0  0  0  0  0  0  0  0  0
   11.3800   14.2880   23.7390 C   0  0  0  0  0  0  0  0  0  0  0  0
    9.7520   15.4370   21.5980 C   0  0  2  0  0  0  0  0  0  0  0  0
    9.3370   14.1830   22.3600 C   0  0  0  0  0  0  0  0  0  0  0  0
    9.9160   14.1470   23.7100 N   0  0  0  0  0  0  0  0  0  0  0  0
    9.1660   13.9590   24.8210 C   0  0  0  0  0  0  0  0  0  0  0  0
    9.6390   14.0250   25.9470 O   0  0  0  0  0  0  0  0  0  0  0  0
    7.7030   13.6170   24.6110 C   0  0  0  0  0  0  0  0  0  0  0  0
    7.2960   12.3750   25.3680 C   0  0  0  0  0  0  0  0  0  0  0  0
    7.7080   11.0810   25.0120 C   0  0  0  0  0  0  0  0  0  0  0  0
    8.9920   10.8820   23.8080 S   0  0  0  0  0  0  0  0  0  0  0  0
    9.1780    9.1060   23.6390 C   0  0  0  0  0  0  0  0  0  0  0  0
    6.3550   12.5140   26.3860 C   0  0  0  0  0  0  0  0  0  0  0  0
    5.7960   11.4090   26.9980 C   0  0  0  0  0  0  0  0  0  0  0  0
    6.1710   10.1460   26.6110 C   0  0  0  0  0  0  0  0  0  0  0  0
    7.1260    9.9730   25.6230 C   0  0  0  0  0  0  0  0  0  0  0  0
 17 16  1  0
 16 15  1  0
 15 21  2  0
 21 20  1  0
 20 19  2  0
 19 18  1  0
 18 14  2  0
 15 14  1  0
 14 13  1  0
 13 11  1  0
 12 11  2  0
 11 10  1  0
 10  7  1  0
  7  6  1  0
  5  6  1  1
  5  8  1  0
  8  9  1  1
 10  9  1  0
  8  4  1  0
  5  4  1  0
  4  2  1  6
  3  2  1  0
  2  1  2  0
M  END
>  <smiles>  (179) 
CSc1ccccc1CC(=O)N1CC[C@@H]2[C@H](C1)[C@H]2C(N)=O

>  <inchikey>  (179) 
UZZFRRNYJXSFIQ-XUJVJEKNSA-N

>  <alias>  (179) 
A4739a

$$$$
A4742a
     RDKit          3D

 21 23  0  0  0  0  0  0  0  0999 V2000
    7.8060   13.1790   22.7690 O   0  0  0  0  0  0  0  0  0  0  0  0
    8.6790   13.6500   23.4700 C   0  0  0  0  0  0  0  0  0  0  0  0
    9.4720   14.6460   23.0360 N   0  0  0  0  0  0  0  0  0  0  0  0
   10.5460   15.2860   23.8200 C   0  0  0  0  0  0  0  0  0  0  0  0
   11.8900   15.1440   23.1190 C   0  0  0  0  0  0  0  0  0  0  0  0
   11.8010   15.6470   21.6680 C   0  0  0  0  0  0  0  0  0  0  0  0
    9.3310   15.2010   21.6870 C   0  0  0  0  0  0  0  0  0  0  0  0
   10.6340   14.9790   20.9170 C   0  0  1  0  0  0  0  0  0  0  0  0
   10.5580   15.4420   19.4710 C   0  0  0  0  0  0  0  0  0  0  0  0
   10.2040   16.5870   19.1860 O   0  0  0  0  0  0  0  0  0  0  0  0
   10.8440   14.5320   18.5570 N   0  0  0  0  0  0  0  0  0  0  0  0
    8.9000   13.1150   24.8830 C   0  0  1  0  0  0  0  0  0  0  0  0
    7.5710   12.6660   25.4500 C   0  0  0  0  0  0  0  0  0  0  0  0
    6.6230   13.6130   25.8320 C   0  0  0  0  0  0  0  0  0  0  0  0
    5.4640   13.2400   26.4890 C   0  0  0  0  0  0  0  0  0  0  0  0
    5.2380   11.9210   26.7870 C   0  0  0  0  0  0  0  0  0  0  0  0
    6.1420   10.9540   26.3900 C   0  0  0  0  0  0  0  0  0  0  0  0
    7.2920   11.3180   25.6900 C   0  0  0  0  0  0  0  0  0  0  0  0
    8.2500    9.9840   25.0630 S   0  0  0  0  0  0  0  0  0  0  0  0
    9.5670   10.7880   24.1160 C   0  0  0  0  0  0  0  0  0  0  0  0
    9.9970   12.0200   24.8950 C   0  0  0  0  0  0  0  0  0  0  0  0
 11  9  1  0
 10  9  2  0
  8  9  1  6
  8  6  1  0
  6  5  1  0
  5  4  1  0
  4  3  1  0
  3  2  1  0
  2  1  2  0
 12  2  1  6
 12 21  1  0
 21 20  1  0
 20 19  1  0
 19 18  1  0
 18 17  1  0
 17 16  2  0
 16 15  1  0
 15 14  2  0
 14 13  1  0
 18 13  2  0
 13 12  1  0
  7  3  1  0
  8  7  1  0
M  END
>  <smiles>  (180) 
NC(=O)[C@H]1CCCN(C(=O)[C@@H]2CCSc3ccccc32)C1

>  <inchikey>  (180) 
CIPSLIIOJPGGQL-WCQYABFASA-N

>  <alias>  (180) 
A4742a

$$$$
A4742b
     RDKit          3D

 21 23  0  0  0  0  0  0  0  0999 V2000
    7.9960   13.1370   22.8060 O   0  0  0  0  0  0  0  0  0  0  0  0
    8.9330   13.5680   23.4670 C   0  0  0  0  0  0  0  0  0  0  0  0
    9.7390   14.5490   22.9980 N   0  0  0  0  0  0  0  0  0  0  0  0
   10.7710   15.2690   23.7670 C   0  0  0  0  0  0  0  0  0  0  0  0
   12.1290   15.2090   23.0630 C   0  0  0  0  0  0  0  0  0  0  0  0
   12.0150   15.6760   21.6080 C   0  0  0  0  0  0  0  0  0  0  0  0
    9.5980   15.0420   21.6230 C   0  0  0  0  0  0  0  0  0  0  0  0
   10.9190   14.9000   20.8580 C   0  0  1  0  0  0  0  0  0  0  0  0
   10.7490   15.4120   19.4370 C   0  0  0  0  0  0  0  0  0  0  0  0
   10.4140   16.5830   19.2170 O   0  0  0  0  0  0  0  0  0  0  0  0
   10.9610   14.5260   18.4710 N   0  0  0  0  0  0  0  0  0  0  0  0
    9.1640   13.0520   24.8880 C   0  0  1  0  0  0  0  0  0  0  0  0
    7.8690   12.5340   25.4850 C   0  0  0  0  0  0  0  0  0  0  0  0
    6.9640   13.4290   26.0530 C   0  0  0  0  0  0  0  0  0  0  0  0
    5.7890   12.9840   26.6350 C   0  0  0  0  0  0  0  0  0  0  0  0
    5.4950   11.6420   26.6610 C   0  0  0  0  0  0  0  0  0  0  0  0
    6.3680   10.7280   26.0950 C   0  0  0  0  0  0  0  0  0  0  0  0
    7.5520   11.1730   25.5060 C   0  0  0  0  0  0  0  0  0  0  0  0
    8.6070    9.9000   24.8990 S   0  0  0  0  0  0  0  0  0  0  0  0
    9.9680   10.7670   24.0880 C   0  0  0  0  0  0  0  0  0  0  0  0
   10.3100   11.9970   24.9170 C   0  0  0  0  0  0  0  0  0  0  0  0
 11  9  1  0
 10  9  2  0
  8  9  1  6
  8  6  1  0
  6  5  1  0
  5  4  1  0
  4  3  1  0
  3  2  1  0
  2  1  2  0
 12  2  1  6
 12 21  1  0
 21 20  1  0
 20 19  1  0
 19 18  1  0
 18 17  1  0
 17 16  2  0
 16 15  1  0
 15 14  2  0
 14 13  1  0
 18 13  2  0
 13 12  1  0
  7  3  1  0
  8  7  1  0
M  END
>  <smiles>  (181) 
NC(=O)[C@H]1CCCN(C(=O)[C@@H]2CCSc3ccccc32)C1

>  <inchikey>  (181) 
CIPSLIIOJPGGQL-WCQYABFASA-N

>  <alias>  (181) 
A4742b

$$$$
A4752a
     RDKit          3D

 22 24  0  0  0  0  0  0  0  0999 V2000
    7.6040   13.4620   22.4490 O   0  0  0  0  0  0  0  0  0  0  0  0
    7.3440   13.8680   23.5250 C   0  0  0  0  0  0  0  0  0  0  0  0
    8.0830   13.2660   24.7030 C   0  0  0  0  0  0  0  0  0  0  0  0
    7.5350   11.9100   25.0980 C   0  0  0  0  0  0  0  0  0  0  0  0
    6.5050   11.8820   26.0300 C   0  0  0  0  0  0  0  0  0  0  0  0
    6.0370   10.6990   26.5610 C   0  0  0  0  0  0  0  0  0  0  0  0
    6.5640    9.5230   26.1570 C   0  0  0  0  0  0  0  0  0  0  0  0
    7.5700    9.5010   25.2060 C   0  0  0  0  0  0  0  0  0  0  0  0
    8.0540   10.6820   24.6620 C   0  0  0  0  0  0  0  0  0  0  0  0
    9.2740   10.5260   23.3940 S   0  0  0  0  0  0  0  0  0  0  0  0
    9.1030    8.7600   22.8250 C   0  0  0  0  0  0  0  0  0  0  0  0
    6.4210   14.8320   23.6920 N   0  0  0  0  0  0  0  0  0  0  0  0
    5.4310   15.1720   22.7120 C   0  0  0  0  0  0  0  0  0  0  0  0
    4.0740   15.0550   23.3570 C   0  0  0  0  0  0  0  0  0  0  0  0
    3.9660   14.8410   24.7380 C   0  0  0  0  0  0  0  0  0  0  0  0
    5.0670   15.2350   25.6720 C   0  0  0  0  0  0  0  0  0  0  0  0
    6.4000   15.4640   24.9990 C   0  0  0  0  0  0  0  0  0  0  0  0
    2.8990   15.0510   22.6250 C   0  0  0  0  0  0  0  0  0  0  0  0
    2.9650   15.5130   21.3720 O   0  0  0  0  0  0  0  0  0  0  0  0
    1.7040   14.7200   23.2240 C   0  0  0  0  0  0  0  0  0  0  0  0
    1.7210   14.4770   24.5840 C   0  0  0  0  0  0  0  0  0  0  0  0
    2.8150   14.5330   25.3420 N   0  0  0  0  0  0  0  0  0  0  0  0
 11 10  1  0
 10  9  1  0
  9  8  1  0
  8  7  2  0
  7  6  1  0
  6  5  2  0
  5  4  1  0
  9  4  2  0
  4  3  1  0
  3  2  1  0
  2  1  2  0
 12  2  1  0
 12 17  1  0
 17 16  1  0
 16 15  1  0
 15 22  2  0
 22 21  1  0
 21 20  2  0
 20 18  1  0
 19 18  1  0
 18 14  2  0
 15 14  1  0
 14 13  1  0
 13 12  1  0
M  END
>  <smiles>  (182) 
CSc1ccccc1CC(=O)N1CCc2nccc(O)c2C1

>  <inchikey>  (182) 
DYNBLKMWIHEGPC-UHFFFAOYSA-N

>  <alias>  (182) 
A4752a

$$$$
A4771a
     RDKit          3D

 22 24  0  0  0  0  0  0  0  0999 V2000
    2.7860   14.9140   20.8040 O   0  0  0  0  0  0  0  0  0  0  0  0
    2.7550   14.7890   22.0330 C   0  0  0  0  0  0  0  0  0  0  0  0
    1.5510   14.6320   22.6910 N   0  0  0  0  0  0  0  0  0  0  0  0
    1.4400   14.6060   24.0350 C   0  0  0  0  0  0  0  0  0  0  0  0
    2.4340   14.7390   24.8730 N   0  0  0  0  0  0  0  0  0  0  0  0
    3.8950   14.8990   22.9120 C   0  0  0  0  0  0  0  0  0  0  0  0
    3.6800   14.8990   24.2780 C   0  0  0  0  0  0  0  0  0  0  0  0
    4.7810   15.1660   25.2590 C   0  0  0  0  0  0  0  0  0  0  0  0
    6.0320   15.6740   24.5500 C   0  0  0  0  0  0  0  0  0  0  0  0
    5.2800   14.9750   22.3200 C   0  0  0  0  0  0  0  0  0  0  0  0
    6.3120   14.8740   23.3500 N   0  0  0  0  0  0  0  0  0  0  0  0
    7.4000   14.0830   23.1890 C   0  0  0  0  0  0  0  0  0  0  0  0
    7.6670   13.5550   22.1240 O   0  0  0  0  0  0  0  0  0  0  0  0
    8.2870   13.8550   24.3970 C   0  0  0  0  0  0  0  0  0  0  0  0
    7.8330   12.6470   25.1830 C   0  0  0  0  0  0  0  0  0  0  0  0
    8.1490   11.3300   24.8260 C   0  0  0  0  0  0  0  0  0  0  0  0
    9.2010   11.0110   23.4370 S   0  0  0  0  0  0  0  0  0  0  0  0
    9.6070    9.2730   23.5900 C   0  0  0  0  0  0  0  0  0  0  0  0
    6.9680   12.8460   26.2560 C   0  0  0  0  0  0  0  0  0  0  0  0
    6.3880   11.7880   26.9210 C   0  0  0  0  0  0  0  0  0  0  0  0
    6.6910   10.5130   26.5590 C   0  0  0  0  0  0  0  0  0  0  0  0
    7.5860   10.2740   25.5310 C   0  0  0  0  0  0  0  0  0  0  0  0
 18 17  1  0
 17 16  1  0
 16 22  2  0
 22 21  1  0
 21 20  2  0
 20 19  1  0
 19 15  2  0
 16 15  1  0
 15 14  1  0
 14 12  1  0
 13 12  2  0
 12 11  1  0
 11  9  1  0
  9  8  1  0
  8  7  1  0
  7  5  1  0
  5  4  2  0
  4  3  1  0
  3  2  1  0
  2  1  2  0
  6  2  1  0
  7  6  2  0
 10  6  1  0
 11 10  1  0
M  END
>  <smiles>  (183) 
CSc1ccccc1CC(=O)N1CCc2nc[nH]c(=O)c2C1

>  <inchikey>  (183) 
AETMPRGAEUVJPB-UHFFFAOYSA-N

>  <alias>  (183) 
A4771a

$$$$
A4777a
     RDKit          3D

 24 25  0  0  0  0  0  0  0  0999 V2000
    9.9680   16.5590   18.9060 O   0  0  0  0  0  0  0  0  0  0  0  0
   10.5520   15.5570   19.3300 C   0  0  0  0  0  0  0  0  0  0  0  0
   11.1800   14.6710   18.5510 N   0  0  0  0  0  0  0  0  0  0  0  0
   10.5840   15.4270   20.8410 C   0  0  2  0  0  0  0  0  0  0  0  0
   12.3250   15.3080   21.3560 S   0  0  0  0  0  0  0  0  0  0  0  0
   11.9970   15.1350   23.1200 C   0  0  0  0  0  0  0  0  0  0  0  0
   11.1650   13.9190   23.4220 C   0  0  0  0  0  0  0  0  0  0  0  0
    9.9430   14.1090   21.2240 C   0  0  0  0  0  0  0  0  0  0  0  0
    9.8880   13.9350   22.6790 N   0  0  0  0  0  0  0  0  0  0  0  0
    8.6970   13.6020   23.2150 C   0  0  0  0  0  0  0  0  0  0  0  0
    7.6820   13.4940   22.5410 O   0  0  0  0  0  0  0  0  0  0  0  0
    8.7060   13.3240   24.7040 C   0  0  0  0  0  0  0  0  0  0  0  0
    7.7030   12.2600   25.0750 C   0  0  0  0  0  0  0  0  0  0  0  0
    7.9050   10.9260   24.7350 C   0  0  0  0  0  0  0  0  0  0  0  0
    8.7880   10.7300   23.7040 O   0  0  0  0  0  0  0  0  0  0  0  0
    9.5620    9.5300   23.6800 C   0  0  0  0  0  0  0  0  0  0  0  0
    6.6410   12.5800   25.9040 C   0  0  0  0  0  0  0  0  0  0  0  0
    5.8270   11.6120   26.4660 C   0  0  0  0  0  0  0  0  0  0  0  0
    4.7500   12.0290   27.4130 C   0  0  0  0  0  0  0  0  0  0  0  0
    4.3650   11.0560   28.2280 F   0  0  0  0  0  0  0  0  0  0  0  0
    3.6560   12.5020   26.7990 F   0  0  0  0  0  0  0  0  0  0  0  0
    5.1390   13.0500   28.1620 F   0  0  0  0  0  0  0  0  0  0  0  0
    6.0940   10.2780   26.1740 C   0  0  0  0  0  0  0  0  0  0  0  0
    7.1160    9.9300   25.3010 C   0  0  0  0  0  0  0  0  0  0  0  0
 16 15  1  0
 15 14  1  0
 14 24  2  0
 24 23  1  0
 23 18  2  0
 19 18  1  0
 22 19  1  0
 21 19  1  0
 20 19  1  0
 18 17  1  0
 17 13  2  0
 14 13  1  0
 13 12  1  0
 12 10  1  0
 11 10  2  0
 10  9  1  0
  9  7  1  0
  7  6  1  0
  6  5  1  0
  5  4  1  0
  4  2  1  6
  3  2  1  0
  2  1  2  0
  8  4  1  0
  9  8  1  0
M  END
>  <smiles>  (184) 
COc1ccc(C(F)(F)F)cc1CC(=O)N1CCS[C@@H](C(N)=O)C1

>  <inchikey>  (184) 
DNENLOCKKIRGNY-GFCCVEGCSA-N

>  <alias>  (184) 
A4777a

$$$$
A4778a
     RDKit          3D

 24 25  0  0  0  0  0  0  0  0999 V2000
   10.0850   16.7750   19.0460 O   0  0  0  0  0  0  0  0  0  0  0  0
   10.4740   15.6450   19.3470 C   0  0  0  0  0  0  0  0  0  0  0  0
   10.9780   14.8010   18.4620 N   0  0  0  0  0  0  0  0  0  0  0  0
   10.4780   15.1480   20.7860 C   0  0  1  0  0  0  0  0  0  0  0  0
   11.8280   16.1430   21.4700 S   0  0  0  0  0  0  0  0  0  0  0  0
   11.8240   15.3500   23.0950 C   0  0  0  0  0  0  0  0  0  0  0  0
   10.4890   15.4690   23.7840 C   0  0  0  0  0  0  0  0  0  0  0  0
    9.2430   15.3610   21.6540 C   0  0  0  0  0  0  0  0  0  0  0  0
    9.4290   14.8270   23.0070 N   0  0  0  0  0  0  0  0  0  0  0  0
    8.6900   13.7980   23.4550 C   0  0  0  0  0  0  0  0  0  0  0  0
    7.8400   13.2740   22.7720 O   0  0  0  0  0  0  0  0  0  0  0  0
    8.9850   13.3070   24.8610 C   0  0  0  0  0  0  0  0  0  0  0  0
    8.0310   12.2180   25.2940 C   0  0  0  0  0  0  0  0  0  0  0  0
    8.1380   10.9290   24.7760 C   0  0  0  0  0  0  0  0  0  0  0  0
    9.1770   10.7390   23.9190 O   0  0  0  0  0  0  0  0  0  0  0  0
    9.1820    9.5360   23.1680 C   0  0  0  0  0  0  0  0  0  0  0  0
    6.9780   12.4930   26.1520 C   0  0  0  0  0  0  0  0  0  0  0  0
    6.0160   11.5410   26.4620 C   0  0  0  0  0  0  0  0  0  0  0  0
    4.8380   11.9200   27.3030 C   0  0  0  0  0  0  0  0  0  0  0  0
    4.1830   12.9240   26.8480 F   0  0  0  0  0  0  0  0  0  0  0  0
    5.1970   12.2610   28.5080 F   0  0  0  0  0  0  0  0  0  0  0  0
    3.9230   10.9950   27.3530 F   0  0  0  0  0  0  0  0  0  0  0  0
    6.1510   10.2600   25.9390 C   0  0  0  0  0  0  0  0  0  0  0  0
    7.2120    9.9450   25.1060 C   0  0  0  0  0  0  0  0  0  0  0  0
 16 15  1  0
 15 14  1  0
 14 24  2  0
 24 23  1  0
 23 18  2  0
 19 18  1  0
 22 19  1  0
 21 19  1  0
 20 19  1  0
 18 17  1  0
 17 13  2  0
 14 13  1  0
 13 12  1  0
 12 10  1  0
 11 10  2  0
 10  9  1  0
  9  7  1  0
  7  6  1  0
  6  5  1  0
  5  4  1  0
  4  2  1  6
  3  2  1  0
  2  1  2  0
  8  4  1  0
  9  8  1  0
M  END
>  <smiles>  (185) 
COc1ccc(C(F)(F)F)cc1CC(=O)N1CCS[C@H](C(N)=O)C1

>  <inchikey>  (185) 
DNENLOCKKIRGNY-LBPRGKRZSA-N

>  <alias>  (185) 
A4778a

$$$$
A4806a
     RDKit          3D

 20 22  0  0  0  0  0  0  0  0999 V2000
    7.1130   13.6550   22.2680 O   0  0  0  0  0  0  0  0  0  0  0  0
    7.9520   13.9720   23.0950 C   0  0  0  0  0  0  0  0  0  0  0  0
    8.9080   14.8880   22.8180 N   0  0  0  0  0  0  0  0  0  0  0  0
    9.8900   15.4140   23.7840 C   0  0  0  0  0  0  0  0  0  0  0  0
   11.3150   15.2020   23.2890 C   0  0  0  0  0  0  0  0  0  0  0  0
   11.4800   15.7340   21.8610 C   0  0  0  0  0  0  0  0  0  0  0  0
    9.0470   15.4270   21.4620 C   0  0  0  0  0  0  0  0  0  0  0  0
   10.4390   15.1060   20.9160 C   0  0  1  0  0  0  0  0  0  0  0  0
   10.5660   15.6360   19.4980 C   0  0  0  0  0  0  0  0  0  0  0  0
   10.3000   16.8070   19.2330 O   0  0  0  0  0  0  0  0  0  0  0  0
   10.9290   14.7570   18.5790 N   0  0  0  0  0  0  0  0  0  0  0  0
    7.9610   13.2990   24.4650 C   0  0  2  0  0  0  0  0  0  0  0  0
    8.1720   11.8210   24.2040 C   0  0  0  0  0  0  0  0  0  0  0  0
    7.3360   10.9670   24.9260 C   0  0  0  0  0  0  0  0  0  0  0  0
    6.1090   11.8010   25.8700 S   0  0  0  0  0  0  0  0  0  0  0  0
    6.5910   13.3920   25.1600 C   0  0  0  0  0  0  0  0  0  0  0  0
    9.1500   11.2650   23.3810 C   0  0  0  0  0  0  0  0  0  0  0  0
    9.2770    9.8900   23.2720 C   0  0  0  0  0  0  0  0  0  0  0  0
    8.4210    9.0550   23.9690 C   0  0  0  0  0  0  0  0  0  0  0  0
    7.4480    9.5850   24.8040 C   0  0  0  0  0  0  0  0  0  0  0  0
 11  9  1  0
 10  9  2  0
  8  9  1  6
  8  6  1  0
  6  5  1  0
  5  4  1  0
  4  3  1  0
  3  2  1  0
  2  1  2  0
 12  2  1  6
 12 16  1  0
 16 15  1  0
 15 14  1  0
 14 20  2  0
 20 19  1  0
 19 18  2  0
 18 17  1  0
 17 13  2  0
 14 13  1  0
 13 12  1  0
  7  3  1  0
  8  7  1  0
M  END
>  <smiles>  (186) 
NC(=O)[C@H]1CCCN(C(=O)[C@H]2CSc3ccccc32)C1

>  <inchikey>  (186) 
BHNNBJPWVZNUPG-JQWIXIFHSA-N

>  <alias>  (186) 
A4806a

$$$$
A4806b
     RDKit          3D

 20 22  0  0  0  0  0  0  0  0999 V2000
    7.2240   13.4950   22.4530 O   0  0  0  0  0  0  0  0  0  0  0  0
    8.0820   13.8500   23.2480 C   0  0  0  0  0  0  0  0  0  0  0  0
    8.9690   14.8220   22.9410 N   0  0  0  0  0  0  0  0  0  0  0  0
    9.9350   15.4290   23.8720 C   0  0  0  0  0  0  0  0  0  0  0  0
   11.3620   15.2720   23.3560 C   0  0  0  0  0  0  0  0  0  0  0  0
   11.4790   15.7570   21.9040 C   0  0  0  0  0  0  0  0  0  0  0  0
    9.0430   15.3600   21.5810 C   0  0  0  0  0  0  0  0  0  0  0  0
   10.4300   15.0860   21.0020 C   0  0  1  0  0  0  0  0  0  0  0  0
   10.4910   15.6220   19.5830 C   0  0  0  0  0  0  0  0  0  0  0  0
   10.1740   16.7880   19.3300 O   0  0  0  0  0  0  0  0  0  0  0  0
   10.8680   14.7530   18.6580 N   0  0  0  0  0  0  0  0  0  0  0  0
    8.1910   13.1760   24.6130 C   0  0  2  0  0  0  0  0  0  0  0  0
    8.4030   11.7040   24.3250 C   0  0  0  0  0  0  0  0  0  0  0  0
    7.6110   10.8330   25.0760 C   0  0  0  0  0  0  0  0  0  0  0  0
    6.4580   11.6400   26.1260 S   0  0  0  0  0  0  0  0  0  0  0  0
    6.8960   13.2510   25.4380 C   0  0  0  0  0  0  0  0  0  0  0  0
    9.3350   11.1640   23.4440 C   0  0  0  0  0  0  0  0  0  0  0  0
    9.4560    9.7920   23.3050 C   0  0  0  0  0  0  0  0  0  0  0  0
    8.6400    8.9420   24.0230 C   0  0  0  0  0  0  0  0  0  0  0  0
    7.7170    9.4520   24.9210 C   0  0  0  0  0  0  0  0  0  0  0  0
 11  9  1  0
 10  9  2  0
  8  9  1  6
  8  6  1  0
  6  5  1  0
  5  4  1  0
  4  3  1  0
  3  2  1  0
  2  1  2  0
 12  2  1  6
 12 16  1  0
 16 15  1  0
 15 14  1  0
 14 20  2  0
 20 19  1  0
 19 18  2  0
 18 17  1  0
 17 13  2  0
 14 13  1  0
 13 12  1  0
  7  3  1  0
  8  7  1  0
M  END
>  <smiles>  (187) 
NC(=O)[C@H]1CCCN(C(=O)[C@H]2CSc3ccccc32)C1

>  <inchikey>  (187) 
BHNNBJPWVZNUPG-JQWIXIFHSA-N

>  <alias>  (187) 
A4806b

$$$$
A4827a
     RDKit          3D

 20 21  0  0  0  0  0  0  0  0999 V2000
   10.3150   16.6870   19.1690 O   0  0  0  0  0  0  0  0  0  0  0  0
   10.6840   15.5270   19.4120 C   0  0  0  0  0  0  0  0  0  0  0  0
   11.0410   14.6780   18.4720 N   0  0  0  0  0  0  0  0  0  0  0  0
   10.6710   14.9790   20.8290 C   0  0  1  0  0  0  0  0  0  0  0  0
   11.7640   15.6360   21.6910 C   0  0  0  0  0  0  0  0  0  0  0  0
   11.7000   15.1520   23.1450 C   0  0  0  0  0  0  0  0  0  0  0  0
   10.3050   15.3250   23.7080 C   0  0  0  0  0  0  0  0  0  0  0  0
    9.2810   15.1870   21.4540 C   0  0  0  0  0  0  0  0  0  0  0  0
    9.2850   14.7140   22.8420 N   0  0  0  0  0  0  0  0  0  0  0  0
    8.4130   13.7600   23.2380 C   0  0  0  0  0  0  0  0  0  0  0  0
    7.5470   13.3250   22.4990 O   0  0  0  0  0  0  0  0  0  0  0  0
    8.5170   13.3220   24.6860 C   0  0  0  0  0  0  0  0  0  0  0  0
    7.6180   12.1510   25.0140 C   0  0  0  0  0  0  0  0  0  0  0  0
    7.8970   10.8450   24.5900 C   0  0  0  0  0  0  0  0  0  0  0  0
    9.2980   10.5820   23.5420 S   0  0  0  0  0  0  0  0  0  0  0  0
    9.3360    8.8010   23.3040 C   0  0  0  0  0  0  0  0  0  0  0  0
    6.5200   12.3080   25.8390 C   0  0  0  0  0  0  0  0  0  0  0  0
    5.7230   11.3190   26.2510 N   0  0  0  0  0  0  0  0  0  0  0  0
    6.0280   10.0890   25.8400 C   0  0  0  0  0  0  0  0  0  0  0  0
    7.0890    9.7960   25.0070 C   0  0  0  0  0  0  0  0  0  0  0  0
 16 15  1  0
 15 14  1  0
 14 20  2  0
 20 19  1  0
 19 18  2  0
 18 17  1  0
 17 13  2  0
 14 13  1  0
 13 12  1  0
 12 10  1  0
 11 10  2  0
 10  9  1  0
  9  7  1  0
  7  6  1  0
  6  5  1  0
  5  4  1  0
  4  2  1  6
  3  2  1  0
  2  1  2  0
  8  4  1  0
  9  8  1  0
M  END
>  <smiles>  (188) 
CSc1ccncc1CC(=O)N1CCC[C@H](C(N)=O)C1

>  <inchikey>  (188) 
ZMOITPIXGZHKCC-JTQLQIEISA-N

>  <alias>  (188) 
A4827a

$$$$
A4827b
     RDKit          3D

 20 21  0  0  0  0  0  0  0  0999 V2000
   10.3950   16.6670   19.1940 O   0  0  0  0  0  0  0  0  0  0  0  0
   10.7940   15.5160   19.4200 C   0  0  0  0  0  0  0  0  0  0  0  0
   11.1030   14.6530   18.4640 N   0  0  0  0  0  0  0  0  0  0  0  0
   10.8570   14.9770   20.8390 C   0  0  1  0  0  0  0  0  0  0  0  0
   11.9730   15.6760   21.6450 C   0  0  0  0  0  0  0  0  0  0  0  0
   11.9690   15.2290   23.1110 C   0  0  0  0  0  0  0  0  0  0  0  0
   10.5860   15.3940   23.7290 C   0  0  0  0  0  0  0  0  0  0  0  0
    9.5010   15.1520   21.5290 C   0  0  0  0  0  0  0  0  0  0  0  0
    9.5790   14.6920   22.9190 N   0  0  0  0  0  0  0  0  0  0  0  0
    8.7550   13.7080   23.3530 C   0  0  0  0  0  0  0  0  0  0  0  0
    7.8550   13.2570   22.6560 O   0  0  0  0  0  0  0  0  0  0  0  0
    8.9380   13.2480   24.7880 C   0  0  0  0  0  0  0  0  0  0  0  0
    8.0390   12.0780   25.1410 C   0  0  0  0  0  0  0  0  0  0  0  0
    8.2790   10.7740   24.6880 C   0  0  0  0  0  0  0  0  0  0  0  0
    9.6150   10.5340   23.5680 S   0  0  0  0  0  0  0  0  0  0  0  0
    9.6600    8.7490   23.3270 C   0  0  0  0  0  0  0  0  0  0  0  0
    6.9800   12.2230   26.0180 C   0  0  0  0  0  0  0  0  0  0  0  0
    6.1940   11.2360   26.4560 N   0  0  0  0  0  0  0  0  0  0  0  0
    6.4540   10.0090   26.0050 C   0  0  0  0  0  0  0  0  0  0  0  0
    7.4720    9.7180   25.1160 C   0  0  0  0  0  0  0  0  0  0  0  0
 16 15  1  0
 15 14  1  0
 14 20  2  0
 20 19  1  0
 19 18  2  0
 18 17  1  0
 17 13  2  0
 14 13  1  0
 13 12  1  0
 12 10  1  0
 11 10  2  0
 10  9  1  0
  9  7  1  0
  7  6  1  0
  6  5  1  0
  5  4  1  0
  4  2  1  6
  3  2  1  0
  2  1  2  0
  8  4  1  0
  9  8  1  0
M  END
>  <smiles>  (189) 
CSc1ccncc1CC(=O)N1CCC[C@H](C(N)=O)C1

>  <inchikey>  (189) 
ZMOITPIXGZHKCC-JTQLQIEISA-N

>  <alias>  (189) 
A4827b

$$$$
A4838a
     RDKit          3D

 22 23  0  0  0  0  0  0  0  0999 V2000
    9.3690   10.8600   23.2980 Cl  0  0  0  0  0  0  0  0  0  0  0  0
    8.1720   11.3020   24.4790 C   0  0  0  0  0  0  0  0  0  0  0  0
    7.6400   10.3060   25.2760 C   0  0  0  0  0  0  0  0  0  0  0  0
    6.6660   10.6160   26.2040 C   0  0  0  0  0  0  0  0  0  0  0  0
    6.2340   11.9270   26.3510 C   0  0  0  0  0  0  0  0  0  0  0  0
    5.1810   12.2840   27.3500 C   0  0  0  0  0  0  0  0  0  0  0  0
    5.1630   11.4640   28.4080 F   0  0  0  0  0  0  0  0  0  0  0  0
    3.9600   12.2370   26.8280 F   0  0  0  0  0  0  0  0  0  0  0  0
    5.3320   13.5100   27.8350 F   0  0  0  0  0  0  0  0  0  0  0  0
    6.7870   12.9100   25.5400 C   0  0  0  0  0  0  0  0  0  0  0  0
    7.7530   12.6230   24.5790 C   0  0  0  0  0  0  0  0  0  0  0  0
    8.2280   13.7000   23.6320 C   0  0  0  0  0  0  0  0  0  0  0  0
    9.6340   14.1710   23.9530 C   0  0  0  0  0  0  0  0  0  0  0  0
   10.0620   14.1870   25.0990 O   0  0  0  0  0  0  0  0  0  0  0  0
   10.3730   14.5880   22.9070 N   0  0  0  0  0  0  0  0  0  0  0  0
   11.8210   14.8470   22.9730 C   0  0  0  0  0  0  0  0  0  0  0  0
   12.1450   15.3390   21.5680 C   0  0  0  0  0  0  0  0  0  0  0  0
    9.8290   14.8480   21.5740 C   0  0  0  0  0  0  0  0  0  0  0  0
   11.0630   14.6660   20.7050 C   0  0  1  0  0  0  0  0  0  0  0  0
   10.8660   15.2580   19.3220 C   0  0  0  0  0  0  0  0  0  0  0  0
   10.2850   16.3360   19.1670 O   0  0  0  0  0  0  0  0  0  0  0  0
   11.2970   14.5170   18.3170 N   0  0  0  0  0  0  0  0  0  0  0  0
 22 20  1  0
 21 20  2  0
 19 20  1  6
 19 17  1  0
 17 16  1  0
 16 15  1  0
 15 13  1  0
 14 13  2  0
 13 12  1  0
 12 11  1  0
 11 10  2  0
 10  5  1  0
  6  5  1  0
  9  6  1  0
  8  6  1  0
  7  6  1  0
  5  4  2  0
  4  3  1  0
  3  2  2  0
 11  2  1  0
  2  1  1  0
 18 15  1  0
 19 18  1  0
M  END
>  <smiles>  (190) 
NC(=O)[C@H]1CCN(C(=O)Cc2cc(C(F)(F)F)ccc2Cl)C1

>  <inchikey>  (190) 
HVQIWPCPNWMLEJ-QMMMGPOBSA-N

>  <alias>  (190) 
A4838a

$$$$
A4845a
     RDKit          3D

 23 24  0  0  0  0  0  0  0  0999 V2000
   10.2300   16.5310   18.9720 O   0  0  0  0  0  0  0  0  0  0  0  0
   10.6460   15.4010   19.2390 C   0  0  0  0  0  0  0  0  0  0  0  0
   11.1540   14.5860   18.3240 N   0  0  0  0  0  0  0  0  0  0  0  0
   10.6000   14.8620   20.6590 C   0  0  1  0  0  0  0  0  0  0  0  0
   11.6830   15.5010   21.5250 C   0  0  0  0  0  0  0  0  0  0  0  0
   11.6650   14.8990   22.9220 C   0  0  0  0  0  0  0  0  0  0  0  0
   10.2870   15.0120   23.5490 C   0  0  0  0  0  0  0  0  0  0  0  0
    9.2450   15.0830   21.3290 C   0  0  0  0  0  0  0  0  0  0  0  0
    9.2390   14.4860   22.6650 N   0  0  0  0  0  0  0  0  0  0  0  0
    8.3380   13.5930   23.1070 C   0  0  0  0  0  0  0  0  0  0  0  0
    7.4150   13.2020   22.4160 O   0  0  0  0  0  0  0  0  0  0  0  0
    8.5000   13.1450   24.5450 C   0  0  0  0  0  0  0  0  0  0  0  0
    7.2280   12.5030   25.0490 C   0  0  0  0  0  0  0  0  0  0  0  0
    7.0340   11.1280   25.0820 C   0  0  0  0  0  0  0  0  0  0  0  0
    8.3980    9.9420   24.5460 Br  0  0  0  0  0  0  0  0  0  0  0  0
    5.8560   10.5590   25.4960 C   0  0  0  0  0  0  0  0  0  0  0  0
    6.1680   13.3070   25.4590 C   0  0  0  0  0  0  0  0  0  0  0  0
    4.9770   12.7560   25.8850 C   0  0  0  0  0  0  0  0  0  0  0  0
    3.8990   13.4700   26.3220 O   0  0  0  0  0  0  0  0  0  0  0  0
    4.1210   14.8320   26.6810 C   0  0  0  0  0  0  0  0  0  0  0  0
    4.8290   11.3640   25.9100 C   0  0  0  0  0  0  0  0  0  0  0  0
    3.6830   10.8920   26.4610 O   0  0  0  0  0  0  0  0  0  0  0  0
    3.7780    9.6510   27.1140 C   0  0  0  0  0  0  0  0  0  0  0  0
 23 22  1  0
 22 21  1  0
 21 16  1  0
 16 14  2  0
 15 14  1  0
 14 13  1  0
 13 12  1  0
 12 10  1  0
 11 10  2  0
 10  9  1  0
  9  7  1  0
  7  6  1  0
  6  5  1  0
  5  4  1  0
  4  2  1  6
  3  2  1  0
  2  1  2  0
  8  4  1  0
  9  8  1  0
 17 13  2  0
 18 17  1  0
 21 18  2  0
 19 18  1  0
 20 19  1  0
M  END
>  <smiles>  (191) 
COc1cc(Br)c(CC(=O)N2CCC[C@H](C(N)=O)C2)cc1OC

>  <inchikey>  (191) 
ZBONZJXUIMFIHW-JTQLQIEISA-N

>  <alias>  (191) 
A4845a

$$$$
A4856a
     RDKit          3D

 20 21  0  0  0  0  0  0  0  0999 V2000
   10.3020   16.3880   19.3120 O   0  0  0  0  0  0  0  0  0  0  0  0
   10.8390   15.2870   19.4470 C   0  0  0  0  0  0  0  0  0  0  0  0
   11.2040   14.5340   18.4220 N   0  0  0  0  0  0  0  0  0  0  0  0
   11.0990   14.7050   20.8270 C   0  0  1  0  0  0  0  0  0  0  0  0
   11.9370   15.5920   21.7620 C   0  0  0  0  0  0  0  0  0  0  0  0
   11.6710   14.9750   23.1280 C   0  0  0  0  0  0  0  0  0  0  0  0
    9.8020   14.5260   21.6330 C   0  0  0  0  0  0  0  0  0  0  0  0
   10.2750   14.5220   23.0230 N   0  0  0  0  0  0  0  0  0  0  0  0
    9.5410   14.1540   24.0940 C   0  0  0  0  0  0  0  0  0  0  0  0
    9.9990   14.1700   25.2330 O   0  0  0  0  0  0  0  0  0  0  0  0
    8.1020   13.7570   23.8200 C   0  0  0  0  0  0  0  0  0  0  0  0
    7.6230   12.6290   24.7070 C   0  0  0  0  0  0  0  0  0  0  0  0
    7.9950   11.2930   24.5050 C   0  0  0  0  0  0  0  0  0  0  0  0
    9.2710   10.9790   23.3280 S   0  0  0  0  0  0  0  0  0  0  0  0
    9.3100    9.1680   23.2200 C   0  0  0  0  0  0  0  0  0  0  0  0
    6.6680   12.9170   25.6780 C   0  0  0  0  0  0  0  0  0  0  0  0
    6.0910   11.8880   26.3890 C   0  0  0  0  0  0  0  0  0  0  0  0
    4.7600   12.2930   27.6700 Br  0  0  0  0  0  0  0  0  0  0  0  0
    6.4330   10.5750   26.1800 C   0  0  0  0  0  0  0  0  0  0  0  0
    7.3870   10.2750   25.2280 C   0  0  0  0  0  0  0  0  0  0  0  0
 15 14  1  0
 14 13  1  0
 13 20  2  0
 20 19  1  0
 19 17  2  0
 18 17  1  0
 17 16  1  0
 16 12  2  0
 13 12  1  0
 12 11  1  0
 11  9  1  0
 10  9  2  0
  9  8  1  0
  8  6  1  0
  6  5  1  0
  5  4  1  0
  4  2  1  6
  3  2  1  0
  2  1  2  0
  7  4  1  0
  8  7  1  0
M  END
>  <smiles>  (192) 
CSc1ccc(Br)cc1CC(=O)N1CC[C@H](C(N)=O)C1

>  <inchikey>  (192) 
AZKVXQCFORNMSH-VIFPVBQESA-N

>  <alias>  (192) 
A4856a

$$$$
A4872a
     RDKit          3D

 23 25  0  0  0  0  0  0  0  0999 V2000
    9.7790    9.4840   23.5300 Cl  0  0  0  0  0  0  0  0  0  0  0  0
    8.5750   10.3170   24.4680 C   0  0  0  0  0  0  0  0  0  0  0  0
    7.5430    9.5940   25.0380 C   0  0  0  0  0  0  0  0  0  0  0  0
    6.5680   10.2520   25.7680 C   0  0  0  0  0  0  0  0  0  0  0  0
    8.6740   11.6860   24.6110 C   0  0  0  0  0  0  0  0  0  0  0  0
    7.6840   12.3330   25.3380 C   0  0  0  0  0  0  0  0  0  0  0  0
    6.6290   11.6260   25.9000 C   0  0  0  0  0  0  0  0  0  0  0  0
    5.5990   12.2680   26.5380 O   0  0  0  0  0  0  0  0  0  0  0  0
    5.3720   13.6200   26.0550 C   0  0  0  0  0  0  0  0  0  0  0  0
    6.6300   14.4720   26.1180 C   0  0  0  0  0  0  0  0  0  0  0  0
    7.7800   13.7570   25.5480 N   0  0  0  0  0  0  0  0  0  0  0  0
    8.8480   14.5620   24.9850 C   0  0  0  0  0  0  0  0  0  0  0  0
    8.7450   14.6360   23.4620 C   0  0  0  0  0  0  0  0  0  0  0  0
    7.6950   14.3740   22.8920 O   0  0  0  0  0  0  0  0  0  0  0  0
    9.8540   14.9990   22.7900 N   0  0  0  0  0  0  0  0  0  0  0  0
   11.2190   14.8430   23.3170 C   0  0  0  0  0  0  0  0  0  0  0  0
   12.1340   15.9480   22.8120 C   0  0  0  0  0  0  0  0  0  0  0  0
   12.1560   16.0270   21.2780 C   0  0  0  0  0  0  0  0  0  0  0  0
    9.7080   15.5900   21.4570 C   0  0  0  0  0  0  0  0  0  0  0  0
   10.9540   15.3380   20.6100 C   0  0  1  0  0  0  0  0  0  0  0  0
   10.6940   15.9030   19.2250 C   0  0  0  0  0  0  0  0  0  0  0  0
   10.4800   17.1060   19.0590 O   0  0  0  0  0  0  0  0  0  0  0  0
   10.6650   15.0200   18.2370 N   0  0  0  0  0  0  0  0  0  0  0  0
 23 21  1  0
 22 21  2  0
 20 21  1  6
 20 18  1  0
 18 17  1  0
 17 16  1  0
 16 15  1  0
 15 13  1  0
 14 13  2  0
 13 12  1  0
 12 11  1  0
 11 10  1  0
 10  9  1  0
  9  8  1  0
  8  7  1  0
  7  4  2  0
  4  3  1  0
  3  2  2  0
  2  1  1  0
  5  2  1  0
  6  5  2  0
  7  6  1  0
 11  6  1  0
 19 15  1  0
 20 19  1  0
M  END
>  <smiles>  (193) 
NC(=O)[C@H]1CCCN(C(=O)CN2CCOc3ccc(Cl)cc32)C1

>  <inchikey>  (193) 
IOHMNWTYJRXITL-NSHDSACASA-N

>  <alias>  (193) 
A4872a

$$$$
A4877a
     RDKit          3D

 20 22  0  0  0  0  0  0  0  0999 V2000
    7.6690   13.3590   22.4370 O   0  0  0  0  0  0  0  0  0  0  0  0
    8.5170   13.8100   23.1810 C   0  0  0  0  0  0  0  0  0  0  0  0
    9.3080   14.8330   22.8130 N   0  0  0  0  0  0  0  0  0  0  0  0
   10.3440   15.4570   23.6610 C   0  0  0  0  0  0  0  0  0  0  0  0
   11.7220   15.2720   23.0720 C   0  0  0  0  0  0  0  0  0  0  0  0
   11.7450   15.7720   21.6270 C   0  0  0  0  0  0  0  0  0  0  0  0
    9.2820   15.3270   21.4330 C   0  0  0  0  0  0  0  0  0  0  0  0
   10.6500   15.0690   20.8070 C   0  0  1  0  0  0  0  0  0  0  0  0
   10.6320   15.5690   19.3750 C   0  0  0  0  0  0  0  0  0  0  0  0
   10.3270   16.7360   19.1100 O   0  0  0  0  0  0  0  0  0  0  0  0
   10.9470   14.6860   18.4340 N   0  0  0  0  0  0  0  0  0  0  0  0
    8.6890   13.2930   24.6020 C   0  0  2  0  0  0  0  0  0  0  0  0
    8.3030   11.8550   24.5960 C   0  0  0  0  0  0  0  0  0  0  0  0
    9.1140   10.8980   23.8840 C   0  0  0  0  0  0  0  0  0  0  0  0
    8.6750    9.6800   24.0400 C   0  0  0  0  0  0  0  0  0  0  0  0
    7.2800    9.5980   25.0090 S   0  0  0  0  0  0  0  0  0  0  0  0
    7.2730   11.2710   25.2440 C   0  0  0  0  0  0  0  0  0  0  0  0
    6.2330   11.9860   26.0650 C   0  0  0  0  0  0  0  0  0  0  0  0
    6.1010   13.4200   25.5870 C   0  0  0  0  0  0  0  0  0  0  0  0
    7.6670   14.3110   25.7230 S   0  0  0  0  0  0  0  0  0  0  0  0
 11  9  1  0
 10  9  2  0
  8  9  1  6
  8  6  1  0
  6  5  1  0
  5  4  1  0
  4  3  1  0
  3  2  1  0
  2  1  2  0
 12  2  1  6
 12 20  1  0
 20 19  1  0
 19 18  1  0
 18 17  1  0
 17 16  1  0
 16 15  1  0
 15 14  2  0
 14 13  1  0
 17 13  2  0
 13 12  1  0
  7  3  1  0
  8  7  1  0
M  END
>  <smiles>  (194) 
NC(=O)[C@H]1CCCN(C(=O)[C@H]2SCCc3sccc32)C1

>  <inchikey>  (194) 
JGVWWHNRUSJGFG-CABZTGNLSA-N

>  <alias>  (194) 
A4877a

$$$$
A4877b
     RDKit          3D

 20 22  0  0  0  0  0  0  0  0999 V2000
    7.9510   13.3150   22.6250 O   0  0  0  0  0  0  0  0  0  0  0  0
    8.8520   13.7890   23.3050 C   0  0  0  0  0  0  0  0  0  0  0  0
    9.6000   14.8320   22.8950 N   0  0  0  0  0  0  0  0  0  0  0  0
   10.6270   15.5380   23.6790 C   0  0  0  0  0  0  0  0  0  0  0  0
   11.9920   15.3740   23.0330 C   0  0  0  0  0  0  0  0  0  0  0  0
   11.9570   15.8210   21.5630 C   0  0  0  0  0  0  0  0  0  0  0  0
    9.5160   15.2810   21.5020 C   0  0  0  0  0  0  0  0  0  0  0  0
   10.8620   15.0590   20.7980 C   0  0  1  0  0  0  0  0  0  0  0  0
   10.7490   15.5340   19.3630 C   0  0  0  0  0  0  0  0  0  0  0  0
   10.3930   16.6970   19.1000 O   0  0  0  0  0  0  0  0  0  0  0  0
   11.0060   14.6210   18.4340 N   0  0  0  0  0  0  0  0  0  0  0  0
    9.1220   13.2530   24.7100 C   0  0  2  0  0  0  0  0  0  0  0  0
    8.7910   11.7920   24.6830 C   0  0  0  0  0  0  0  0  0  0  0  0
    9.5530   10.8760   23.8890 C   0  0  0  0  0  0  0  0  0  0  0  0
    9.1630    9.6150   24.0540 C   0  0  0  0  0  0  0  0  0  0  0  0
    7.9100    9.4560   25.1130 S   0  0  0  0  0  0  0  0  0  0  0  0
    7.8460   11.1460   25.3960 C   0  0  0  0  0  0  0  0  0  0  0  0
    6.8820   11.7950   26.3480 C   0  0  0  0  0  0  0  0  0  0  0  0
    6.6560   13.2330   25.9180 C   0  0  0  0  0  0  0  0  0  0  0  0
    8.1830   14.2010   25.9620 S   0  0  0  0  0  0  0  0  0  0  0  0
 11  9  1  0
 10  9  2  0
  8  9  1  6
  8  6  1  0
  6  5  1  0
  5  4  1  0
  4  3  1  0
  3  2  1  0
  2  1  2  0
 12  2  1  6
 12 20  1  0
 20 19  1  0
 19 18  1  0
 18 17  1  0
 17 16  1  0
 16 15  1  0
 15 14  2  0
 14 13  1  0
 17 13  2  0
 13 12  1  0
  7  3  1  0
  8  7  1  0
M  END
>  <smiles>  (195) 
NC(=O)[C@H]1CCCN(C(=O)[C@H]2SCCc3sccc32)C1

>  <inchikey>  (195) 
JGVWWHNRUSJGFG-CABZTGNLSA-N

>  <alias>  (195) 
A4877b

$$$$
A4882a
     RDKit          3D

 21 22  0  0  0  0  0  0  0  0999 V2000
    9.5060   10.1240   23.7720 Br  0  0  0  0  0  0  0  0  0  0  0  0
    8.0540   10.7870   24.8090 C   0  0  0  0  0  0  0  0  0  0  0  0
    7.1100    9.8770   25.2380 C   0  0  0  0  0  0  0  0  0  0  0  0
    6.0620   10.3380   25.9950 C   0  0  0  0  0  0  0  0  0  0  0  0
    5.0840    9.4910   26.3970 F   0  0  0  0  0  0  0  0  0  0  0  0
    5.9640   11.6570   26.3290 C   0  0  0  0  0  0  0  0  0  0  0  0
    4.9000   12.0690   27.0550 F   0  0  0  0  0  0  0  0  0  0  0  0
    6.9010   12.5630   25.9070 C   0  0  0  0  0  0  0  0  0  0  0  0
    7.9740   12.1390   25.1220 C   0  0  0  0  0  0  0  0  0  0  0  0
    9.0120   13.1500   24.7030 C   0  0  0  0  0  0  0  0  0  0  0  0
    8.7360   13.7400   23.3320 C   0  0  0  0  0  0  0  0  0  0  0  0
    7.8300   13.3370   22.6300 O   0  0  0  0  0  0  0  0  0  0  0  0
    9.5850   14.7080   22.9230 N   0  0  0  0  0  0  0  0  0  0  0  0
   10.6740   15.2700   23.7390 C   0  0  0  0  0  0  0  0  0  0  0  0
   12.0130   15.1090   23.0410 C   0  0  0  0  0  0  0  0  0  0  0  0
   11.9480   15.6760   21.6190 C   0  0  0  0  0  0  0  0  0  0  0  0
    9.4930   15.2330   21.5580 C   0  0  0  0  0  0  0  0  0  0  0  0
   10.8170   14.9940   20.8260 C   0  0  1  0  0  0  0  0  0  0  0  0
   10.7160   15.5310   19.4090 C   0  0  0  0  0  0  0  0  0  0  0  0
   10.3610   16.6930   19.1920 O   0  0  0  0  0  0  0  0  0  0  0  0
   10.9620   14.6560   18.4440 N   0  0  0  0  0  0  0  0  0  0  0  0
 21 19  1  0
 20 19  2  0
 18 19  1  6
 18 16  1  0
 16 15  1  0
 15 14  1  0
 14 13  1  0
 13 11  1  0
 12 11  2  0
 11 10  1  0
 10  9  1  0
  9  8  2  0
  8  6  1  0
  7  6  1  0
  6  4  2  0
  5  4  1  0
  4  3  1  0
  3  2  2  0
  9  2  1  0
  2  1  1  0
 17 13  1  0
 18 17  1  0
M  END
>  <smiles>  (196) 
NC(=O)[C@H]1CCCN(C(=O)Cc2cc(F)c(F)cc2Br)C1

>  <inchikey>  (196) 
YKAJVIMAQQDNPC-QMMMGPOBSA-N

>  <alias>  (196) 
A4882a

$$$$
A4882b
     RDKit          3D

 21 22  0  0  0  0  0  0  0  0999 V2000
    9.6660   10.1310   23.7530 Br  0  0  0  0  0  0  0  0  0  0  0  0
    8.2330   10.7740   24.8170 C   0  0  0  0  0  0  0  0  0  0  0  0
    7.3040    9.8460   25.2560 C   0  0  0  0  0  0  0  0  0  0  0  0
    6.2660   10.2840   26.0320 C   0  0  0  0  0  0  0  0  0  0  0  0
    5.2400    9.4510   26.3280 F   0  0  0  0  0  0  0  0  0  0  0  0
    6.1730   11.5820   26.4030 C   0  0  0  0  0  0  0  0  0  0  0  0
    5.0910   11.9740   27.1130 F   0  0  0  0  0  0  0  0  0  0  0  0
    7.1010   12.5080   25.9860 C   0  0  0  0  0  0  0  0  0  0  0  0
    8.1550   12.1220   25.1580 C   0  0  0  0  0  0  0  0  0  0  0  0
    9.1820   13.1560   24.7410 C   0  0  0  0  0  0  0  0  0  0  0  0
    8.8950   13.7380   23.3700 C   0  0  0  0  0  0  0  0  0  0  0  0
    7.9750   13.3140   22.6760 O   0  0  0  0  0  0  0  0  0  0  0  0
    9.7240   14.7260   22.9480 N   0  0  0  0  0  0  0  0  0  0  0  0
   10.7820   15.3710   23.7470 C   0  0  0  0  0  0  0  0  0  0  0  0
   12.1360   15.2370   23.0520 C   0  0  0  0  0  0  0  0  0  0  0  0
   12.0540   15.7570   21.6140 C   0  0  0  0  0  0  0  0  0  0  0  0
    9.6090   15.2310   21.5780 C   0  0  0  0  0  0  0  0  0  0  0  0
   10.9370   15.0210   20.8400 C   0  0  1  0  0  0  0  0  0  0  0  0
   10.7970   15.5510   19.4230 C   0  0  0  0  0  0  0  0  0  0  0  0
   10.4190   16.7150   19.2140 O   0  0  0  0  0  0  0  0  0  0  0  0
   11.0200   14.6670   18.4590 N   0  0  0  0  0  0  0  0  0  0  0  0
 21 19  1  0
 20 19  2  0
 18 19  1  6
 18 16  1  0
 16 15  1  0
 15 14  1  0
 14 13  1  0
 13 11  1  0
 12 11  2  0
 11 10  1  0
 10  9  1  0
  9  8  2  0
  8  6  1  0
  7  6  1  0
  6  4  2  0
  5  4  1  0
  4  3  1  0
  3  2  2  0
  9  2  1  0
  2  1  1  0
 17 13  1  0
 18 17  1  0
M  END
>  <smiles>  (197) 
NC(=O)[C@H]1CCCN(C(=O)Cc2cc(F)c(F)cc2Br)C1

>  <inchikey>  (197) 
YKAJVIMAQQDNPC-QMMMGPOBSA-N

>  <alias>  (197) 
A4882b

$$$$
A4883a
     RDKit          3D

 20 21  0  0  0  0  0  0  0  0999 V2000
   10.2620   16.5860   19.2750 O   0  0  0  0  0  0  0  0  0  0  0  0
   10.6190   15.4250   19.5050 C   0  0  0  0  0  0  0  0  0  0  0  0
   10.9730   14.5670   18.5510 N   0  0  0  0  0  0  0  0  0  0  0  0
   10.6290   14.8730   20.9210 C   0  0  1  0  0  0  0  0  0  0  0  0
   11.7820   15.4520   21.7560 C   0  0  0  0  0  0  0  0  0  0  0  0
   11.7940   14.8390   23.1600 C   0  0  0  0  0  0  0  0  0  0  0  0
   10.4460   15.0390   23.8470 C   0  0  0  0  0  0  0  0  0  0  0  0
    9.3030   15.1590   21.6360 C   0  0  0  0  0  0  0  0  0  0  0  0
    9.3270   14.6000   22.9900 N   0  0  0  0  0  0  0  0  0  0  0  0
    8.4400   13.6150   23.3190 C   0  0  0  0  0  0  0  0  0  0  0  0
    7.6090   13.2050   22.5130 O   0  0  0  0  0  0  0  0  0  0  0  0
    8.5010   13.1600   24.5980 N   0  0  0  0  0  0  0  0  0  0  0  0
    7.7050   12.0870   25.0650 C   0  0  0  0  0  0  0  0  0  0  0  0
    7.9870   10.7820   24.6280 C   0  0  0  0  0  0  0  0  0  0  0  0
    9.3750   10.5450   23.5630 S   0  0  0  0  0  0  0  0  0  0  0  0
    9.3930    8.7480   23.3510 C   0  0  0  0  0  0  0  0  0  0  0  0
    6.6640   12.2760   25.9780 C   0  0  0  0  0  0  0  0  0  0  0  0
    5.9640   11.1610   26.4140 C   0  0  0  0  0  0  0  0  0  0  0  0
    6.3010    9.9180   25.9010 C   0  0  0  0  0  0  0  0  0  0  0  0
    7.2980    9.7130   25.0190 N   0  0  0  0  0  0  0  0  0  0  0  0
 16 15  1  0
 15 14  1  0
 14 20  2  0
 20 19  1  0
 19 18  2  0
 18 17  1  0
 17 13  2  0
 14 13  1  0
 13 12  1  0
 12 10  1  0
 11 10  2  0
 10  9  1  0
  9  7  1  0
  7  6  1  0
  6  5  1  0
  5  4  1  0
  4  2  1  6
  3  2  1  0
  2  1  2  0
  8  4  1  0
  9  8  1  0
M  END
>  <smiles>  (198) 
CSc1ncccc1NC(=O)N1CCC[C@H](C(N)=O)C1

>  <inchikey>  (198) 
FBDCWTCKYSQXKW-VIFPVBQESA-N

>  <alias>  (198) 
A4883a

$$$$
A4883b
     RDKit          3D

 20 21  0  0  0  0  0  0  0  0999 V2000
   10.3360   16.6070   19.2800 O   0  0  0  0  0  0  0  0  0  0  0  0
   10.7300   15.4440   19.4970 C   0  0  0  0  0  0  0  0  0  0  0  0
   11.1020   14.5910   18.5380 N   0  0  0  0  0  0  0  0  0  0  0  0
   10.7840   14.8900   20.9090 C   0  0  1  0  0  0  0  0  0  0  0  0
   11.9520   15.5060   21.7050 C   0  0  0  0  0  0  0  0  0  0  0  0
   12.0160   14.9250   23.1150 C   0  0  0  0  0  0  0  0  0  0  0  0
   10.6760   15.1110   23.8390 C   0  0  0  0  0  0  0  0  0  0  0  0
    9.4770   15.1570   21.6660 C   0  0  0  0  0  0  0  0  0  0  0  0
    9.5630   14.5950   23.0170 N   0  0  0  0  0  0  0  0  0  0  0  0
    8.7050   13.5870   23.3690 C   0  0  0  0  0  0  0  0  0  0  0  0
    7.8480   13.1680   22.5970 O   0  0  0  0  0  0  0  0  0  0  0  0
    8.8060   13.1340   24.6480 N   0  0  0  0  0  0  0  0  0  0  0  0
    8.0200   12.0460   25.1240 C   0  0  0  0  0  0  0  0  0  0  0  0
    8.2770   10.7510   24.6490 C   0  0  0  0  0  0  0  0  0  0  0  0
    9.6190   10.5350   23.5340 S   0  0  0  0  0  0  0  0  0  0  0  0
    9.6700    8.7310   23.3230 C   0  0  0  0  0  0  0  0  0  0  0  0
    7.0070   12.2100   26.0650 C   0  0  0  0  0  0  0  0  0  0  0  0
    6.3100   11.0940   26.4950 C   0  0  0  0  0  0  0  0  0  0  0  0
    6.6270    9.8710   25.9640 C   0  0  0  0  0  0  0  0  0  0  0  0
    7.5940    9.6740   25.0510 N   0  0  0  0  0  0  0  0  0  0  0  0
 16 15  1  0
 15 14  1  0
 14 20  2  0
 20 19  1  0
 19 18  2  0
 18 17  1  0
 17 13  2  0
 14 13  1  0
 13 12  1  0
 12 10  1  0
 11 10  2  0
 10  9  1  0
  9  7  1  0
  7  6  1  0
  6  5  1  0
  5  4  1  0
  4  2  1  6
  3  2  1  0
  2  1  2  0
  8  4  1  0
  9  8  1  0
M  END
>  <smiles>  (199) 
CSc1ncccc1NC(=O)N1CCC[C@H](C(N)=O)C1

>  <inchikey>  (199) 
FBDCWTCKYSQXKW-VIFPVBQESA-N

>  <alias>  (199) 
A4883b

$$$$
A4885a
     RDKit          3D

 21 22  0  0  0  0  0  0  0  0999 V2000
   10.2860   16.6750   19.1600 O   0  0  0  0  0  0  0  0  0  0  0  0
   10.5950   15.5230   19.4620 C   0  0  0  0  0  0  0  0  0  0  0  0
   10.9990   14.6370   18.5590 N   0  0  0  0  0  0  0  0  0  0  0  0
   10.5070   15.0320   20.8970 C   0  0  1  0  0  0  0  0  0  0  0  0
   11.4510   15.7990   21.8410 C   0  0  0  0  0  0  0  0  0  0  0  0
   11.2430   15.4060   23.3190 C   0  0  2  0  0  0  0  0  0  0  0  0
   11.7390   14.0050   23.6200 C   0  0  0  0  0  0  0  0  0  0  0  0
    9.7750   15.5340   23.6830 C   0  0  0  0  0  0  0  0  0  0  0  0
    9.0530   15.1880   21.3590 C   0  0  0  0  0  0  0  0  0  0  0  0
    8.9280   14.7760   22.7600 N   0  0  0  0  0  0  0  0  0  0  0  0
    8.0670   13.8040   23.1400 C   0  0  0  0  0  0  0  0  0  0  0  0
    7.2640   13.3180   22.3550 O   0  0  0  0  0  0  0  0  0  0  0  0
    8.1350   13.3920   24.6040 C   0  0  0  0  0  0  0  0  0  0  0  0
    7.3330   12.1530   24.9320 C   0  0  0  0  0  0  0  0  0  0  0  0
    7.7310   10.8540   24.5810 C   0  0  0  0  0  0  0  0  0  0  0  0
    9.1770   10.7070   23.5690 S   0  0  0  0  0  0  0  0  0  0  0  0
    9.3240    8.9320   23.2860 C   0  0  0  0  0  0  0  0  0  0  0  0
    6.1840   12.3080   25.7070 C   0  0  0  0  0  0  0  0  0  0  0  0
    5.4630   11.2150   26.1400 C   0  0  0  0  0  0  0  0  0  0  0  0
    5.8540    9.9480   25.7890 C   0  0  0  0  0  0  0  0  0  0  0  0
    6.9850    9.7550   25.0060 C   0  0  0  0  0  0  0  0  0  0  0  0
 17 16  1  0
 16 15  1  0
 15 21  2  0
 21 20  1  0
 20 19  2  0
 19 18  1  0
 18 14  2  0
 15 14  1  0
 14 13  1  0
 13 11  1  0
 12 11  2  0
 11 10  1  0
 10  8  1  0
  8  6  1  0
  6  7  1  6
  6  5  1  0
  5  4  1  0
  4  2  1  6
  3  2  1  0
  2  1  2  0
  9  4  1  0
 10  9  1  0
M  END
>  <smiles>  (200) 
CSc1ccccc1CC(=O)N1C[C@@H](C)C[C@H](C(N)=O)C1

>  <inchikey>  (200) 
KCUWPJSIVYQWJM-AAEUAGOBSA-N

>  <alias>  (200) 
A4885a

$$$$
A4885b
     RDKit          3D

 21 22  0  0  0  0  0  0  0  0999 V2000
   11.0370   14.6160   18.5530 O   0  0  0  0  0  0  0  0  0  0  0  0
   10.7340   15.4460   19.4440 C   0  0  0  0  0  0  0  0  0  0  0  0
   10.3430   16.6780   19.1700 N   0  0  0  0  0  0  0  0  0  0  0  0
   10.7130   15.0410   20.9090 C   0  0  1  0  0  0  0  0  0  0  0  0
   11.7110   15.8200   21.8040 C   0  0  0  0  0  0  0  0  0  0  0  0
   11.5790   15.4370   23.3000 C   0  0  2  0  0  0  0  0  0  0  0  0
   12.1060   14.0350   23.6140 C   0  0  0  0  0  0  0  0  0  0  0  0
   10.1400   15.5740   23.7370 C   0  0  0  0  0  0  0  0  0  0  0  0
    9.2880   15.1910   21.4550 C   0  0  0  0  0  0  0  0  0  0  0  0
    9.2580   14.7870   22.8640 N   0  0  0  0  0  0  0  0  0  0  0  0
    8.4390   13.7910   23.2900 C   0  0  0  0  0  0  0  0  0  0  0  0
    7.5800   13.2950   22.5660 O   0  0  0  0  0  0  0  0  0  0  0  0
    8.5960   13.3650   24.7410 C   0  0  0  0  0  0  0  0  0  0  0  0
    7.7730   12.1420   25.0990 C   0  0  0  0  0  0  0  0  0  0  0  0
    8.1220   10.8480   24.6870 C   0  0  0  0  0  0  0  0  0  0  0  0
    9.5250   10.6720   23.6250 S   0  0  0  0  0  0  0  0  0  0  0  0
    9.6110    8.8960   23.3120 C   0  0  0  0  0  0  0  0  0  0  0  0
    6.6610   12.2940   25.9330 C   0  0  0  0  0  0  0  0  0  0  0  0
    5.9180   11.1990   26.3470 C   0  0  0  0  0  0  0  0  0  0  0  0
    6.2710    9.9370   25.9390 C   0  0  0  0  0  0  0  0  0  0  0  0
    7.3730    9.7460   25.1110 C   0  0  0  0  0  0  0  0  0  0  0  0
 17 16  1  0
 16 15  1  0
 15 21  2  0
 21 20  1  0
 20 19  2  0
 19 18  1  0
 18 14  2  0
 15 14  1  0
 14 13  1  0
 13 11  1  0
 12 11  2  0
 11 10  1  0
 10  8  1  0
  8  6  1  0
  6  7  1  6
  6  5  1  0
  5  4  1  0
  4  2  1  6
  3  2  1  0
  2  1  2  0
  9  4  1  0
 10  9  1  0
M  END
>  <smiles>  (201) 
CSc1ccccc1CC(=O)N1C[C@@H](C)C[C@H](C(N)=O)C1

>  <inchikey>  (201) 
KCUWPJSIVYQWJM-AAEUAGOBSA-N

>  <alias>  (201) 
A4885b

$$$$
A4895a
     RDKit          3D

 21 22  0  0  0  0  0  0  0  0999 V2000
    9.5600   11.2340   23.3610 Cl  0  0  0  0  0  0  0  0  0  0  0  0
    8.1240   11.0940   24.3300 C   0  0  0  0  0  0  0  0  0  0  0  0
    7.5880    9.8410   24.5810 C   0  0  0  0  0  0  0  0  0  0  0  0
    6.4690    9.7260   25.3840 C   0  0  0  0  0  0  0  0  0  0  0  0
    5.9590   10.8980   25.8750 C   0  0  0  0  0  0  0  0  0  0  0  0
    4.8740   10.8600   26.6820 F   0  0  0  0  0  0  0  0  0  0  0  0
    6.4250   12.1060   25.6410 N   0  0  0  0  0  0  0  0  0  0  0  0
    7.5240   12.2130   24.8780 C   0  0  0  0  0  0  0  0  0  0  0  0
    8.1330   13.5930   24.6680 C   0  0  2  0  0  0  0  0  0  0  0  0
    7.3800   14.6840   25.4310 C   0  0  0  0  0  0  0  0  0  0  0  0
    8.1900   13.9580   23.1920 C   0  0  0  0  0  0  0  0  0  0  0  0
    7.3770   13.5110   22.4100 O   0  0  0  0  0  0  0  0  0  0  0  0
    9.1510   14.8340   22.7900 N   0  0  0  0  0  0  0  0  0  0  0  0
    9.2130   15.3020   21.3990 C   0  0  0  0  0  0  0  0  0  0  0  0
   10.6180   15.0830   20.8300 C   0  0  1  0  0  0  0  0  0  0  0  0
   10.6670   15.5730   19.3950 C   0  0  0  0  0  0  0  0  0  0  0  0
   10.3610   16.7380   19.1050 O   0  0  0  0  0  0  0  0  0  0  0  0
   10.9850   14.6650   18.4800 N   0  0  0  0  0  0  0  0  0  0  0  0
   11.6870   15.7600   21.6980 C   0  0  0  0  0  0  0  0  0  0  0  0
   11.5800   15.2500   23.1340 C   0  0  0  0  0  0  0  0  0  0  0  0
   10.1710   15.4330   23.6710 C   0  0  0  0  0  0  0  0  0  0  0  0
  9 10  1  1
 11  9  1  0
 12 11  2  0
 13 11  1  0
 13 21  1  0
 21 20  1  0
 20 19  1  0
 19 15  1  0
 15 16  1  6
 18 16  1  0
 17 16  2  0
 15 14  1  0
 14 13  1  0
  9  8  1  0
  8  7  2  0
  7  5  1  0
  6  5  1  0
  5  4  2  0
  4  3  1  0
  3  2  2  0
  8  2  1  0
  2  1  1  0
M  END
>  <smiles>  (202) 
C[C@H](C(=O)N1CCC[C@H](C(N)=O)C1)c1nc(F)ccc1Cl

>  <inchikey>  (202) 
QEUIIYABWPSJMA-IUCAKERBSA-N

>  <alias>  (202) 
A4895a

$$$$
A4895b
     RDKit          3D

 21 22  0  0  0  0  0  0  0  0999 V2000
    9.9990   11.0750   23.4480 Cl  0  0  0  0  0  0  0  0  0  0  0  0
    8.6130   10.9910   24.4800 C   0  0  0  0  0  0  0  0  0  0  0  0
    8.0710    9.7450   24.7400 C   0  0  0  0  0  0  0  0  0  0  0  0
    6.9890    9.6410   25.5930 C   0  0  0  0  0  0  0  0  0  0  0  0
    6.5260   10.8170   26.1220 C   0  0  0  0  0  0  0  0  0  0  0  0
    5.4150   10.7970   26.8960 F   0  0  0  0  0  0  0  0  0  0  0  0
    6.9990   12.0220   25.8900 N   0  0  0  0  0  0  0  0  0  0  0  0
    8.0560   12.1130   25.0630 C   0  0  0  0  0  0  0  0  0  0  0  0
    8.6710   13.4920   24.8420 C   0  0  2  0  0  0  0  0  0  0  0  0
    7.9650   14.5810   25.6680 C   0  0  0  0  0  0  0  0  0  0  0  0
    8.6370   13.8560   23.3610 C   0  0  0  0  0  0  0  0  0  0  0  0
    7.7730   13.3970   22.6300 O   0  0  0  0  0  0  0  0  0  0  0  0
    9.5470   14.7600   22.9090 N   0  0  0  0  0  0  0  0  0  0  0  0
    9.5100   15.2020   21.5060 C   0  0  0  0  0  0  0  0  0  0  0  0
   10.8760   15.0350   20.8360 C   0  0  1  0  0  0  0  0  0  0  0  0
   10.8220   15.5150   19.3970 C   0  0  0  0  0  0  0  0  0  0  0  0
   10.4500   16.6690   19.1220 O   0  0  0  0  0  0  0  0  0  0  0  0
   11.1260   14.6110   18.4670 N   0  0  0  0  0  0  0  0  0  0  0  0
   11.9530   15.7730   21.6470 C   0  0  0  0  0  0  0  0  0  0  0  0
   11.9620   15.2660   23.0920 C   0  0  0  0  0  0  0  0  0  0  0  0
   10.5920   15.4190   23.7180 C   0  0  0  0  0  0  0  0  0  0  0  0
  9 10  1  1
 11  9  1  0
 12 11  2  0
 13 11  1  0
 13 21  1  0
 21 20  1  0
 20 19  1  0
 19 15  1  0
 15 16  1  6
 18 16  1  0
 17 16  2  0
 15 14  1  0
 14 13  1  0
  9  8  1  0
  8  7  2  0
  7  5  1  0
  6  5  1  0
  5  4  2  0
  4  3  1  0
  3  2  2  0
  8  2  1  0
  2  1  1  0
M  END
>  <smiles>  (203) 
C[C@H](C(=O)N1CCC[C@H](C(N)=O)C1)c1nc(F)ccc1Cl

>  <inchikey>  (203) 
QEUIIYABWPSJMA-IUCAKERBSA-N

>  <alias>  (203) 
A4895b

$$$$
A4963a
     RDKit          3D

 23 25  0  0  0  0  0  0  0  0999 V2000
    9.3330   13.6440   25.0100 O   0  0  0  0  0  0  0  0  0  0  0  0
    8.9530   13.7860   23.8570 C   0  0  0  0  0  0  0  0  0  0  0  0
    7.6220   13.1980   23.4420 C   0  0  0  0  0  0  0  0  0  0  0  0
    7.2100   12.1840   24.4850 C   0  0  0  0  0  0  0  0  0  0  0  0
    7.6590   10.8650   24.4020 C   0  0  0  0  0  0  0  0  0  0  0  0
    8.7340   10.6740   23.5710 O   0  0  0  0  0  0  0  0  0  0  0  0
    9.2490    9.3490   23.4180 C   0  0  0  0  0  0  0  0  0  0  0  0
    7.0900    9.8680   25.1890 C   0  0  0  0  0  0  0  0  0  0  0  0
    6.1210   10.2050   26.1240 C   0  0  0  0  0  0  0  0  0  0  0  0
    5.7450   11.5230   26.2920 C   0  0  0  0  0  0  0  0  0  0  0  0
    6.2810   12.5070   25.4760 C   0  0  0  0  0  0  0  0  0  0  0  0
    9.6730   14.4400   22.9110 N   0  0  0  0  0  0  0  0  0  0  0  0
    9.2820   14.6900   21.5340 C   0  0  0  0  0  0  0  0  0  0  0  0
   10.5530   15.3220   20.9460 C   0  0  2  0  0  0  0  0  0  0  0  0
   10.7600   16.3130   22.1450 C   0  0  0  0  0  0  0  0  0  0  0  0
   10.6010   15.7100   19.4720 C   0  0  0  0  0  0  0  0  0  0  0  0
   10.3330   16.8570   19.1240 O   0  0  0  0  0  0  0  0  0  0  0  0
   10.9160   14.7580   18.6040 N   0  0  0  0  0  0  0  0  0  0  0  0
   11.5920   14.3840   21.6630 C   0  0  0  0  0  0  0  0  0  0  0  0
   11.0310   15.0210   22.9570 C   0  0  2  0  0  0  0  0  0  0  0  0
   11.7770   15.0690   24.2890 C   0  0  0  0  0  0  0  0  0  0  0  0
   11.0250   15.8910   25.1690 O   0  0  0  0  0  0  0  0  0  0  0  0
   11.4220   15.7290   26.5310 C   0  0  0  0  0  0  0  0  0  0  0  0
 23 22  1  0
 22 21  1  0
 20 21  1  1
 20 15  1  0
 15 14  1  0
 14 16  1  6
 18 16  1  0
 17 16  2  0
 14 13  1  0
 13 12  1  0
 20 12  1  0
 12  2  1  0
  2  1  2  0
  3  2  1  0
  4  3  1  0
  4 11  2  0
 11 10  1  0
 10  9  2  0
  9  8  1  0
  8  5  2  0
  5  4  1  0
  6  5  1  0
  7  6  1  0
 19 14  1  0
 20 19  1  0
M  END
>  <smiles>  (204) 
COC[C@]12C[C@](C(N)=O)(CN1C(=O)Cc1ccccc1OC)C2

>  <inchikey>  (204) 
UCCVWOVHIIFTLD-QAQDUYKDSA-N

>  <alias>  (204) 
A4963a

$$$$
A4963b
     RDKit          3D

 23 25  0  0  0  0  0  0  0  0999 V2000
    9.7470   13.5910   24.9230 O   0  0  0  0  0  0  0  0  0  0  0  0
    9.2800   13.8180   23.8090 C   0  0  0  0  0  0  0  0  0  0  0  0
    7.9140   13.2810   23.4330 C   0  0  0  0  0  0  0  0  0  0  0  0
    7.4680   12.2920   24.4860 C   0  0  0  0  0  0  0  0  0  0  0  0
    7.8620   10.9560   24.4150 C   0  0  0  0  0  0  0  0  0  0  0  0
    8.9280   10.7110   23.5860 O   0  0  0  0  0  0  0  0  0  0  0  0
    9.2560    9.3480   23.3060 C   0  0  0  0  0  0  0  0  0  0  0  0
    7.2930   10.0000   25.2550 C   0  0  0  0  0  0  0  0  0  0  0  0
    6.4020   10.3980   26.2410 C   0  0  0  0  0  0  0  0  0  0  0  0
    6.0750   11.7320   26.3840 C   0  0  0  0  0  0  0  0  0  0  0  0
    6.5980   12.6710   25.5080 C   0  0  0  0  0  0  0  0  0  0  0  0
    9.9460   14.5090   22.8620 N   0  0  0  0  0  0  0  0  0  0  0  0
    9.5240   14.7620   21.5010 C   0  0  0  0  0  0  0  0  0  0  0  0
   10.7870   15.4020   20.9020 C   0  0  2  0  0  0  0  0  0  0  0  0
   11.0280   16.3850   22.1030 C   0  0  0  0  0  0  0  0  0  0  0  0
   10.7480   15.8320   19.4540 C   0  0  0  0  0  0  0  0  0  0  0  0
   10.4390   16.9890   19.1660 O   0  0  0  0  0  0  0  0  0  0  0  0
   11.0520   14.9090   18.5470 N   0  0  0  0  0  0  0  0  0  0  0  0
   11.8180   14.4450   21.5840 C   0  0  0  0  0  0  0  0  0  0  0  0
   11.3020   15.0850   22.8970 C   0  0  2  0  0  0  0  0  0  0  0  0
   12.0900   15.1210   24.2030 C   0  0  0  0  0  0  0  0  0  0  0  0
   11.4160   16.0610   25.0310 O   0  0  0  0  0  0  0  0  0  0  0  0
   11.8390   15.9810   26.3890 C   0  0  0  0  0  0  0  0  0  0  0  0
 23 22  1  0
 22 21  1  0
 20 21  1  1
 20 15  1  0
 15 14  1  0
 14 16  1  6
 18 16  1  0
 17 16  2  0
 14 13  1  0
 13 12  1  0
 20 12  1  0
 12  2  1  0
  2  1  2  0
  3  2  1  0
  4  3  1  0
  4 11  2  0
 11 10  1  0
 10  9  2  0
  9  8  1  0
  8  5  2  0
  5  4  1  0
  6  5  1  0
  7  6  1  0
 19 14  1  0
 20 19  1  0
M  END
>  <smiles>  (205) 
COC[C@]12C[C@](C(N)=O)(CN1C(=O)Cc1ccccc1OC)C2

>  <inchikey>  (205) 
UCCVWOVHIIFTLD-QAQDUYKDSA-N

>  <alias>  (205) 
A4963b

$$$$
A4977a
     RDKit          3D

 24 26  0  0  0  0  0  0  0  0999 V2000
   10.2790   16.6640   19.1560 O   0  0  0  0  0  0  0  0  0  0  0  0
   10.6740   15.5200   19.4120 C   0  0  0  0  0  0  0  0  0  0  0  0
   11.0320   14.6680   18.4720 N   0  0  0  0  0  0  0  0  0  0  0  0
   10.6310   14.9720   20.8300 C   0  0  1  0  0  0  0  0  0  0  0  0
   11.7750   15.5470   21.6850 C   0  0  0  0  0  0  0  0  0  0  0  0
   11.6950   15.0170   23.1240 C   0  0  0  0  0  0  0  0  0  0  0  0
   10.3140   15.2970   23.7200 C   0  0  0  0  0  0  0  0  0  0  0  0
    9.2710   15.2800   21.4790 C   0  0  0  0  0  0  0  0  0  0  0  0
    9.2330   14.7790   22.8560 N   0  0  0  0  0  0  0  0  0  0  0  0
    8.3550   13.7760   23.1950 C   0  0  0  0  0  0  0  0  0  0  0  0
    7.5280   13.3490   22.4030 O   0  0  0  0  0  0  0  0  0  0  0  0
    8.4030   13.3390   24.4820 N   0  0  0  0  0  0  0  0  0  0  0  0
    7.5820   12.2610   24.9360 C   0  0  0  0  0  0  0  0  0  0  0  0
    7.9270   10.9340   24.6310 C   0  0  0  0  0  0  0  0  0  0  0  0
    9.3700   10.6780   23.6380 S   0  0  0  0  0  0  0  0  0  0  0  0
    9.3980    8.9000   23.4030 C   0  0  0  0  0  0  0  0  0  0  0  0
    6.4140   12.5360   25.7150 C   0  0  0  0  0  0  0  0  0  0  0  0
    5.6510   11.4450   26.2000 C   0  0  0  0  0  0  0  0  0  0  0  0
    6.0470   10.1230   25.8800 C   0  0  0  0  0  0  0  0  0  0  0  0
    7.1470    9.8770   25.1030 C   0  0  0  0  0  0  0  0  0  0  0  0
    5.9400   13.8370   26.0070 C   0  0  0  0  0  0  0  0  0  0  0  0
    4.7860   14.0000   26.7230 C   0  0  0  0  0  0  0  0  0  0  0  0
    4.1110   12.8730   27.1690 C   0  0  0  0  0  0  0  0  0  0  0  0
    4.5080   11.6250   26.9470 N   0  0  0  0  0  0  0  0  0  0  0  0
 16 15  1  0
 15 14  1  0
 14 20  2  0
 20 19  1  0
 19 18  2  0
 18 24  1  0
 24 23  2  0
 23 22  1  0
 22 21  2  0
 21 17  1  0
 18 17  1  0
 17 13  2  0
 14 13  1  0
 13 12  1  0
 12 10  1  0
 11 10  2  0
 10  9  1  0
  9  7  1  0
  7  6  1  0
  6  5  1  0
  5  4  1  0
  4  2  1  6
  3  2  1  0
  2  1  2  0
  8  4  1  0
  9  8  1  0
M  END
>  <smiles>  (206) 
CSc1ccc2ncccc2c1NC(=O)N1CCC[C@H](C(N)=O)C1

>  <inchikey>  (206) 
CYBVNZOMOMLBBC-NSHDSACASA-N

>  <alias>  (206) 
A4977a

$$$$
A4977b
     RDKit          3D

 24 26  0  0  0  0  0  0  0  0999 V2000
   10.3550   16.6530   19.2350 O   0  0  0  0  0  0  0  0  0  0  0  0
   10.7500   15.5030   19.4570 C   0  0  0  0  0  0  0  0  0  0  0  0
   11.0510   14.6510   18.4870 N   0  0  0  0  0  0  0  0  0  0  0  0
   10.8130   14.9580   20.8760 C   0  0  1  0  0  0  0  0  0  0  0  0
   11.9590   15.6070   21.6760 C   0  0  0  0  0  0  0  0  0  0  0  0
   11.9730   15.0940   23.1270 C   0  0  0  0  0  0  0  0  0  0  0  0
   10.6220   15.3260   23.7970 C   0  0  0  0  0  0  0  0  0  0  0  0
    9.4930   15.2440   21.6000 C   0  0  0  0  0  0  0  0  0  0  0  0
    9.5380   14.7550   22.9820 N   0  0  0  0  0  0  0  0  0  0  0  0
    8.6840   13.7540   23.3680 C   0  0  0  0  0  0  0  0  0  0  0  0
    7.8390   13.2960   22.6100 O   0  0  0  0  0  0  0  0  0  0  0  0
    8.7960   13.3260   24.6540 N   0  0  0  0  0  0  0  0  0  0  0  0
    7.9950   12.2390   25.1240 C   0  0  0  0  0  0  0  0  0  0  0  0
    8.3080   10.9120   24.7570 C   0  0  0  0  0  0  0  0  0  0  0  0
    9.6940   10.6530   23.6790 S   0  0  0  0  0  0  0  0  0  0  0  0
    9.7180    8.8750   23.4540 C   0  0  0  0  0  0  0  0  0  0  0  0
    6.8750   12.5050   25.9730 C   0  0  0  0  0  0  0  0  0  0  0  0
    6.1110   11.4140   26.4520 C   0  0  0  0  0  0  0  0  0  0  0  0
    6.4670   10.0950   26.0690 C   0  0  0  0  0  0  0  0  0  0  0  0
    7.5260    9.8530   25.2290 C   0  0  0  0  0  0  0  0  0  0  0  0
    6.4410   13.8080   26.3270 C   0  0  0  0  0  0  0  0  0  0  0  0
    5.3250   13.9690   27.1030 C   0  0  0  0  0  0  0  0  0  0  0  0
    4.6440   12.8340   27.5390 C   0  0  0  0  0  0  0  0  0  0  0  0
    5.0010   11.5900   27.2480 N   0  0  0  0  0  0  0  0  0  0  0  0
 16 15  1  0
 15 14  1  0
 14 20  2  0
 20 19  1  0
 19 18  2  0
 18 24  1  0
 24 23  2  0
 23 22  1  0
 22 21  2  0
 21 17  1  0
 18 17  1  0
 17 13  2  0
 14 13  1  0
 13 12  1  0
 12 10  1  0
 11 10  2  0
 10  9  1  0
  9  7  1  0
  7  6  1  0
  6  5  1  0
  5  4  1  0
  4  2  1  6
  3  2  1  0
  2  1  2  0
  8  4  1  0
  9  8  1  0
M  END
>  <smiles>  (207) 
CSc1ccc2ncccc2c1NC(=O)N1CCC[C@H](C(N)=O)C1

>  <inchikey>  (207) 
CYBVNZOMOMLBBC-NSHDSACASA-N

>  <alias>  (207) 
A4977b

$$$$
A4935a
     RDKit          3D

 19 20  0  0  0  0  0  0  0  0999 V2000
   10.3810   16.6330   19.1670 O   0  0  0  0  0  0  0  0  0  0  0  0
   10.7400   15.4950   19.4790 C   0  0  0  0  0  0  0  0  0  0  0  0
   11.1450   14.6080   18.5910 N   0  0  0  0  0  0  0  0  0  0  0  0
   10.7160   15.0300   20.9260 C   0  0  1  0  0  0  0  0  0  0  0  0
   11.7260   15.7980   21.7950 C   0  0  0  0  0  0  0  0  0  0  0  0
   11.7040   15.3070   23.2550 C   0  0  0  0  0  0  0  0  0  0  0  0
   10.2960   15.3790   23.8170 C   0  0  0  0  0  0  0  0  0  0  0  0
    9.3280   15.1820   21.5540 C   0  0  0  0  0  0  0  0  0  0  0  0
    9.3390   14.6860   22.9340 N   0  0  0  0  0  0  0  0  0  0  0  0
    8.4650   13.7310   23.3350 C   0  0  0  0  0  0  0  0  0  0  0  0
    7.6820   13.2050   22.5620 O   0  0  0  0  0  0  0  0  0  0  0  0
    8.4720   13.3720   24.8090 C   0  0  0  0  0  0  0  0  0  0  0  0
    7.7800   12.0830   25.1750 C   0  0  0  0  0  0  0  0  0  0  0  0
    6.7500   12.0100   26.0640 C   0  0  0  0  0  0  0  0  0  0  0  0
    6.1770   10.4240   26.2580 S   0  0  0  0  0  0  0  0  0  0  0  0
    7.3320    9.7890   25.1640 C   0  0  0  0  0  0  0  0  0  0  0  0
    8.1160   10.7680   24.6580 C   0  0  0  0  0  0  0  0  0  0  0  0
    9.4000   10.5550   23.4900 S   0  0  0  0  0  0  0  0  0  0  0  0
    9.4280    8.7860   23.2190 C   0  0  0  0  0  0  0  0  0  0  0  0
 19 18  1  0
 18 17  1  0
 17 16  2  0
 16 15  1  0
 15 14  1  0
 14 13  2  0
 17 13  1  0
 13 12  1  0
 12 10  1  0
 11 10  2  0
 10  9  1  0
  9  7  1  0
  7  6  1  0
  6  5  1  0
  5  4  1  0
  4  2  1  6
  3  2  1  0
  2  1  2  0
  8  4  1  0
  9  8  1  0
M  END
>  <smiles>  (208) 
CSc1cscc1CC(=O)N1CCC[C@H](C(N)=O)C1

>  <inchikey>  (208) 
ZVMJXFQDYDQURV-VIFPVBQESA-N

>  <alias>  (208) 
A4935a

$$$$
A4943a
     RDKit          3D

 21 23  0  0  0  0  0  0  0  0999 V2000
    7.1340   13.5700   22.1050 O   0  0  0  0  0  0  0  0  0  0  0  0
    7.8980   13.9360   22.9780 C   0  0  0  0  0  0  0  0  0  0  0  0
    8.8490   14.8900   22.7510 N   0  0  0  0  0  0  0  0  0  0  0  0
    9.8000   15.4690   23.7180 C   0  0  0  0  0  0  0  0  0  0  0  0
   11.2420   15.2550   23.2700 C   0  0  0  0  0  0  0  0  0  0  0  0
   11.4420   15.7920   21.8350 C   0  0  0  0  0  0  0  0  0  0  0  0
    9.0060   15.4240   21.3920 C   0  0  0  0  0  0  0  0  0  0  0  0
   10.4220   15.1270   20.8860 C   0  0  1  0  0  0  0  0  0  0  0  0
   10.5620   15.6160   19.4530 C   0  0  0  0  0  0  0  0  0  0  0  0
   10.2830   16.7840   19.1420 O   0  0  0  0  0  0  0  0  0  0  0  0
   10.9000   14.6840   18.5560 N   0  0  0  0  0  0  0  0  0  0  0  0
    7.7330   13.3620   24.3840 C   0  0  2  0  0  0  0  0  0  0  0  0
    7.9840   11.8660   24.2990 C   0  0  0  0  0  0  0  0  0  0  0  0
    8.9910   11.3950   23.4560 C   0  0  0  0  0  0  0  0  0  0  0  0
    9.1960   10.0360   23.2560 C   0  0  0  0  0  0  0  0  0  0  0  0
    8.3960    9.1250   23.9070 C   0  0  0  0  0  0  0  0  0  0  0  0
    7.4300    9.5600   24.7940 C   0  0  0  0  0  0  0  0  0  0  0  0
    7.2170   10.9240   24.9980 C   0  0  0  0  0  0  0  0  0  0  0  0
    5.9630   11.3090   26.1990 S   0  0  0  0  0  0  0  0  0  0  0  0
    6.0250   13.1050   26.2790 C   0  0  0  0  0  0  0  0  0  0  0  0
    6.3030   13.6740   24.8920 C   0  0  0  0  0  0  0  0  0  0  0  0
 11  9  1  0
 10  9  2  0
  8  9  1  6
  8  6  1  0
  6  5  1  0
  5  4  1  0
  4  3  1  0
  3  2  1  0
  2  1  2  0
 12  2  1  6
 12 21  1  0
 21 20  1  0
 20 19  1  0
 19 18  1  0
 18 17  1  0
 17 16  2  0
 16 15  1  0
 15 14  2  0
 14 13  1  0
 18 13  2  0
 13 12  1  0
  7  3  1  0
  8  7  1  0
M  END
>  <smiles>  (209) 
NC(=O)[C@H]1CCCN(C(=O)[C@H]2CCSc3ccccc32)C1

>  <inchikey>  (209) 
CIPSLIIOJPGGQL-AAEUAGOBSA-N

>  <alias>  (209) 
A4943a

$$$$
A4943b
     RDKit          3D

 21 23  0  0  0  0  0  0  0  0999 V2000
    7.3440   13.4930   22.3240 O   0  0  0  0  0  0  0  0  0  0  0  0
    8.1280   13.9080   23.1540 C   0  0  0  0  0  0  0  0  0  0  0  0
    9.0140   14.9070   22.8750 N   0  0  0  0  0  0  0  0  0  0  0  0
    9.9670   15.5500   23.7860 C   0  0  0  0  0  0  0  0  0  0  0  0
   11.3900   15.3920   23.2930 C   0  0  0  0  0  0  0  0  0  0  0  0
   11.5410   15.8760   21.8350 C   0  0  0  0  0  0  0  0  0  0  0  0
    9.0950   15.4160   21.5010 C   0  0  0  0  0  0  0  0  0  0  0  0
   10.5050   15.1740   20.9340 C   0  0  1  0  0  0  0  0  0  0  0  0
   10.5910   15.6560   19.4960 C   0  0  0  0  0  0  0  0  0  0  0  0
   10.2310   16.8110   19.1850 O   0  0  0  0  0  0  0  0  0  0  0  0
   10.8920   14.7180   18.5950 N   0  0  0  0  0  0  0  0  0  0  0  0
    8.0810   13.3430   24.5710 C   0  0  2  0  0  0  0  0  0  0  0  0
    8.2610   11.8410   24.4320 C   0  0  0  0  0  0  0  0  0  0  0  0
    9.2490   11.3700   23.5690 C   0  0  0  0  0  0  0  0  0  0  0  0
    9.4130   10.0080   23.3480 C   0  0  0  0  0  0  0  0  0  0  0  0
    8.6200    9.1000   23.9990 C   0  0  0  0  0  0  0  0  0  0  0  0
    7.6670    9.5350   24.8970 C   0  0  0  0  0  0  0  0  0  0  0  0
    7.4780   10.9020   25.1140 C   0  0  0  0  0  0  0  0  0  0  0  0
    6.2490   11.2890   26.3110 S   0  0  0  0  0  0  0  0  0  0  0  0
    6.3050   13.0710   26.4670 C   0  0  0  0  0  0  0  0  0  0  0  0
    6.6620   13.7090   25.1340 C   0  0  0  0  0  0  0  0  0  0  0  0
 11  9  1  0
 10  9  2  0
  8  9  1  6
  8  6  1  0
  6  5  1  0
  5  4  1  0
  4  3  1  0
  3  2  1  0
  2  1  2  0
 12  2  1  6
 12 21  1  0
 21 20  1  0
 20 19  1  0
 19 18  1  0
 18 17  1  0
 17 16  2  0
 16 15  1  0
 15 14  2  0
 14 13  1  0
 18 13  2  0
 13 12  1  0
  7  3  1  0
  8  7  1  0
M  END
>  <smiles>  (210) 
NC(=O)[C@H]1CCCN(C(=O)[C@H]2CCSc3ccccc32)C1

>  <inchikey>  (210) 
CIPSLIIOJPGGQL-AAEUAGOBSA-N

>  <alias>  (210) 
A4943b

$$$$
A4947a
     RDKit          3D

 20 22  0  0  0  0  0  0  0  0999 V2000
    9.9880   16.5460   18.8740 O   0  0  0  0  0  0  0  0  0  0  0  0
   10.5480   15.5410   19.3020 C   0  0  0  0  0  0  0  0  0  0  0  0
   11.0560   14.6170   18.4960 N   0  0  0  0  0  0  0  0  0  0  0  0
   10.6030   15.2850   20.8010 C   0  0  2  0  0  0  0  0  0  0  0  0
   11.6360   15.9950   21.6420 C   0  0  0  0  0  0  0  0  0  0  0  0
   11.6440   14.4920   21.5690 C   0  0  1  0  0  0  0  0  0  0  0  0
   10.9350   13.7660   22.7070 C   0  0  0  0  0  0  0  0  0  0  0  0
    9.2560   15.0660   21.4830 C   0  0  0  0  0  0  0  0  0  0  0  0
    9.5650   14.2910   22.6850 N   0  0  0  0  0  0  0  0  0  0  0  0
    8.5970   14.1040   23.6140 C   0  0  0  0  0  0  0  0  0  0  0  0
    7.4430   14.4970   23.4500 O   0  0  0  0  0  0  0  0  0  0  0  0
    8.9840   13.3390   24.8650 C   0  0  0  0  0  0  0  0  0  0  0  0
    7.9220   12.3130   25.2030 C   0  0  0  0  0  0  0  0  0  0  0  0
    7.9710   11.0030   24.7100 C   0  0  0  0  0  0  0  0  0  0  0  0
    9.1440   10.6710   23.4230 S   0  0  0  0  0  0  0  0  0  0  0  0
    9.1680    8.8760   23.3480 C   0  0  0  0  0  0  0  0  0  0  0  0
    6.9210   12.6370   26.1210 C   0  0  0  0  0  0  0  0  0  0  0  0
    6.0410   11.6740   26.5860 C   0  0  0  0  0  0  0  0  0  0  0  0
    6.1310   10.3770   26.1290 C   0  0  0  0  0  0  0  0  0  0  0  0
    7.0880   10.0350   25.1860 C   0  0  0  0  0  0  0  0  0  0  0  0
 16 15  1  0
 15 14  1  0
 14 20  2  0
 20 19  1  0
 19 18  2  0
 18 17  1  0
 17 13  2  0
 14 13  1  0
 13 12  1  0
 12 10  1  0
 11 10  2  0
 10  9  1  0
  9  7  1  0
  6  7  1  1
  6  5  1  0
  5  4  1  0
  6  4  1  0
  4  2  1  6
  3  2  1  0
  2  1  2  0
  8  4  1  0
  9  8  1  0
M  END
>  <smiles>  (211) 
CSc1ccccc1CC(=O)N1C[C@@H]2C[C@]2(C(N)=O)C1

>  <inchikey>  (211) 
AOZJVCFGWITQNR-NHYWBVRUSA-N

>  <alias>  (211) 
A4947a

$$$$
A4959a
     RDKit          3D

 22 24  0  0  0  0  0  0  0  0999 V2000
    7.6190   13.5470   22.4760 O   0  0  0  0  0  0  0  0  0  0  0  0
    8.6100   13.8510   23.1180 C   0  0  0  0  0  0  0  0  0  0  0  0
    9.2850   15.0000   22.8670 N   0  0  0  0  0  0  0  0  0  0  0  0
   10.4170   15.4310   23.6990 C   0  0  0  0  0  0  0  0  0  0  0  0
   11.7440   15.1830   23.0110 C   0  0  0  0  0  0  0  0  0  0  0  0
   11.7290   15.7330   21.5920 C   0  0  0  0  0  0  0  0  0  0  0  0
    9.2890   15.5400   21.5090 C   0  0  0  0  0  0  0  0  0  0  0  0
   10.5750   15.1270   20.7950 C   0  0  1  0  0  0  0  0  0  0  0  0
   10.5730   15.6180   19.3570 C   0  0  0  0  0  0  0  0  0  0  0  0
   10.2990   16.7810   19.0810 O   0  0  0  0  0  0  0  0  0  0  0  0
   10.8660   14.7060   18.4510 N   0  0  0  0  0  0  0  0  0  0  0  0
    9.0990   13.0900   24.1310 N   0  0  0  0  0  0  0  0  0  0  0  0
    8.5600   11.8520   24.5250 C   0  0  0  0  0  0  0  0  0  0  0  0
    7.4170   11.8310   25.3340 C   0  0  0  0  0  0  0  0  0  0  0  0
    6.8390   13.3940   25.9420 S   0  0  0  0  0  0  0  0  0  0  0  0
    5.5670   13.1130   27.2300 C   0  0  0  0  0  0  0  0  0  0  0  0
    4.4900   12.0990   27.0030 C   0  0  0  0  0  0  0  0  0  0  0  0
    5.4930   11.8870   28.0860 C   0  0  0  0  0  0  0  0  0  0  0  0
    6.8010   10.6170   25.6200 C   0  0  0  0  0  0  0  0  0  0  0  0
    7.3320    9.4400   25.1220 C   0  0  0  0  0  0  0  0  0  0  0  0
    8.4730    9.4580   24.3530 C   0  0  0  0  0  0  0  0  0  0  0  0
    9.0930   10.6570   24.0520 C   0  0  0  0  0  0  0  0  0  0  0  0
 11  9  1  0
 10  9  2  0
  8  9  1  6
  8  6  1  0
  6  5  1  0
  5  4  1  0
  4  3  1  0
  3  2  1  0
  2  1  2  0
 12  2  1  0
 13 12  1  0
 13 22  1  0
 22 21  2  0
 21 20  1  0
 20 19  2  0
 19 14  1  0
 14 13  2  0
 15 14  1  0
 16 15  1  0
 16 18  1  0
 18 17  1  0
 17 16  1  0
  7  3  1  0
  8  7  1  0
M  END
>  <smiles>  (212) 
NC(=O)[C@H]1CCCN(C(=O)Nc2ccccc2SC2CC2)C1

>  <inchikey>  (212) 
NRHXRDKTQQQCFH-NSHDSACASA-N

>  <alias>  (212) 
A4959a

$$$$
A4959b
     RDKit          3D

 22 24  0  0  0  0  0  0  0  0999 V2000
    7.9380   13.4640   22.6080 O   0  0  0  0  0  0  0  0  0  0  0  0
    8.9290   13.8460   23.2370 C   0  0  0  0  0  0  0  0  0  0  0  0
    9.5730   15.0140   22.9340 N   0  0  0  0  0  0  0  0  0  0  0  0
   10.6630   15.6120   23.7260 C   0  0  0  0  0  0  0  0  0  0  0  0
   12.0090   15.3530   23.0650 C   0  0  0  0  0  0  0  0  0  0  0  0
   11.9840   15.7830   21.5860 C   0  0  0  0  0  0  0  0  0  0  0  0
    9.5260   15.4360   21.5340 C   0  0  0  0  0  0  0  0  0  0  0  0
   10.8420   15.0920   20.8290 C   0  0  1  0  0  0  0  0  0  0  0  0
   10.7160   15.6210   19.4110 C   0  0  0  0  0  0  0  0  0  0  0  0
   10.3650   16.7890   19.1910 O   0  0  0  0  0  0  0  0  0  0  0  0
   10.9690   14.7460   18.4510 N   0  0  0  0  0  0  0  0  0  0  0  0
    9.4180   13.1570   24.2960 N   0  0  0  0  0  0  0  0  0  0  0  0
    8.8530   11.9240   24.6730 C   0  0  0  0  0  0  0  0  0  0  0  0
    7.7390   11.9170   25.5210 C   0  0  0  0  0  0  0  0  0  0  0  0
    7.1540   13.4620   26.1610 S   0  0  0  0  0  0  0  0  0  0  0  0
    5.8550   12.9600   27.3480 C   0  0  0  0  0  0  0  0  0  0  0  0
    4.8350   14.0200   27.6370 C   0  0  0  0  0  0  0  0  0  0  0  0
    4.4630   12.8410   26.8030 C   0  0  0  0  0  0  0  0  0  0  0  0
    7.0960   10.7160   25.8080 C   0  0  0  0  0  0  0  0  0  0  0  0
    7.5530    9.5380   25.2360 C   0  0  0  0  0  0  0  0  0  0  0  0
    8.6620    9.5430   24.4110 C   0  0  0  0  0  0  0  0  0  0  0  0
    9.3170   10.7270   24.1270 C   0  0  0  0  0  0  0  0  0  0  0  0
 11  9  1  0
 10  9  2  0
  8  9  1  6
  8  6  1  0
  6  5  1  0
  5  4  1  0
  4  3  1  0
  3  2  1  0
  2  1  2  0
 12  2  1  0
 13 12  1  0
 13 22  1  0
 22 21  2  0
 21 20  1  0
 20 19  2  0
 19 14  1  0
 14 13  2  0
 15 14  1  0
 16 15  1  0
 16 18  1  0
 18 17  1  0
 17 16  1  0
  7  3  1  0
  8  7  1  0
M  END
>  <smiles>  (213) 
NC(=O)[C@H]1CCCN(C(=O)Nc2ccccc2SC2CC2)C1

>  <inchikey>  (213) 
NRHXRDKTQQQCFH-NSHDSACASA-N

>  <alias>  (213) 
A4959b

$$$$
A4992a
     RDKit          3D

 19 21  0  0  0  0  0  0  0  0999 V2000
   10.3920   16.7080   19.2270 O   0  0  0  0  0  0  0  0  0  0  0  0
   10.7460   15.5440   19.4730 C   0  0  0  0  0  0  0  0  0  0  0  0
   11.1030   14.6750   18.5320 N   0  0  0  0  0  0  0  0  0  0  0  0
   10.7860   15.0210   20.8990 C   0  0  2  0  0  0  0  0  0  0  0  0
    9.3690   14.9670   21.4590 C   0  0  0  0  0  0  0  0  0  0  0  0
   11.6900   15.8260   21.8460 C   0  0  0  0  0  0  0  0  0  0  0  0
   11.7210   15.1630   23.2310 C   0  0  2  0  0  0  0  0  0  0  0  0
   10.5170   14.3770   23.6400 C   0  0  1  0  0  0  0  0  0  0  0  0
   10.8360   15.6670   24.3320 C   0  0  0  0  0  0  0  0  0  0  0  0
    9.3300   14.2780   22.7540 N   0  0  0  0  0  0  0  0  0  0  0  0
    8.1980   13.6090   23.0850 C   0  0  0  0  0  0  0  0  0  0  0  0
    7.2800   13.4600   22.2820 O   0  0  0  0  0  0  0  0  0  0  0  0
    8.0920   13.0380   24.4810 C   0  0  0  0  0  0  0  0  0  0  0  0
    8.3300   11.5530   24.4150 C   0  0  0  0  0  0  0  0  0  0  0  0
    9.2320   10.9240   23.5620 C   0  0  0  0  0  0  0  0  0  0  0  0
    7.7050   10.5020   25.0790 C   0  0  0  0  0  0  0  0  0  0  0  0
    8.1550    9.3200   24.6850 N   0  0  0  0  0  0  0  0  0  0  0  0
    9.0880    9.6070   23.7480 N   0  0  0  0  0  0  0  0  0  0  0  0
    9.7700    8.5280   23.0450 C   0  0  0  0  0  0  0  0  0  0  0  0
 19 18  1  0
 18 15  1  0
 15 14  2  0
 14 13  1  0
 13 11  1  0
 12 11  2  0
 11 10  1  0
 10  5  1  0
  5  4  1  0
  4  2  1  6
  3  2  1  0
  2  1  2  0
  6  4  1  0
  7  6  1  6
  7  9  1  0
  8  9  1  1
  8  7  1  0
 10  8  1  0
 16 14  1  0
 17 16  2  0
 18 17  1  0
M  END
>  <smiles>  (214) 
Cn1cc(CC(=O)N2C[C@@H](C(N)=O)C[C@H]3C[C@H]32)cn1

>  <inchikey>  (214) 
RWVQDFULFQCOIU-GARJFASQSA-N

>  <alias>  (214) 
A4992a

$$$$
A5015a
     RDKit          3D

 20 21  0  0  0  0  0  0  0  0999 V2000
   10.3120   16.7810   19.0700 O   0  0  0  0  0  0  0  0  0  0  0  0
   10.6570   15.6230   19.3330 C   0  0  0  0  0  0  0  0  0  0  0  0
   10.9320   14.7160   18.4010 N   0  0  0  0  0  0  0  0  0  0  0  0
   10.7410   15.1340   20.7680 C   0  0  1  0  0  0  0  0  0  0  0  0
   11.9390   15.7420   21.5230 C   0  0  0  0  0  0  0  0  0  0  0  0
   11.9780   15.2620   22.9860 C   0  0  0  0  0  0  0  0  0  0  0  0
   10.6350   15.5110   23.6670 C   0  0  0  0  0  0  0  0  0  0  0  0
    9.4440   15.4680   21.5090 C   0  0  0  0  0  0  0  0  0  0  0  0
    9.5430   14.9330   22.8670 N   0  0  0  0  0  0  0  0  0  0  0  0
    8.7990   13.8770   23.2380 C   0  0  0  0  0  0  0  0  0  0  0  0
    7.8930   13.4360   22.5410 O   0  0  0  0  0  0  0  0  0  0  0  0
    9.1820   13.2100   24.5390 C   0  0  0  0  0  0  0  0  0  0  0  0
    8.5160   11.8680   24.6800 C   0  0  0  0  0  0  0  0  0  0  0  0
    8.9940   10.7440   24.0160 C   0  0  0  0  0  0  0  0  0  0  0  0
    8.3420    9.5430   24.2070 C   0  0  0  0  0  0  0  0  0  0  0  0
    7.2400    9.5000   25.0390 C   0  0  0  0  0  0  0  0  0  0  0  0
    7.4510   11.8390   25.4900 N   0  0  0  0  0  0  0  0  0  0  0  0
    6.8220   10.6620   25.6720 C   0  0  0  0  0  0  0  0  0  0  0  0
    5.6730   10.6570   26.5820 C   0  0  0  0  0  0  0  0  0  0  0  0
    5.3220   11.6940   27.3270 C   0  0  0  0  0  0  0  0  0  0  0  0
 20 19  2  0
 19 18  1  0
 18 16  2  0
 16 15  1  0
 15 14  2  0
 14 13  1  0
 13 12  1  0
 12 10  1  0
 11 10  2  0
 10  9  1  0
  9  7  1  0
  7  6  1  0
  6  5  1  0
  5  4  1  0
  4  2  1  6
  3  2  1  0
  2  1  2  0
  8  4  1  0
  9  8  1  0
 17 13  2  0
 18 17  1  0
M  END
>  <smiles>  (215) 
C=Cc1cccc(CC(=O)N2CCC[C@H](C(N)=O)C2)n1

>  <inchikey>  (215) 
BMEGHVOHSIRYBH-NSHDSACASA-N

>  <alias>  (215) 
A5015a

$$$$
A5015b
     RDKit          3D

 20 21  0  0  0  0  0  0  0  0999 V2000
   10.3910   16.7980   19.1080 O   0  0  0  0  0  0  0  0  0  0  0  0
   10.7600   15.6410   19.3500 C   0  0  0  0  0  0  0  0  0  0  0  0
   11.0120   14.7410   18.4080 N   0  0  0  0  0  0  0  0  0  0  0  0
   10.8870   15.1460   20.7810 C   0  0  1  0  0  0  0  0  0  0  0  0
   12.0890   15.8040   21.4910 C   0  0  0  0  0  0  0  0  0  0  0  0
   12.1770   15.3640   22.9670 C   0  0  0  0  0  0  0  0  0  0  0  0
   10.8390   15.5770   23.6810 C   0  0  0  0  0  0  0  0  0  0  0  0
    9.6030   15.4430   21.5660 C   0  0  0  0  0  0  0  0  0  0  0  0
    9.7540   14.9290   22.9280 N   0  0  0  0  0  0  0  0  0  0  0  0
    9.0530   13.8410   23.3210 C   0  0  0  0  0  0  0  0  0  0  0  0
    8.1290   13.3800   22.6510 O   0  0  0  0  0  0  0  0  0  0  0  0
    9.4860   13.1700   24.6120 C   0  0  0  0  0  0  0  0  0  0  0  0
    8.8450   11.8080   24.7680 C   0  0  0  0  0  0  0  0  0  0  0  0
    9.3130   10.6980   24.0690 C   0  0  0  0  0  0  0  0  0  0  0  0
    8.6600    9.4880   24.2380 C   0  0  0  0  0  0  0  0  0  0  0  0
    7.5660    9.4210   25.0830 C   0  0  0  0  0  0  0  0  0  0  0  0
    7.7780   11.7530   25.5870 N   0  0  0  0  0  0  0  0  0  0  0  0
    7.1530   10.5680   25.7470 C   0  0  0  0  0  0  0  0  0  0  0  0
    6.0000   10.5450   26.6480 C   0  0  0  0  0  0  0  0  0  0  0  0
    5.4790    9.4630   27.1490 C   0  0  0  0  0  0  0  0  0  0  0  0
 20 19  2  0
 19 18  1  0
 18 16  2  0
 16 15  1  0
 15 14  2  0
 14 13  1  0
 13 12  1  0
 12 10  1  0
 11 10  2  0
 10  9  1  0
  9  7  1  0
  7  6  1  0
  6  5  1  0
  5  4  1  0
  4  2  1  6
  3  2  1  0
  2  1  2  0
  8  4  1  0
  9  8  1  0
 17 13  2  0
 18 17  1  0
M  END
>  <smiles>  (216) 
C=Cc1cccc(CC(=O)N2CCC[C@H](C(N)=O)C2)n1

>  <inchikey>  (216) 
BMEGHVOHSIRYBH-NSHDSACASA-N

>  <alias>  (216) 
A5015b

$$$$
A5039a
     RDKit          3D

 20 21  0  0  0  0  0  0  0  0999 V2000
   10.2690   16.6650   19.2090 O   0  0  0  0  0  0  0  0  0  0  0  0
   10.6400   15.5140   19.4450 C   0  0  0  0  0  0  0  0  0  0  0  0
   11.0020   14.6690   18.4900 N   0  0  0  0  0  0  0  0  0  0  0  0
   10.6750   14.9750   20.8640 C   0  0  1  0  0  0  0  0  0  0  0  0
   11.7250   15.7190   21.7120 C   0  0  0  0  0  0  0  0  0  0  0  0
   11.7410   15.1990   23.1550 C   0  0  0  0  0  0  0  0  0  0  0  0
   10.3640   15.3230   23.7670 C   0  0  0  0  0  0  0  0  0  0  0  0
    9.3030   15.1510   21.5260 C   0  0  0  0  0  0  0  0  0  0  0  0
    9.3440   14.6890   22.9160 N   0  0  0  0  0  0  0  0  0  0  0  0
    8.4850   13.7380   23.3480 C   0  0  0  0  0  0  0  0  0  0  0  0
    7.6260   13.2670   22.6210 O   0  0  0  0  0  0  0  0  0  0  0  0
    8.5870   13.3350   24.8080 C   0  0  0  0  0  0  0  0  0  0  0  0
    7.7350   12.1300   25.1410 C   0  0  0  0  0  0  0  0  0  0  0  0
    8.0120   10.8060   24.7270 C   0  0  0  0  0  0  0  0  0  0  0  0
    9.4500   10.5480   23.7580 S   0  0  0  0  0  0  0  0  0  0  0  0
    9.4460    8.7570   23.5340 C   0  0  0  0  0  0  0  0  0  0  0  0
    6.6240   12.2400   25.9610 C   0  0  0  0  0  0  0  0  0  0  0  0
    5.8570   11.2130   26.3280 N   0  0  0  0  0  0  0  0  0  0  0  0
    6.2160   10.0360   25.8440 C   0  0  0  0  0  0  0  0  0  0  0  0
    7.2580    9.7640   25.0560 N   0  0  0  0  0  0  0  0  0  0  0  0
 16 15  1  0
 15 14  1  0
 14 20  2  0
 20 19  1  0
 19 18  2  0
 18 17  1  0
 17 13  2  0
 14 13  1  0
 13 12  1  0
 12 10  1  0
 11 10  2  0
 10  9  1  0
  9  7  1  0
  7  6  1  0
  6  5  1  0
  5  4  1  0
  4  2  1  6
  3  2  1  0
  2  1  2  0
  8  4  1  0
  9  8  1  0
M  END
>  <smiles>  (217) 
CSc1ncncc1CC(=O)N1CCC[C@H](C(N)=O)C1

>  <inchikey>  (217) 
VHSVZDNSBFAAEB-VIFPVBQESA-N

>  <alias>  (217) 
A5039a

$$$$
A5039b
     RDKit          3D

 20 21  0  0  0  0  0  0  0  0999 V2000
   10.3300   16.6570   19.2430 O   0  0  0  0  0  0  0  0  0  0  0  0
   10.7370   15.5050   19.4530 C   0  0  0  0  0  0  0  0  0  0  0  0
   11.0910   14.6710   18.4840 N   0  0  0  0  0  0  0  0  0  0  0  0
   10.8380   14.9590   20.8670 C   0  0  1  0  0  0  0  0  0  0  0  0
   11.9230   15.7120   21.6600 C   0  0  0  0  0  0  0  0  0  0  0  0
   11.9910   15.2180   23.1110 C   0  0  0  0  0  0  0  0  0  0  0  0
   10.6220   15.3210   23.7820 C   0  0  0  0  0  0  0  0  0  0  0  0
    9.4860   15.1180   21.5840 C   0  0  0  0  0  0  0  0  0  0  0  0
    9.5950   14.6430   22.9670 N   0  0  0  0  0  0  0  0  0  0  0  0
    8.7760   13.6540   23.4120 C   0  0  0  0  0  0  0  0  0  0  0  0
    7.8690   13.1950   22.7150 O   0  0  0  0  0  0  0  0  0  0  0  0
    8.9710   13.2070   24.8500 C   0  0  0  0  0  0  0  0  0  0  0  0
    8.1140   12.0130   25.2140 C   0  0  0  0  0  0  0  0  0  0  0  0
    8.3380   10.6910   24.7630 C   0  0  0  0  0  0  0  0  0  0  0  0
    9.7040   10.4490   23.6920 S   0  0  0  0  0  0  0  0  0  0  0  0
    9.6940    8.6670   23.4620 C   0  0  0  0  0  0  0  0  0  0  0  0
    7.0490   12.1310   26.0910 C   0  0  0  0  0  0  0  0  0  0  0  0
    6.2810   11.1110   26.4870 N   0  0  0  0  0  0  0  0  0  0  0  0
    6.5930    9.9290   25.9730 C   0  0  0  0  0  0  0  0  0  0  0  0
    7.5780    9.6490   25.1130 N   0  0  0  0  0  0  0  0  0  0  0  0
 16 15  1  0
 15 14  1  0
 14 20  2  0
 20 19  1  0
 19 18  2  0
 18 17  1  0
 17 13  2  0
 14 13  1  0
 13 12  1  0
 12 10  1  0
 11 10  2  0
 10  9  1  0
  9  7  1  0
  7  6  1  0
  6  5  1  0
  5  4  1  0
  4  2  1  6
  3  2  1  0
  2  1  2  0
  8  4  1  0
  9  8  1  0
M  END
>  <smiles>  (218) 
CSc1ncncc1CC(=O)N1CCC[C@H](C(N)=O)C1

>  <inchikey>  (218) 
VHSVZDNSBFAAEB-VIFPVBQESA-N

>  <alias>  (218) 
A5039b

$$$$
A5079a
     RDKit          3D

 19 20  0  0  0  0  0  0  0  0999 V2000
    9.4090   10.0190   23.5440 Cl  0  0  0  0  0  0  0  0  0  0  0  0
    8.1180   10.4460   24.6300 C   0  0  0  0  0  0  0  0  0  0  0  0
    7.3120    9.4720   24.9900 N   0  0  0  0  0  0  0  0  0  0  0  0
    6.3670    9.7830   25.8970 C   0  0  0  0  0  0  0  0  0  0  0  0
    6.2090   11.0500   26.4390 C   0  0  0  0  0  0  0  0  0  0  0  0
    7.0630   12.0590   26.0200 C   0  0  0  0  0  0  0  0  0  0  0  0
    8.0620   11.7850   25.0930 C   0  0  0  0  0  0  0  0  0  0  0  0
    9.0760   12.8400   24.7170 C   0  0  0  0  0  0  0  0  0  0  0  0
    8.7600   13.4970   23.3850 C   0  0  0  0  0  0  0  0  0  0  0  0
    7.8380   13.1050   22.6870 O   0  0  0  0  0  0  0  0  0  0  0  0
    9.5600   14.5190   23.0070 N   0  0  0  0  0  0  0  0  0  0  0  0
   10.6160   15.1270   23.8350 C   0  0  0  0  0  0  0  0  0  0  0  0
   11.9670   15.0080   23.1480 C   0  0  0  0  0  0  0  0  0  0  0  0
   11.9050   15.5770   21.7170 C   0  0  0  0  0  0  0  0  0  0  0  0
    9.4510   15.0960   21.6640 C   0  0  0  0  0  0  0  0  0  0  0  0
   10.7770   14.9140   20.9090 C   0  0  1  0  0  0  0  0  0  0  0  0
   10.7130   15.4520   19.4890 C   0  0  0  0  0  0  0  0  0  0  0  0
   10.3340   16.6070   19.2600 O   0  0  0  0  0  0  0  0  0  0  0  0
   11.0270   14.5910   18.5250 N   0  0  0  0  0  0  0  0  0  0  0  0
 19 17  1  0
 18 17  2  0
 16 17  1  6
 16 14  1  0
 14 13  1  0
 13 12  1  0
 12 11  1  0
 11  9  1  0
 10  9  2  0
  9  8  1  0
  8  7  1  0
  7  6  2  0
  6  5  1  0
  5  4  2  0
  4  3  1  0
  3  2  2  0
  7  2  1  0
  2  1  1  0
 15 11  1  0
 16 15  1  0
M  END
>  <smiles>  (219) 
NC(=O)[C@H]1CCCN(C(=O)Cc2cccnc2Cl)C1

>  <inchikey>  (219) 
MVRLSGDTKPBMCQ-JTQLQIEISA-N

>  <alias>  (219) 
A5079a

$$$$
A5079b
     RDKit          3D

 19 20  0  0  0  0  0  0  0  0999 V2000
    9.5240   10.0260   23.5290 Cl  0  0  0  0  0  0  0  0  0  0  0  0
    8.2610   10.4730   24.6380 C   0  0  0  0  0  0  0  0  0  0  0  0
    7.4220    9.5160   24.9960 N   0  0  0  0  0  0  0  0  0  0  0  0
    6.4930    9.8440   25.9110 C   0  0  0  0  0  0  0  0  0  0  0  0
    6.3720   11.1070   26.4570 C   0  0  0  0  0  0  0  0  0  0  0  0
    7.2540   12.1000   26.0450 C   0  0  0  0  0  0  0  0  0  0  0  0
    8.2460   11.8090   25.1110 C   0  0  0  0  0  0  0  0  0  0  0  0
    9.2660   12.8580   24.7210 C   0  0  0  0  0  0  0  0  0  0  0  0
    8.9360   13.5250   23.3990 C   0  0  0  0  0  0  0  0  0  0  0  0
    7.9960   13.1310   22.7120 O   0  0  0  0  0  0  0  0  0  0  0  0
    9.7290   14.5580   23.0150 N   0  0  0  0  0  0  0  0  0  0  0  0
   10.7730   15.2120   23.8250 C   0  0  0  0  0  0  0  0  0  0  0  0
   12.1260   15.1170   23.1140 C   0  0  0  0  0  0  0  0  0  0  0  0
   12.0330   15.6500   21.6710 C   0  0  0  0  0  0  0  0  0  0  0  0
    9.6020   15.1160   21.6640 C   0  0  0  0  0  0  0  0  0  0  0  0
   10.9130   14.9300   20.8880 C   0  0  1  0  0  0  0  0  0  0  0  0
   10.7990   15.4680   19.4710 C   0  0  0  0  0  0  0  0  0  0  0  0
   10.4040   16.6250   19.2560 O   0  0  0  0  0  0  0  0  0  0  0  0
   11.0940   14.6030   18.4980 N   0  0  0  0  0  0  0  0  0  0  0  0
 19 17  1  0
 18 17  2  0
 16 17  1  6
 16 14  1  0
 14 13  1  0
 13 12  1  0
 12 11  1  0
 11  9  1  0
 10  9  2  0
  9  8  1  0
  8  7  1  0
  7  6  2  0
  6  5  1  0
  5  4  2  0
  4  3  1  0
  3  2  2  0
  7  2  1  0
  2  1  1  0
 15 11  1  0
 16 15  1  0
M  END
>  <smiles>  (220) 
NC(=O)[C@H]1CCCN(C(=O)Cc2cccnc2Cl)C1

>  <inchikey>  (220) 
MVRLSGDTKPBMCQ-JTQLQIEISA-N

>  <alias>  (220) 
A5079b

$$$$
A5081a
     RDKit          3D

 19 20  0  0  0  0  0  0  0  0999 V2000
    9.4350   10.1260   23.5340 Cl  0  0  0  0  0  0  0  0  0  0  0  0
    8.1270   10.5170   24.6100 C   0  0  0  0  0  0  0  0  0  0  0  0
    7.3320    9.5290   24.9540 N   0  0  0  0  0  0  0  0  0  0  0  0
    6.3760    9.8670   25.8220 C   0  0  0  0  0  0  0  0  0  0  0  0
    6.1510   11.0690   26.3500 N   0  0  0  0  0  0  0  0  0  0  0  0
    6.9900   12.0340   25.9570 C   0  0  0  0  0  0  0  0  0  0  0  0
    8.0330   11.8550   25.0720 C   0  0  0  0  0  0  0  0  0  0  0  0
    8.9860   12.9690   24.7220 C   0  0  0  0  0  0  0  0  0  0  0  0
    8.7250   13.5510   23.3450 C   0  0  0  0  0  0  0  0  0  0  0  0
    7.8010   13.1560   22.6460 O   0  0  0  0  0  0  0  0  0  0  0  0
    9.5340   14.5620   22.9580 N   0  0  0  0  0  0  0  0  0  0  0  0
   10.5790   15.1750   23.7980 C   0  0  0  0  0  0  0  0  0  0  0  0
   11.9430   15.0470   23.1410 C   0  0  0  0  0  0  0  0  0  0  0  0
   11.9070   15.5980   21.7050 C   0  0  0  0  0  0  0  0  0  0  0  0
    9.4480   15.1100   21.6030 C   0  0  0  0  0  0  0  0  0  0  0  0
   10.7890   14.9310   20.8860 C   0  0  1  0  0  0  0  0  0  0  0  0
   10.7130   15.4790   19.4710 C   0  0  0  0  0  0  0  0  0  0  0  0
   10.3440   16.6390   19.2510 O   0  0  0  0  0  0  0  0  0  0  0  0
   11.0250   14.6240   18.5070 N   0  0  0  0  0  0  0  0  0  0  0  0
 19 17  1  0
 18 17  2  0
 16 17  1  6
 16 14  1  0
 14 13  1  0
 13 12  1  0
 12 11  1  0
 11  9  1  0
 10  9  2  0
  9  8  1  0
  8  7  1  0
  7  6  2  0
  6  5  1  0
  5  4  2  0
  4  3  1  0
  3  2  2  0
  7  2  1  0
  2  1  1  0
 15 11  1  0
 16 15  1  0
M  END
>  <smiles>  (221) 
NC(=O)[C@H]1CCCN(C(=O)Cc2cncnc2Cl)C1

>  <inchikey>  (221) 
XPAHSYNCKBEQTK-QMMMGPOBSA-N

>  <alias>  (221) 
A5081a

$$$$
A5081b
     RDKit          3D

 19 20  0  0  0  0  0  0  0  0999 V2000
    9.5830   10.1010   23.5570 Cl  0  0  0  0  0  0  0  0  0  0  0  0
    8.2960   10.5190   24.6440 C   0  0  0  0  0  0  0  0  0  0  0  0
    7.4750    9.5420   24.9880 N   0  0  0  0  0  0  0  0  0  0  0  0
    6.5380    9.8930   25.8720 C   0  0  0  0  0  0  0  0  0  0  0  0
    6.3450   11.0960   26.4030 N   0  0  0  0  0  0  0  0  0  0  0  0
    7.2020   12.0460   26.0090 C   0  0  0  0  0  0  0  0  0  0  0  0
    8.2460   11.8550   25.1160 C   0  0  0  0  0  0  0  0  0  0  0  0
    9.2090   12.9660   24.7550 C   0  0  0  0  0  0  0  0  0  0  0  0
    8.9230   13.5500   23.3830 C   0  0  0  0  0  0  0  0  0  0  0  0
    7.9920   13.1360   22.6950 O   0  0  0  0  0  0  0  0  0  0  0  0
    9.7080   14.5770   22.9820 N   0  0  0  0  0  0  0  0  0  0  0  0
   10.7410   15.2370   23.7980 C   0  0  0  0  0  0  0  0  0  0  0  0
   12.1050   15.1400   23.1120 C   0  0  0  0  0  0  0  0  0  0  0  0
   12.0260   15.6700   21.6680 C   0  0  0  0  0  0  0  0  0  0  0  0
    9.5810   15.1230   21.6290 C   0  0  0  0  0  0  0  0  0  0  0  0
   10.9070   14.9610   20.8780 C   0  0  1  0  0  0  0  0  0  0  0  0
   10.7990   15.5090   19.4650 C   0  0  0  0  0  0  0  0  0  0  0  0
   10.4220   16.6740   19.2590 O   0  0  0  0  0  0  0  0  0  0  0  0
   11.0930   14.6510   18.4950 N   0  0  0  0  0  0  0  0  0  0  0  0
 19 17  1  0
 18 17  2  0
 16 17  1  6
 16 14  1  0
 14 13  1  0
 13 12  1  0
 12 11  1  0
 11  9  1  0
 10  9  2  0
  9  8  1  0
  8  7  1  0
  7  6  2  0
  6  5  1  0
  5  4  2  0
  4  3  1  0
  3  2  2  0
  7  2  1  0
  2  1  1  0
 15 11  1  0
 16 15  1  0
M  END
>  <smiles>  (222) 
NC(=O)[C@H]1CCCN(C(=O)Cc2cncnc2Cl)C1

>  <inchikey>  (222) 
XPAHSYNCKBEQTK-QMMMGPOBSA-N

>  <alias>  (222) 
A5081b

$$$$
A5104a
     RDKit          3D

 21 22  0  0  0  0  0  0  0  0999 V2000
   10.1870   16.4300   18.8220 O   0  0  0  0  0  0  0  0  0  0  0  0
   10.6050   15.3300   19.1970 C   0  0  0  0  0  0  0  0  0  0  0  0
   11.2230   14.4780   18.3960 N   0  0  0  0  0  0  0  0  0  0  0  0
   10.4700   14.8930   20.6460 C   0  0  1  0  0  0  0  0  0  0  0  0
   11.5460   15.5130   21.5530 C   0  0  0  0  0  0  0  0  0  0  0  0
   11.4560   14.8920   22.9460 C   0  0  1  0  0  0  0  0  0  0  0  0
   12.5100   15.4630   23.8740 C   0  0  0  0  0  0  0  0  0  0  0  0
   10.0800   15.1650   23.5140 C   0  0  0  0  0  0  0  0  0  0  0  0
    9.0800   15.1040   21.2550 C   0  0  0  0  0  0  0  0  0  0  0  0
    9.0620   14.5940   22.6300 N   0  0  0  0  0  0  0  0  0  0  0  0
    8.1790   13.6800   23.0760 C   0  0  0  0  0  0  0  0  0  0  0  0
    7.2880   13.2640   22.3700 O   0  0  0  0  0  0  0  0  0  0  0  0
    8.2950   13.2770   24.5390 C   0  0  0  0  0  0  0  0  0  0  0  0
    7.4450   12.0960   24.9400 C   0  0  0  0  0  0  0  0  0  0  0  0
    7.8130   10.7720   24.6700 C   0  0  0  0  0  0  0  0  0  0  0  0
    9.1510   10.5090   23.5420 S   0  0  0  0  0  0  0  0  0  0  0  0
    9.3230    8.7300   23.4720 C   0  0  0  0  0  0  0  0  0  0  0  0
    6.3350   12.3210   25.7500 C   0  0  0  0  0  0  0  0  0  0  0  0
    5.6280   11.2710   26.3080 C   0  0  0  0  0  0  0  0  0  0  0  0
    6.0110    9.9760   26.0560 C   0  0  0  0  0  0  0  0  0  0  0  0
    7.0980    9.7170   25.2350 C   0  0  0  0  0  0  0  0  0  0  0  0
 17 16  1  0
 16 15  1  0
 15 21  2  0
 21 20  1  0
 20 19  2  0
 19 18  1  0
 18 14  2  0
 15 14  1  0
 14 13  1  0
 13 11  1  0
 12 11  2  0
 11 10  1  0
 10  8  1  0
  8  6  1  0
  6  7  1  1
  6  5  1  0
  5  4  1  0
  4  2  1  6
  3  2  1  0
  2  1  2  0
  9  4  1  0
 10  9  1  0
M  END
>  <smiles>  (223) 
CSc1ccccc1CC(=O)N1C[C@H](C)C[C@H](C(N)=O)C1

>  <inchikey>  (223) 
KCUWPJSIVYQWJM-YPMHNXCESA-N

>  <alias>  (223) 
A5104a

$$$$
A5131a
     RDKit          3D

 21 23  0  0  0  0  0  0  0  0999 V2000
   10.5560   16.5790   19.1240 O   0  0  0  0  0  0  0  0  0  0  0  0
   10.8910   15.4470   19.4760 C   0  0  0  0  0  0  0  0  0  0  0  0
   11.2270   14.5060   18.6140 N   0  0  0  0  0  0  0  0  0  0  0  0
   10.9430   15.0620   20.9460 C   0  0  2  0  0  0  0  0  0  0  0  0
    9.5420   14.9850   21.5700 C   0  0  0  0  0  0  0  0  0  0  0  0
   11.8140   16.0460   21.7410 C   0  0  0  0  0  0  0  0  0  0  0  0
   11.7770   15.7630   23.2490 C   0  0  1  0  0  0  0  0  0  0  0  0
   10.6390   14.9980   23.8430 C   0  0  2  0  0  0  0  0  0  0  0  0
   11.9980   14.3740   23.7720 C   0  0  0  0  0  0  0  0  0  0  0  0
    9.5750   14.4770   22.9520 N   0  0  0  0  0  0  0  0  0  0  0  0
    8.5820   13.6640   23.4190 C   0  0  0  0  0  0  0  0  0  0  0  0
    7.6680   13.3010   22.6900 O   0  0  0  0  0  0  0  0  0  0  0  0
    8.5970   13.2800   24.8890 C   0  0  0  0  0  0  0  0  0  0  0  0
    7.7690   12.0510   25.2000 C   0  0  0  0  0  0  0  0  0  0  0  0
    8.0460   10.7740   24.6840 C   0  0  0  0  0  0  0  0  0  0  0  0
    9.4010   10.5730   23.5660 S   0  0  0  0  0  0  0  0  0  0  0  0
    9.4600    8.8050   23.2810 C   0  0  0  0  0  0  0  0  0  0  0  0
    6.7150   12.1790   26.1020 C   0  0  0  0  0  0  0  0  0  0  0  0
    5.9680   11.0840   26.4960 C   0  0  0  0  0  0  0  0  0  0  0  0
    6.2430    9.8400   25.9810 C   0  0  0  0  0  0  0  0  0  0  0  0
    7.2740    9.6780   25.0700 C   0  0  0  0  0  0  0  0  0  0  0  0
 17 16  1  0
 16 15  1  0
 15 21  2  0
 21 20  1  0
 20 19  2  0
 19 18  1  0
 18 14  2  0
 15 14  1  0
 14 13  1  0
 13 11  1  0
 12 11  2  0
 11 10  1  0
 10  5  1  0
  5  4  1  0
  4  2  1  6
  3  2  1  0
  2  1  2  0
  6  4  1  0
  7  6  1  6
  7  9  1  0
  8  9  1  6
  8  7  1  0
 10  8  1  0
M  END
>  <smiles>  (224) 
CSc1ccccc1CC(=O)N1C[C@@H](C(N)=O)C[C@@H]2C[C@@H]21

>  <inchikey>  (224) 
POUPHNLBVXGGPW-AGIUHOORSA-N

>  <alias>  (224) 
A5131a

$$$$
A5171a
     RDKit          3D

 23 24  0  0  0  0  0  0  0  0999 V2000
   10.4680   16.6280   19.1650 O   0  0  0  0  0  0  0  0  0  0  0  0
   10.8170   15.4780   19.4600 C   0  0  0  0  0  0  0  0  0  0  0  0
   11.1290   14.5700   18.5410 N   0  0  0  0  0  0  0  0  0  0  0  0
   10.7890   14.9910   20.8980 C   0  0  1  0  0  0  0  0  0  0  0  0
   11.7600   15.7640   21.8170 C   0  0  0  0  0  0  0  0  0  0  0  0
   11.6600   15.2030   23.2470 C   0  0  1  0  0  0  0  0  0  0  0  0
   12.4990   16.0160   24.2190 C   0  0  0  0  0  0  0  0  0  0  0  0
   12.5190   17.2540   24.1640 O   0  0  0  0  0  0  0  0  0  0  0  0
   13.1780   15.3230   25.1200 N   0  0  0  0  0  0  0  0  0  0  0  0
   10.2120   15.3070   23.7410 C   0  0  0  0  0  0  0  0  0  0  0  0
    9.3470   15.1070   21.4170 C   0  0  0  0  0  0  0  0  0  0  0  0
    9.2830   14.6600   22.8110 N   0  0  0  0  0  0  0  0  0  0  0  0
    8.3890   13.7180   23.2030 C   0  0  0  0  0  0  0  0  0  0  0  0
    7.5440   13.2890   22.4400 O   0  0  0  0  0  0  0  0  0  0  0  0
    8.4710   13.2670   24.6570 C   0  0  0  0  0  0  0  0  0  0  0  0
    7.5710   12.0930   24.9810 C   0  0  0  0  0  0  0  0  0  0  0  0
    7.8400   10.7760   24.5730 C   0  0  0  0  0  0  0  0  0  0  0  0
    9.2500   10.5320   23.5270 S   0  0  0  0  0  0  0  0  0  0  0  0
    9.3190    8.7610   23.2980 C   0  0  0  0  0  0  0  0  0  0  0  0
    6.4780   12.3160   25.8140 C   0  0  0  0  0  0  0  0  0  0  0  0
    5.6840   11.2690   26.2450 C   0  0  0  0  0  0  0  0  0  0  0  0
    5.9560    9.9850   25.8400 C   0  0  0  0  0  0  0  0  0  0  0  0
    7.0370    9.7230   25.0060 C   0  0  0  0  0  0  0  0  0  0  0  0
 19 18  1  0
 18 17  1  0
 17 23  2  0
 23 22  1  0
 22 21  2  0
 21 20  1  0
 20 16  2  0
 17 16  1  0
 16 15  1  0
 15 13  1  0
 14 13  2  0
 13 12  1  0
 12 10  1  0
 10  6  1  0
  6  7  1  1
  9  7  1  0
  8  7  2  0
  6  5  1  0
  5  4  1  0
  4  2  1  6
  3  2  1  0
  2  1  2  0
 11  4  1  0
 12 11  1  0
M  END
>  <smiles>  (225) 
CSc1ccccc1CC(=O)N1C[C@H](C(N)=O)C[C@H](C(N)=O)C1

>  <inchikey>  (225) 
QGOOPSUEGGPXHT-TXEJJXNPSA-N

>  <alias>  (225) 
A5171a

$$$$
A5171b
     RDKit          3D

 23 24  0  0  0  0  0  0  0  0999 V2000
   10.5400   16.6960   19.2090 O   0  0  0  0  0  0  0  0  0  0  0  0
   10.8780   15.5250   19.4750 C   0  0  0  0  0  0  0  0  0  0  0  0
   11.1260   14.6130   18.5420 N   0  0  0  0  0  0  0  0  0  0  0  0
   10.9190   15.0290   20.9090 C   0  0  1  0  0  0  0  0  0  0  0  0
   11.9340   15.7950   21.7890 C   0  0  0  0  0  0  0  0  0  0  0  0
   11.8730   15.2620   23.2310 C   0  0  1  0  0  0  0  0  0  0  0  0
   12.7890   16.0210   24.1760 C   0  0  0  0  0  0  0  0  0  0  0  0
   12.7680   17.2540   24.2280 O   0  0  0  0  0  0  0  0  0  0  0  0
   13.5270   15.2840   25.0040 N   0  0  0  0  0  0  0  0  0  0  0  0
   10.4460   15.3990   23.7710 C   0  0  0  0  0  0  0  0  0  0  0  0
    9.5040   15.1570   21.4950 C   0  0  0  0  0  0  0  0  0  0  0  0
    9.4920   14.7070   22.8920 N   0  0  0  0  0  0  0  0  0  0  0  0
    8.6350   13.7300   23.2820 C   0  0  0  0  0  0  0  0  0  0  0  0
    7.7400   13.3170   22.5500 O   0  0  0  0  0  0  0  0  0  0  0  0
    8.7650   13.2560   24.7200 C   0  0  0  0  0  0  0  0  0  0  0  0
    7.8770   12.0800   25.0700 C   0  0  0  0  0  0  0  0  0  0  0  0
    8.1340   10.7790   24.6190 C   0  0  0  0  0  0  0  0  0  0  0  0
    9.5070   10.5610   23.5240 S   0  0  0  0  0  0  0  0  0  0  0  0
    9.5660    8.7850   23.2830 C   0  0  0  0  0  0  0  0  0  0  0  0
    6.8150   12.2750   25.9600 C   0  0  0  0  0  0  0  0  0  0  0  0
    6.0230   11.2180   26.3680 C   0  0  0  0  0  0  0  0  0  0  0  0
    6.2910    9.9400   25.9240 C   0  0  0  0  0  0  0  0  0  0  0  0
    7.3510    9.7090   25.0560 C   0  0  0  0  0  0  0  0  0  0  0  0
 19 18  1  0
 18 17  1  0
 17 23  2  0
 23 22  1  0
 22 21  2  0
 21 20  1  0
 20 16  2  0
 17 16  1  0
 16 15  1  0
 15 13  1  0
 14 13  2  0
 13 12  1  0
 12 10  1  0
 10  6  1  0
  6  7  1  1
  9  7  1  0
  8  7  2  0
  6  5  1  0
  5  4  1  0
  4  2  1  6
  3  2  1  0
  2  1  2  0
 11  4  1  0
 12 11  1  0
M  END
>  <smiles>  (226) 
CSc1ccccc1CC(=O)N1C[C@H](C(N)=O)C[C@H](C(N)=O)C1

>  <inchikey>  (226) 
QGOOPSUEGGPXHT-TXEJJXNPSA-N

>  <alias>  (226) 
A5171b

$$$$
A5177a
     RDKit          3D

 21 23  0  0  0  0  0  0  0  0999 V2000
   10.4990   16.7920   19.3030 O   0  0  0  0  0  0  0  0  0  0  0  0
   10.7930   15.5990   19.3780 C   0  0  0  0  0  0  0  0  0  0  0  0
   10.9410   14.8300   18.3150 N   0  0  0  0  0  0  0  0  0  0  0  0
   11.0060   14.9270   20.7240 C   0  0  2  0  0  0  0  0  0  0  0  0
    9.6260   14.5640   21.2790 C   0  0  0  0  0  0  0  0  0  0  0  0
   11.7300   15.8570   21.7010 C   0  0  0  0  0  0  0  0  0  0  0  0
   12.0290   15.0440   22.9550 C   0  0  2  0  0  0  0  0  0  0  0  0
   10.9640   14.0870   23.3780 C   0  0  1  0  0  0  0  0  0  0  0  0
   11.2720   15.2790   24.2260 C   0  0  0  0  0  0  0  0  0  0  0  0
    9.6790   14.0460   22.6490 N   0  0  0  0  0  0  0  0  0  0  0  0
    8.5470   13.5900   23.2240 C   0  0  0  0  0  0  0  0  0  0  0  0
    7.6480   13.1240   22.5530 O   0  0  0  0  0  0  0  0  0  0  0  0
    8.4230   13.6620   24.7350 C   0  0  0  0  0  0  0  0  0  0  0  0
    7.6730   12.4650   25.2730 C   0  0  0  0  0  0  0  0  0  0  0  0
    8.1480   11.1640   25.0950 C   0  0  0  0  0  0  0  0  0  0  0  0
    9.6760   10.9830   24.2380 S   0  0  0  0  0  0  0  0  0  0  0  0
    9.3890    9.5320   23.3020 C   0  0  0  0  0  0  0  0  0  0  0  0
    6.4460   12.6360   25.9060 C   0  0  0  0  0  0  0  0  0  0  0  0
    5.7110   11.5460   26.3390 C   0  0  0  0  0  0  0  0  0  0  0  0
    6.1890   10.2710   26.1550 C   0  0  0  0  0  0  0  0  0  0  0  0
    7.4080   10.0700   25.5370 C   0  0  0  0  0  0  0  0  0  0  0  0
 17 16  1  0
 16 15  1  0
 15 21  2  0
 21 20  1  0
 20 19  2  0
 19 18  1  0
 18 14  2  0
 15 14  1  0
 14 13  1  0
 13 11  1  0
 12 11  2  0
 11 10  1  0
 10  5  1  0
  5  4  1  0
  4  2  1  6
  3  2  1  0
  2  1  2  0
  6  4  1  0
  7  6  1  6
  7  9  1  0
  8  9  1  1
  8  7  1  0
 10  8  1  0
M  END
>  <smiles>  (227) 
CSc1ccccc1CC(=O)N1C[C@@H](C(N)=O)C[C@H]2C[C@H]21

>  <inchikey>  (227) 
POUPHNLBVXGGPW-RWMBFGLXSA-N

>  <alias>  (227) 
A5177a

$$$$
A5200a
     RDKit          3D

 21 22  0  0  0  0  0  0  0  0999 V2000
   10.2110   16.7660   19.1420 O   0  0  0  0  0  0  0  0  0  0  0  0
   10.4940   15.5930   19.4130 C   0  0  0  0  0  0  0  0  0  0  0  0
   11.0950   14.7840   18.5590 N   0  0  0  0  0  0  0  0  0  0  0  0
   10.2750   15.0320   20.8080 C   0  0  1  0  0  0  0  0  0  0  0  0
   11.5210   15.3280   21.6560 C   0  0  0  0  0  0  0  0  0  0  0  0
   11.3160   14.7000   23.0360 C   0  0  1  0  0  0  0  0  0  0  0  0
   12.6000   14.6800   23.8520 C   0  0  0  0  0  0  0  0  0  0  0  0
   10.1680   15.4220   23.7400 C   0  0  0  0  0  0  0  0  0  0  0  0
    9.0020   15.4500   21.5730 C   0  0  0  0  0  0  0  0  0  0  0  0
    9.0380   14.9260   22.9460 N   0  0  0  0  0  0  0  0  0  0  0  0
    8.2430   13.8990   23.3550 C   0  0  0  0  0  0  0  0  0  0  0  0
    7.4590   13.3430   22.6040 O   0  0  0  0  0  0  0  0  0  0  0  0
    8.4300   13.4070   24.7800 C   0  0  0  0  0  0  0  0  0  0  0  0
    7.6450   12.1500   25.0780 C   0  0  0  0  0  0  0  0  0  0  0  0
    8.0110   10.8820   24.5940 C   0  0  0  0  0  0  0  0  0  0  0  0
    9.3550   10.7520   23.4420 S   0  0  0  0  0  0  0  0  0  0  0  0
    9.5590    8.9890   23.2050 C   0  0  0  0  0  0  0  0  0  0  0  0
    6.5740   12.2370   25.9730 C   0  0  0  0  0  0  0  0  0  0  0  0
    5.9030   11.1080   26.4020 C   0  0  0  0  0  0  0  0  0  0  0  0
    6.2720    9.8690   25.9300 C   0  0  0  0  0  0  0  0  0  0  0  0
    7.3180    9.7490   25.0270 C   0  0  0  0  0  0  0  0  0  0  0  0
 17 16  1  0
 16 15  1  0
 15 21  2  0
 21 20  1  0
 20 19  2  0
 19 18  1  0
 18 14  2  0
 15 14  1  0
 14 13  1  0
 13 11  1  0
 12 11  2  0
 11 10  1  0
 10  8  1  0
  8  6  1  0
  6  7  1  1
  6  5  1  0
  5  4  1  0
  4  2  1  6
  3  2  1  0
  2  1  2  0
  9  4  1  0
 10  9  1  0
M  END
>  <smiles>  (228) 
CSc1ccccc1CC(=O)N1C[C@H](C)C[C@H](C(N)=O)C1

>  <inchikey>  (228) 
KCUWPJSIVYQWJM-YPMHNXCESA-N

>  <alias>  (228) 
A5200a

$$$$
A5203a
     RDKit          3D

 22 23  0  0  0  0  0  0  0  0999 V2000
   10.2940   16.7470   19.1190 O   0  0  0  0  0  0  0  0  0  0  0  0
   10.5740   15.5810   19.4340 C   0  0  0  0  0  0  0  0  0  0  0  0
   10.8900   14.6440   18.5390 N   0  0  0  0  0  0  0  0  0  0  0  0
   10.5200   15.1200   20.8830 C   0  0  1  0  0  0  0  0  0  0  0  0
   11.6170   15.8030   21.7170 C   0  0  0  0  0  0  0  0  0  0  0  0
   11.9180   15.0690   23.0260 C   0  0  0  0  0  0  0  0  0  0  0  0
   10.9500   15.3600   24.1600 C   0  0  0  0  0  0  0  0  0  0  0  0
    9.0900   15.2880   21.4190 C   0  0  0  0  0  0  0  0  0  0  0  0
    8.8730   15.7790   22.8470 C   0  0  0  0  0  0  0  0  0  0  0  0
    9.5590   14.9950   23.8800 N   0  0  0  0  0  0  0  0  0  0  0  0
    8.9670   14.0340   24.6290 C   0  0  0  0  0  0  0  0  0  0  0  0
    9.5120   13.5400   25.6110 O   0  0  0  0  0  0  0  0  0  0  0  0
    7.6280   13.5090   24.1520 C   0  0  0  0  0  0  0  0  0  0  0  0
    7.2480   12.2870   24.9560 C   0  0  0  0  0  0  0  0  0  0  0  0
    7.6840   10.9800   24.6920 C   0  0  0  0  0  0  0  0  0  0  0  0
    9.0350   10.7870   23.5680 S   0  0  0  0  0  0  0  0  0  0  0  0
    9.2680    9.0050   23.4640 C   0  0  0  0  0  0  0  0  0  0  0  0
    6.2940   12.4820   25.9490 C   0  0  0  0  0  0  0  0  0  0  0  0
    5.7370   11.4000   26.5870 C   0  0  0  0  0  0  0  0  0  0  0  0
    4.4200   11.7130   27.9130 Br  0  0  0  0  0  0  0  0  0  0  0  0
    6.0940   10.1080   26.2740 C   0  0  0  0  0  0  0  0  0  0  0  0
    7.0820    9.8980   25.3260 C   0  0  0  0  0  0  0  0  0  0  0  0
 17 16  1  0
 16 15  1  0
 15 22  2  0
 22 21  1  0
 21 19  2  0
 20 19  1  0
 19 18  1  0
 18 14  2  0
 15 14  1  0
 14 13  1  0
 13 11  1  0
 12 11  2  0
 11 10  1  0
 10  7  1  0
  7  6  1  0
  6  5  1  0
  5  4  1  0
  4  2  1  6
  3  2  1  0
  2  1  2  0
  8  4  1  0
  9  8  1  0
 10  9  1  0
M  END
>  <smiles>  (229) 
CSc1ccc(Br)cc1CC(=O)N1CCC[C@H](C(N)=O)CC1

>  <inchikey>  (229) 
CVDDTGFVMVUXPC-NSHDSACASA-N

>  <alias>  (229) 
A5203a

$$$$
A5203b
     RDKit          3D

 22 23  0  0  0  0  0  0  0  0999 V2000
   10.3910   16.7490   19.1680 O   0  0  0  0  0  0  0  0  0  0  0  0
   10.7420   15.5900   19.4630 C   0  0  0  0  0  0  0  0  0  0  0  0
   10.9890   14.6470   18.5620 N   0  0  0  0  0  0  0  0  0  0  0  0
   10.7610   15.1190   20.9080 C   0  0  1  0  0  0  0  0  0  0  0  0
   11.8920   15.8190   21.6870 C   0  0  0  0  0  0  0  0  0  0  0  0
   12.2130   15.1760   23.0320 C   0  0  0  0  0  0  0  0  0  0  0  0
   11.2700   15.5350   24.1590 C   0  0  0  0  0  0  0  0  0  0  0  0
    9.3440   15.2620   21.4920 C   0  0  0  0  0  0  0  0  0  0  0  0
    9.1600   15.7880   22.9100 C   0  0  0  0  0  0  0  0  0  0  0  0
    9.9020   15.0650   23.9490 N   0  0  0  0  0  0  0  0  0  0  0  0
    9.4010   14.0670   24.7180 C   0  0  0  0  0  0  0  0  0  0  0  0
   10.0590   13.5340   25.6080 O   0  0  0  0  0  0  0  0  0  0  0  0
    7.9860   13.6150   24.4140 C   0  0  0  0  0  0  0  0  0  0  0  0
    7.6210   12.3480   25.1560 C   0  0  0  0  0  0  0  0  0  0  0  0
    8.0460   11.0540   24.8120 C   0  0  0  0  0  0  0  0  0  0  0  0
    9.3560   10.8570   23.6370 S   0  0  0  0  0  0  0  0  0  0  0  0
    9.4270    9.0710   23.3710 C   0  0  0  0  0  0  0  0  0  0  0  0
    6.6750   12.4910   26.1650 C   0  0  0  0  0  0  0  0  0  0  0  0
    6.1140   11.3830   26.7500 C   0  0  0  0  0  0  0  0  0  0  0  0
    4.6590   11.6250   27.9500 Br  0  0  0  0  0  0  0  0  0  0  0  0
    6.5060   10.1120   26.4110 C   0  0  0  0  0  0  0  0  0  0  0  0
    7.4740    9.9430   25.4320 C   0  0  0  0  0  0  0  0  0  0  0  0
 17 16  1  0
 16 15  1  0
 15 22  2  0
 22 21  1  0
 21 19  2  0
 20 19  1  0
 19 18  1  0
 18 14  2  0
 15 14  1  0
 14 13  1  0
 13 11  1  0
 12 11  2  0
 11 10  1  0
 10  7  1  0
  7  6  1  0
  6  5  1  0
  5  4  1  0
  4  2  1  6
  3  2  1  0
  2  1  2  0
  8  4  1  0
  9  8  1  0
 10  9  1  0
M  END
>  <smiles>  (230) 
CSc1ccc(Br)cc1CC(=O)N1CCC[C@H](C(N)=O)CC1

>  <inchikey>  (230) 
CVDDTGFVMVUXPC-NSHDSACASA-N

>  <alias>  (230) 
A5203b

$$$$
A5213a
     RDKit          3D

 19 20  0  0  0  0  0  0  0  0999 V2000
    9.4420    8.5650   23.1770 Cl  0  0  0  0  0  0  0  0  0  0  0  0
    8.5730    9.7260   24.1230 C   0  0  0  0  0  0  0  0  0  0  0  0
    7.5370    9.2490   24.7870 N   0  0  0  0  0  0  0  0  0  0  0  0
    6.9290   10.1660   25.5570 C   0  0  0  0  0  0  0  0  0  0  0  0
    7.3330   11.4810   25.6370 C   0  0  0  0  0  0  0  0  0  0  0  0
    9.0680   10.9450   24.0850 N   0  0  0  0  0  0  0  0  0  0  0  0
    8.4140   11.8340   24.8500 C   0  0  0  0  0  0  0  0  0  0  0  0
    8.9040   13.2560   24.7470 C   0  0  0  0  0  0  0  0  0  0  0  0
    8.6400   13.8360   23.3690 C   0  0  0  0  0  0  0  0  0  0  0  0
    7.7820   13.3640   22.6370 O   0  0  0  0  0  0  0  0  0  0  0  0
    9.4250   14.8630   22.9860 N   0  0  0  0  0  0  0  0  0  0  0  0
   10.5240   15.4260   23.7860 C   0  0  0  0  0  0  0  0  0  0  0  0
   11.8610   15.1770   23.1020 C   0  0  0  0  0  0  0  0  0  0  0  0
   11.8270   15.6600   21.6430 C   0  0  0  0  0  0  0  0  0  0  0  0
    9.3390   15.3580   21.6100 C   0  0  0  0  0  0  0  0  0  0  0  0
   10.6450   15.0310   20.8740 C   0  0  1  0  0  0  0  0  0  0  0  0
   10.5820   15.5210   19.4360 C   0  0  0  0  0  0  0  0  0  0  0  0
   10.2150   16.6680   19.1680 O   0  0  0  0  0  0  0  0  0  0  0  0
   10.9220   14.6380   18.5020 N   0  0  0  0  0  0  0  0  0  0  0  0
 19 17  1  0
 18 17  2  0
 16 17  1  6
 16 14  1  0
 14 13  1  0
 13 12  1  0
 12 11  1  0
 11  9  1  0
 10  9  2  0
  9  8  1  0
  8  7  1  0
  7  5  1  0
  5  4  2  0
  4  3  1  0
  3  2  2  0
  2  1  1  0
  6  2  1  0
  7  6  2  0
 15 11  1  0
 16 15  1  0
M  END
>  <smiles>  (231) 
NC(=O)[C@H]1CCCN(C(=O)Cc2ccnc(Cl)n2)C1

>  <inchikey>  (231) 
UJTNPOXHMLXHKO-QMMMGPOBSA-N

>  <alias>  (231) 
A5213a

$$$$
A5213b
     RDKit          3D

 19 20  0  0  0  0  0  0  0  0999 V2000
    9.6990    8.4510   23.1370 Cl  0  0  0  0  0  0  0  0  0  0  0  0
    8.8880    9.6200   24.1300 C   0  0  0  0  0  0  0  0  0  0  0  0
    7.8650    9.1540   24.8280 N   0  0  0  0  0  0  0  0  0  0  0  0
    7.3020   10.0700   25.6320 C   0  0  0  0  0  0  0  0  0  0  0  0
    7.7240   11.3820   25.7030 C   0  0  0  0  0  0  0  0  0  0  0  0
    9.4030   10.8330   24.0920 N   0  0  0  0  0  0  0  0  0  0  0  0
    8.7960   11.7240   24.8920 C   0  0  0  0  0  0  0  0  0  0  0  0
    9.3130   13.1410   24.7850 C   0  0  0  0  0  0  0  0  0  0  0  0
    8.9740   13.7490   23.4350 C   0  0  0  0  0  0  0  0  0  0  0  0
    8.0730   13.2860   22.7430 O   0  0  0  0  0  0  0  0  0  0  0  0
    9.7130   14.8100   23.0360 N   0  0  0  0  0  0  0  0  0  0  0  0
   10.7990   15.4580   23.7870 C   0  0  0  0  0  0  0  0  0  0  0  0
   12.1270   15.2310   23.0620 C   0  0  0  0  0  0  0  0  0  0  0  0
   12.0370   15.6960   21.5990 C   0  0  0  0  0  0  0  0  0  0  0  0
    9.5650   15.3220   21.6720 C   0  0  0  0  0  0  0  0  0  0  0  0
   10.8460   15.0360   20.8750 C   0  0  1  0  0  0  0  0  0  0  0  0
   10.7250   15.5310   19.4450 C   0  0  0  0  0  0  0  0  0  0  0  0
   10.3400   16.6840   19.2010 O   0  0  0  0  0  0  0  0  0  0  0  0
   11.0000   14.6430   18.4900 N   0  0  0  0  0  0  0  0  0  0  0  0
 19 17  1  0
 18 17  2  0
 16 17  1  6
 16 14  1  0
 14 13  1  0
 13 12  1  0
 12 11  1  0
 11  9  1  0
 10  9  2  0
  9  8  1  0
  8  7  1  0
  7  5  1  0
  5  4  2  0
  4  3  1  0
  3  2  2  0
  2  1  1  0
  6  2  1  0
  7  6  2  0
 15 11  1  0
 16 15  1  0
M  END
>  <smiles>  (232) 
NC(=O)[C@H]1CCCN(C(=O)Cc2ccnc(Cl)n2)C1

>  <inchikey>  (232) 
UJTNPOXHMLXHKO-QMMMGPOBSA-N

>  <alias>  (232) 
A5213b

$$$$
A5247a
     RDKit          3D

 22 23  0  0  0  0  0  0  0  0999 V2000
   10.1770   16.8800   19.0080 O   0  0  0  0  0  0  0  0  0  0  0  0
   10.5640   15.8030   19.4690 C   0  0  0  0  0  0  0  0  0  0  0  0
   10.9160   14.7810   18.6870 N   0  0  0  0  0  0  0  0  0  0  0  0
   10.5710   15.5510   20.9670 C   0  0  1  0  0  0  0  0  0  0  0  0
    9.4540   14.5660   21.2860 C   0  0  0  0  0  0  0  0  0  0  0  0
   11.9510   15.0920   21.4860 C   0  0  0  0  0  0  0  0  0  0  0  0
   11.8220   14.1850   22.7170 C   0  0  0  0  0  0  0  0  0  0  0  0
   10.5640   14.4660   23.5380 C   0  0  1  0  0  0  0  0  0  0  0  0
   10.5650   15.8270   24.2330 C   0  0  0  0  0  0  0  0  0  0  0  0
    9.3450   14.2590   22.7220 N   0  0  0  0  0  0  0  0  0  0  0  0
    8.1940   13.6930   23.1650 C   0  0  0  0  0  0  0  0  0  0  0  0
    7.3120   13.3690   22.3840 O   0  0  0  0  0  0  0  0  0  0  0  0
    8.0450   13.4500   24.6570 C   0  0  0  0  0  0  0  0  0  0  0  0
    7.2550   12.1950   24.9560 C   0  0  0  0  0  0  0  0  0  0  0  0
    7.7190   10.9000   24.6760 C   0  0  0  0  0  0  0  0  0  0  0  0
    9.1890   10.7400   23.7040 S   0  0  0  0  0  0  0  0  0  0  0  0
    9.3410    8.9850   23.4250 C   0  0  0  0  0  0  0  0  0  0  0  0
    6.0540   12.3410   25.6540 C   0  0  0  0  0  0  0  0  0  0  0  0
    5.3670   11.2270   26.0910 C   0  0  0  0  0  0  0  0  0  0  0  0
    3.7320   11.4660   27.0400 Br  0  0  0  0  0  0  0  0  0  0  0  0
    5.8270    9.9510   25.8390 C   0  0  0  0  0  0  0  0  0  0  0  0
    7.0100    9.7890   25.1310 C   0  0  0  0  0  0  0  0  0  0  0  0
 17 16  1  0
 16 15  1  0
 15 22  2  0
 22 21  1  0
 21 19  2  0
 20 19  1  0
 19 18  1  0
 18 14  2  0
 15 14  1  0
 14 13  1  0
 13 11  1  0
 12 11  2  0
 11 10  1  0
 10  5  1  0
  5  4  1  0
  4  2  1  6
  3  2  1  0
  2  1  2  0
  6  4  1  0
  7  6  1  0
  8  7  1  0
 10  8  1  0
  8  9  1  6
M  END
>  <smiles>  (233) 
CSc1ccc(Br)cc1CC(=O)N1C[C@H](C(N)=O)CC[C@H]1C

>  <inchikey>  (233) 
FMBXRAUPCZLXGY-GHMZBOCLSA-N

>  <alias>  (233) 
A5247a

$$$$
A5247b
     RDKit          3D

 22 23  0  0  0  0  0  0  0  0999 V2000
   10.3000   16.8450   18.9450 O   0  0  0  0  0  0  0  0  0  0  0  0
   10.7390   15.7860   19.4130 C   0  0  0  0  0  0  0  0  0  0  0  0
   10.9710   14.7120   18.6630 N   0  0  0  0  0  0  0  0  0  0  0  0
   10.8780   15.6000   20.9140 C   0  0  1  0  0  0  0  0  0  0  0  0
    9.7110   14.7430   21.4120 C   0  0  0  0  0  0  0  0  0  0  0  0
   12.2520   15.0340   21.2980 C   0  0  0  0  0  0  0  0  0  0  0  0
   12.2670   14.4040   22.7020 C   0  0  0  0  0  0  0  0  0  0  0  0
   11.0290   14.6890   23.5590 C   0  0  1  0  0  0  0  0  0  0  0  0
   10.9490   16.0850   24.1600 C   0  0  0  0  0  0  0  0  0  0  0  0
    9.7900   14.3360   22.8330 N   0  0  0  0  0  0  0  0  0  0  0  0
    8.7470   13.6640   23.3660 C   0  0  0  0  0  0  0  0  0  0  0  0
    7.7630   13.3630   22.6950 O   0  0  0  0  0  0  0  0  0  0  0  0
    8.8200   13.3040   24.8410 C   0  0  0  0  0  0  0  0  0  0  0  0
    7.9240   12.1280   25.1670 C   0  0  0  0  0  0  0  0  0  0  0  0
    8.1880   10.8270   24.7240 C   0  0  0  0  0  0  0  0  0  0  0  0
    9.5880   10.5860   23.6670 S   0  0  0  0  0  0  0  0  0  0  0  0
    9.5670    8.8280   23.3600 C   0  0  0  0  0  0  0  0  0  0  0  0
    6.8530   12.3400   26.0340 C   0  0  0  0  0  0  0  0  0  0  0  0
    6.0910   11.2750   26.4600 C   0  0  0  0  0  0  0  0  0  0  0  0
    4.6070   11.6040   27.6060 Br  0  0  0  0  0  0  0  0  0  0  0  0
    6.3590    9.9880   26.0540 C   0  0  0  0  0  0  0  0  0  0  0  0
    7.4030    9.7630   25.1650 C   0  0  0  0  0  0  0  0  0  0  0  0
 17 16  1  0
 16 15  1  0
 15 22  2  0
 22 21  1  0
 21 19  2  0
 20 19  1  0
 19 18  1  0
 18 14  2  0
 15 14  1  0
 14 13  1  0
 13 11  1  0
 12 11  2  0
 11 10  1  0
 10  5  1  0
  5  4  1  0
  4  2  1  6
  3  2  1  0
  2  1  2  0
  6  4  1  0
  7  6  1  0
  8  7  1  0
 10  8  1  0
  8  9  1  6
M  END
>  <smiles>  (234) 
CSc1ccc(Br)cc1CC(=O)N1C[C@H](C(N)=O)CC[C@H]1C

>  <inchikey>  (234) 
FMBXRAUPCZLXGY-GHMZBOCLSA-N

>  <alias>  (234) 
A5247b

$$$$
A5255a
     RDKit          3D

 20 22  0  0  0  0  0  0  0  0999 V2000
   10.3180   16.9890   19.0880 O   0  0  0  0  0  0  0  0  0  0  0  0
   10.6430   15.8350   19.3820 C   0  0  0  0  0  0  0  0  0  0  0  0
   10.7600   14.8760   18.4770 N   0  0  0  0  0  0  0  0  0  0  0  0
   10.9610   15.4660   20.8300 C   0  0  2  0  0  0  0  0  0  0  0  0
   11.4930   16.5300   21.8370 C   0  0  0  0  0  0  0  0  0  0  0  0
   12.2250   14.6240   21.1810 C   0  0  0  0  0  0  0  0  0  0  0  0
   12.1550   15.3280   22.5600 C   0  0  2  0  0  0  0  0  0  0  0  0
   11.1370   14.6600   23.4820 C   0  0  0  0  0  0  0  0  0  0  0  0
    9.7030   14.7990   21.4240 C   0  0  0  0  0  0  0  0  0  0  0  0
    9.9170   14.2550   22.7720 N   0  0  0  0  0  0  0  0  0  0  0  0
    8.9640   13.4560   23.3080 C   0  0  0  0  0  0  0  0  0  0  0  0
    7.8990   13.2450   22.7440 O   0  0  0  0  0  0  0  0  0  0  0  0
    9.2660   12.8400   24.6640 C   0  0  0  0  0  0  0  0  0  0  0  0
    8.1730   11.9110   25.1410 C   0  0  0  0  0  0  0  0  0  0  0  0
    8.1230   10.5690   24.7290 C   0  0  0  0  0  0  0  0  0  0  0  0
    9.1690    9.9710   23.8230 C   0  0  0  0  0  0  0  0  0  0  0  0
    7.2260   12.3860   26.0480 C   0  0  0  0  0  0  0  0  0  0  0  0
    6.2400   11.5510   26.5490 C   0  0  0  0  0  0  0  0  0  0  0  0
    6.1770   10.2430   26.1360 C   0  0  0  0  0  0  0  0  0  0  0  0
    7.1060    9.7570   25.2310 C   0  0  0  0  0  0  0  0  0  0  0  0
 16 15  1  0
 15 20  2  0
 20 19  1  0
 19 18  2  0
 18 17  1  0
 17 14  2  0
 15 14  1  0
 14 13  1  0
 13 11  1  0
 12 11  2  0
 11 10  1  0
 10  8  1  0
  7  8  1  1
  7  5  1  0
  5  4  1  0
  4  2  1  6
  3  2  1  0
  2  1  2  0
  9  4  1  0
 10  9  1  0
  6  4  1  0
  7  6  1  0
M  END
>  <smiles>  (235) 
Cc1ccccc1CC(=O)N1C[C@H]2C[C@@](C(N)=O)(C1)C2

>  <inchikey>  (235) 
NSXJPJIBAXHMJJ-YGUOUDRMSA-N

>  <alias>  (235) 
A5255a

$$$$
A5262a
     RDKit          3D

 21 23  0  0  0  0  0  0  0  0999 V2000
   10.0270   16.7830   18.9690 O   0  0  0  0  0  0  0  0  0  0  0  0
   10.0850   15.5900   19.2810 C   0  0  0  0  0  0  0  0  0  0  0  0
   10.5240   14.6470   18.4470 N   0  0  0  0  0  0  0  0  0  0  0  0
    9.6050   15.1210   20.6390 C   0  0  0  0  0  0  0  0  0  0  0  0
   10.7550   15.0860   21.6570 C   0  0  2  0  0  0  0  0  0  0  0  0
   11.5830   16.3430   22.0370 C   0  0  0  0  0  0  0  0  0  0  0  0
   12.1150   14.3880   21.3450 C   0  0  0  0  0  0  0  0  0  0  0  0
   12.5600   15.2530   22.5480 C   0  0  2  0  0  0  0  0  0  0  0  0
   11.7670   14.6120   23.6970 C   0  0  0  0  0  0  0  0  0  0  0  0
   10.4780   14.5660   23.0170 N   0  0  0  0  0  0  0  0  0  0  0  0
    9.3080   14.1800   23.5700 C   0  0  0  0  0  0  0  0  0  0  0  0
    8.2490   14.1930   22.9580 O   0  0  0  0  0  0  0  0  0  0  0  0
    9.3540   13.7400   25.0230 C   0  0  0  0  0  0  0  0  0  0  0  0
    8.3110   12.6920   25.3330 C   0  0  0  0  0  0  0  0  0  0  0  0
    8.3810   11.3770   24.8530 C   0  0  0  0  0  0  0  0  0  0  0  0
    9.7000   10.9160   23.7670 S   0  0  0  0  0  0  0  0  0  0  0  0
    9.5560    9.1450   23.6320 C   0  0  0  0  0  0  0  0  0  0  0  0
    7.2500   13.0370   26.1730 C   0  0  0  0  0  0  0  0  0  0  0  0
    6.3060   12.0950   26.5460 C   0  0  0  0  0  0  0  0  0  0  0  0
    6.3950   10.8030   26.0810 C   0  0  0  0  0  0  0  0  0  0  0  0
    7.4270   10.4360   25.2270 C   0  0  0  0  0  0  0  0  0  0  0  0
 17 16  1  0
 16 15  1  0
 15 21  2  0
 21 20  1  0
 20 19  2  0
 19 18  1  0
 18 14  2  0
 15 14  1  0
 14 13  1  0
 13 11  1  0
 12 11  2  0
 11 10  1  0
 10  9  1  0
  8  9  1  1
  8  6  1  0
  6  5  1  0
 10  5  1  0
  5  4  1  6
  4  2  1  0
  3  2  1  0
  2  1  2  0
  7  5  1  0
  8  7  1  0
M  END
>  <smiles>  (236) 
CSc1ccccc1CC(=O)N1C[C@H]2C[C@]1(CC(N)=O)C2

>  <inchikey>  (236) 
MXYVXUBBWVDIAO-AITUWYQGSA-N

>  <alias>  (236) 
A5262a

$$$$
A5262b
     RDKit          3D

 21 23  0  0  0  0  0  0  0  0999 V2000
   10.1430   16.8300   18.9240 O   0  0  0  0  0  0  0  0  0  0  0  0
   10.1790   15.6270   19.2430 C   0  0  0  0  0  0  0  0  0  0  0  0
   10.6030   14.6740   18.4170 N   0  0  0  0  0  0  0  0  0  0  0  0
    9.7380   15.1800   20.6220 C   0  0  0  0  0  0  0  0  0  0  0  0
   10.9290   15.1870   21.6010 C   0  0  2  0  0  0  0  0  0  0  0  0
   11.7930   16.4440   21.9340 C   0  0  0  0  0  0  0  0  0  0  0  0
   12.2700   14.4620   21.2690 C   0  0  0  0  0  0  0  0  0  0  0  0
   12.7710   15.3520   22.4340 C   0  0  2  0  0  0  0  0  0  0  0  0
   12.0070   14.7560   23.6220 C   0  0  0  0  0  0  0  0  0  0  0  0
   10.6870   14.7080   22.9680 N   0  0  0  0  0  0  0  0  0  0  0  0
    9.5250   14.3500   23.5660 C   0  0  0  0  0  0  0  0  0  0  0  0
    8.4370   14.4230   23.0000 O   0  0  0  0  0  0  0  0  0  0  0  0
    9.6110   13.8850   25.0110 C   0  0  0  0  0  0  0  0  0  0  0  0
    8.5500   12.8570   25.3370 C   0  0  0  0  0  0  0  0  0  0  0  0
    8.5930   11.5460   24.8420 C   0  0  0  0  0  0  0  0  0  0  0  0
    9.9410   11.1140   23.7820 S   0  0  0  0  0  0  0  0  0  0  0  0
    9.7840    9.3350   23.6230 C   0  0  0  0  0  0  0  0  0  0  0  0
    7.4980   13.2100   26.1850 C   0  0  0  0  0  0  0  0  0  0  0  0
    6.5290   12.2810   26.5430 C   0  0  0  0  0  0  0  0  0  0  0  0
    6.5860   10.9960   26.0490 C   0  0  0  0  0  0  0  0  0  0  0  0
    7.6120   10.6210   25.1950 C   0  0  0  0  0  0  0  0  0  0  0  0
 17 16  1  0
 16 15  1  0
 15 21  2  0
 21 20  1  0
 20 19  2  0
 19 18  1  0
 18 14  2  0
 15 14  1  0
 14 13  1  0
 13 11  1  0
 12 11  2  0
 11 10  1  0
 10  9  1  0
  8  9  1  1
  8  6  1  0
  6  5  1  0
 10  5  1  0
  5  4  1  6
  4  2  1  0
  3  2  1  0
  2  1  2  0
  7  5  1  0
  8  7  1  0
M  END
>  <smiles>  (237) 
CSc1ccccc1CC(=O)N1C[C@H]2C[C@]1(CC(N)=O)C2

>  <inchikey>  (237) 
MXYVXUBBWVDIAO-AITUWYQGSA-N

>  <alias>  (237) 
A5262b

$$$$
A5268a
     RDKit          3D

 21 22  0  0  0  0  0  0  0  0999 V2000
   10.2660   16.8500   19.0450 O   0  0  0  0  0  0  0  0  0  0  0  0
   10.5930   15.6990   19.3640 C   0  0  0  0  0  0  0  0  0  0  0  0
   11.0190   14.8050   18.4880 N   0  0  0  0  0  0  0  0  0  0  0  0
   10.5310   15.2350   20.8100 C   0  0  1  0  0  0  0  0  0  0  0  0
   11.5540   15.9800   21.6800 C   0  0  0  0  0  0  0  0  0  0  0  0
   11.5330   15.4720   23.1280 C   0  0  1  0  0  0  0  0  0  0  0  0
   12.5080   16.2500   24.0040 C   0  0  0  0  0  0  0  0  0  0  0  0
   10.1170   15.5590   23.6870 C   0  0  0  0  0  0  0  0  0  0  0  0
    9.1330   15.3540   21.4330 C   0  0  0  0  0  0  0  0  0  0  0  0
    9.1560   14.8720   22.8190 N   0  0  0  0  0  0  0  0  0  0  0  0
    8.3350   13.8810   23.2490 C   0  0  0  0  0  0  0  0  0  0  0  0
    7.5180   13.3490   22.5120 O   0  0  0  0  0  0  0  0  0  0  0  0
    8.4280   13.5060   24.7180 C   0  0  0  0  0  0  0  0  0  0  0  0
    7.6100   12.2870   25.0760 C   0  0  0  0  0  0  0  0  0  0  0  0
    7.9290   10.9960   24.6290 C   0  0  0  0  0  0  0  0  0  0  0  0
    9.3600   10.7960   23.6050 S   0  0  0  0  0  0  0  0  0  0  0  0
    9.4650    9.0150   23.4010 C   0  0  0  0  0  0  0  0  0  0  0  0
    6.5160   12.4420   25.9300 C   0  0  0  0  0  0  0  0  0  0  0  0
    5.7480   11.3570   26.3160 C   0  0  0  0  0  0  0  0  0  0  0  0
    6.0580   10.0980   25.8580 C   0  0  0  0  0  0  0  0  0  0  0  0
    7.1460    9.9090   25.0180 C   0  0  0  0  0  0  0  0  0  0  0  0
 17 16  1  0
 16 15  1  0
 15 21  2  0
 21 20  1  0
 20 19  2  0
 19 18  1  0
 18 14  2  0
 15 14  1  0
 14 13  1  0
 13 11  1  0
 12 11  2  0
 11 10  1  0
 10  8  1  0
  8  6  1  0
  6  7  1  1
  6  5  1  0
  5  4  1  0
  4  2  1  6
  3  2  1  0
  2  1  2  0
  9  4  1  0
 10  9  1  0
M  END
>  <smiles>  (238) 
CSc1ccccc1CC(=O)N1C[C@H](C)C[C@H](C(N)=O)C1

>  <inchikey>  (238) 
KCUWPJSIVYQWJM-YPMHNXCESA-N

>  <alias>  (238) 
A5268a

$$$$
A5289a
     RDKit          3D

 24 25  0  0  0  0  0  0  0  0999 V2000
   10.3140   16.7110   19.2240 O   0  0  0  0  0  0  0  0  0  0  0  0
   10.6290   15.5340   19.4380 C   0  0  0  0  0  0  0  0  0  0  0  0
   10.9420   14.6700   18.4740 N   0  0  0  0  0  0  0  0  0  0  0  0
   10.6750   14.9780   20.8500 C   0  0  1  0  0  0  0  0  0  0  0  0
   11.7210   15.6990   21.7190 C   0  0  0  0  0  0  0  0  0  0  0  0
   11.6930   15.1470   23.1550 C   0  0  0  0  0  0  0  0  0  0  0  0
   10.2960   15.2470   23.7370 C   0  0  0  0  0  0  0  0  0  0  0  0
    9.2870   15.1710   21.4690 C   0  0  0  0  0  0  0  0  0  0  0  0
    9.2940   14.6540   22.8380 N   0  0  0  0  0  0  0  0  0  0  0  0
    8.4220   13.6610   23.1920 C   0  0  0  0  0  0  0  0  0  0  0  0
    7.5410   13.2870   22.4350 O   0  0  0  0  0  0  0  0  0  0  0  0
    8.6420   13.0870   24.4000 N   0  0  0  0  0  0  0  0  0  0  0  0
    7.7390   12.0880   24.8600 C   0  0  0  0  0  0  0  0  0  0  0  0
    7.9570   10.7430   24.5570 C   0  0  0  0  0  0  0  0  0  0  0  0
    9.0470   10.4930   23.7680 O   0  0  0  0  0  0  0  0  0  0  0  0
    9.3850    9.1310   23.5130 C   0  0  0  0  0  0  0  0  0  0  0  0
    6.6670   12.4530   25.6800 C   0  0  0  0  0  0  0  0  0  0  0  0
    6.4240   14.1810   25.9560 S   0  0  0  0  0  0  0  0  0  0  0  0
    5.1960   14.2290   27.3080 C   0  0  0  0  0  0  0  0  0  0  0  0
    3.8480   14.0440   26.6540 C   0  0  0  0  0  0  0  0  0  0  0  0
    5.3240   15.5980   27.9470 C   0  0  0  0  0  0  0  0  0  0  0  0
    5.8390   11.4690   26.2160 C   0  0  0  0  0  0  0  0  0  0  0  0
    6.0720   10.1350   25.9150 C   0  0  0  0  0  0  0  0  0  0  0  0
    7.1250    9.7670   25.0870 C   0  0  0  0  0  0  0  0  0  0  0  0
 16 15  1  0
 15 14  1  0
 14 24  2  0
 24 23  1  0
 23 22  2  0
 22 17  1  0
 18 17  1  0
 19 18  1  0
 21 19  1  0
 20 19  1  0
 17 13  2  0
 14 13  1  0
 13 12  1  0
 12 10  1  0
 11 10  2  0
 10  9  1  0
  9  7  1  0
  7  6  1  0
  6  5  1  0
  5  4  1  0
  4  2  1  6
  3  2  1  0
  2  1  2  0
  8  4  1  0
  9  8  1  0
M  END
>  <smiles>  (239) 
COc1cccc(SC(C)C)c1NC(=O)N1CCC[C@H](C(N)=O)C1

>  <inchikey>  (239) 
OFDCWASTDCXECL-LBPRGKRZSA-N

>  <alias>  (239) 
A5289a

$$$$
A5289b
     RDKit          3D

 24 25  0  0  0  0  0  0  0  0999 V2000
   10.3230   16.7300   19.2370 O   0  0  0  0  0  0  0  0  0  0  0  0
   10.7050   15.5690   19.4380 C   0  0  0  0  0  0  0  0  0  0  0  0
   10.9550   14.6990   18.4640 N   0  0  0  0  0  0  0  0  0  0  0  0
   10.8160   15.0260   20.8480 C   0  0  1  0  0  0  0  0  0  0  0  0
   11.8870   15.7860   21.6500 C   0  0  0  0  0  0  0  0  0  0  0  0
   11.9220   15.2930   23.1080 C   0  0  0  0  0  0  0  0  0  0  0  0
   10.5370   15.3930   23.7280 C   0  0  0  0  0  0  0  0  0  0  0  0
    9.4520   15.1810   21.5320 C   0  0  0  0  0  0  0  0  0  0  0  0
    9.5550   14.6760   22.9030 N   0  0  0  0  0  0  0  0  0  0  0  0
    8.7470   13.6460   23.3140 C   0  0  0  0  0  0  0  0  0  0  0  0
    7.8110   13.2580   22.6300 O   0  0  0  0  0  0  0  0  0  0  0  0
    9.0810   13.0580   24.4990 N   0  0  0  0  0  0  0  0  0  0  0  0
    8.1950   12.0670   25.0320 C   0  0  0  0  0  0  0  0  0  0  0  0
    8.3380   10.7250   24.6920 C   0  0  0  0  0  0  0  0  0  0  0  0
    9.3320   10.4550   23.7950 O   0  0  0  0  0  0  0  0  0  0  0  0
    9.5930    9.0800   23.5020 C   0  0  0  0  0  0  0  0  0  0  0  0
    7.2110   12.4490   25.9500 C   0  0  0  0  0  0  0  0  0  0  0  0
    7.0900   14.1810   26.2950 S   0  0  0  0  0  0  0  0  0  0  0  0
    5.6200   14.2910   27.3770 C   0  0  0  0  0  0  0  0  0  0  0  0
    5.1660   15.7210   27.1760 C   0  0  0  0  0  0  0  0  0  0  0  0
    6.0950   14.0410   28.7930 C   0  0  0  0  0  0  0  0  0  0  0  0
    6.3920   11.4880   26.5370 C   0  0  0  0  0  0  0  0  0  0  0  0
    6.5610   10.1540   26.2090 C   0  0  0  0  0  0  0  0  0  0  0  0
    7.5230    9.7640   25.2860 C   0  0  0  0  0  0  0  0  0  0  0  0
 16 15  1  0
 15 14  1  0
 14 24  2  0
 24 23  1  0
 23 22  2  0
 22 17  1  0
 18 17  1  0
 19 18  1  0
 21 19  1  0
 20 19  1  0
 17 13  2  0
 14 13  1  0
 13 12  1  0
 12 10  1  0
 11 10  2  0
 10  9  1  0
  9  7  1  0
  7  6  1  0
  6  5  1  0
  5  4  1  0
  4  2  1  6
  3  2  1  0
  2  1  2  0
  8  4  1  0
  9  8  1  0
M  END
>  <smiles>  (240) 
COc1cccc(SC(C)C)c1NC(=O)N1CCC[C@H](C(N)=O)C1

>  <inchikey>  (240) 
OFDCWASTDCXECL-LBPRGKRZSA-N

>  <alias>  (240) 
A5289b

$$$$
A5339a
     RDKit          3D

 22 23  0  0  0  0  0  0  0  0999 V2000
   10.3890   17.0750   18.9950 O   0  0  0  0  0  0  0  0  0  0  0  0
   10.4710   15.9680   19.5360 C   0  0  0  0  0  0  0  0  0  0  0  0
   10.8220   14.8770   18.8640 N   0  0  0  0  0  0  0  0  0  0  0  0
   10.2200   15.8050   21.0260 C   0  0  1  0  0  0  0  0  0  0  0  0
    9.7400   14.4010   21.4130 C   0  0  0  0  0  0  0  0  0  0  0  0
   11.4780   16.1100   21.8370 C   0  0  0  0  0  0  0  0  0  0  0  0
   11.1690   16.0370   23.3340 C   0  0  0  0  0  0  0  0  0  0  0  0
   10.6110   14.6730   23.7460 C   0  0  2  0  0  0  0  0  0  0  0  0
   11.6970   13.6060   23.8130 C   0  0  0  0  0  0  0  0  0  0  0  0
    9.5020   14.2630   22.8570 N   0  0  0  0  0  0  0  0  0  0  0  0
    8.3640   13.6560   23.2880 C   0  0  0  0  0  0  0  0  0  0  0  0
    7.4760   13.3270   22.5060 O   0  0  0  0  0  0  0  0  0  0  0  0
    8.2290   13.3540   24.7690 C   0  0  0  0  0  0  0  0  0  0  0  0
    7.3470   12.1510   25.0230 C   0  0  0  0  0  0  0  0  0  0  0  0
    7.7130   10.8390   24.6860 C   0  0  0  0  0  0  0  0  0  0  0  0
    9.1340   10.6150   23.6520 S   0  0  0  0  0  0  0  0  0  0  0  0
    9.2070    8.8430   23.3920 C   0  0  0  0  0  0  0  0  0  0  0  0
    6.1690   12.3540   25.7450 C   0  0  0  0  0  0  0  0  0  0  0  0
    5.4200   11.2700   26.1540 C   0  0  0  0  0  0  0  0  0  0  0  0
    3.8190   11.5730   27.1300 Br  0  0  0  0  0  0  0  0  0  0  0  0
    5.7930    9.9780   25.8630 C   0  0  0  0  0  0  0  0  0  0  0  0
    6.9450    9.7610   25.1250 C   0  0  0  0  0  0  0  0  0  0  0  0
 17 16  1  0
 16 15  1  0
 15 22  2  0
 22 21  1  0
 21 19  2  0
 20 19  1  0
 19 18  1  0
 18 14  2  0
 15 14  1  0
 14 13  1  0
 13 11  1  0
 12 11  2  0
 11 10  1  0
 10  5  1  0
  5  4  1  0
  4  2  1  6
  3  2  1  0
  2  1  2  0
  6  4  1  0
  7  6  1  0
  8  7  1  0
 10  8  1  0
  8  9  1  6
M  END
>  <smiles>  (241) 
CSc1ccc(Br)cc1CC(=O)N1C[C@H](C(N)=O)CC[C@@H]1C

>  <inchikey>  (241) 
FMBXRAUPCZLXGY-WDEREUQCSA-N

>  <alias>  (241) 
A5339a

$$$$
A5339b
     RDKit          3D

 22 23  0  0  0  0  0  0  0  0999 V2000
   10.4230   17.0610   18.9980 O   0  0  0  0  0  0  0  0  0  0  0  0
   10.5910   15.9660   19.5390 C   0  0  0  0  0  0  0  0  0  0  0  0
   10.9070   14.8760   18.8470 N   0  0  0  0  0  0  0  0  0  0  0  0
   10.4300   15.8020   21.0440 C   0  0  1  0  0  0  0  0  0  0  0  0
    9.9820   14.4010   21.4880 C   0  0  0  0  0  0  0  0  0  0  0  0
   11.7360   16.1400   21.7710 C   0  0  0  0  0  0  0  0  0  0  0  0
   11.5360   16.0680   23.2830 C   0  0  0  0  0  0  0  0  0  0  0  0
   11.0390   14.6990   23.7440 C   0  0  2  0  0  0  0  0  0  0  0  0
   12.1420   13.6510   23.7460 C   0  0  0  0  0  0  0  0  0  0  0  0
    9.8680   14.2620   22.9510 N   0  0  0  0  0  0  0  0  0  0  0  0
    8.7600   13.6490   23.4760 C   0  0  0  0  0  0  0  0  0  0  0  0
    7.8180   13.3050   22.7610 O   0  0  0  0  0  0  0  0  0  0  0  0
    8.7440   13.3280   24.9630 C   0  0  0  0  0  0  0  0  0  0  0  0
    7.8860   12.1240   25.2930 C   0  0  0  0  0  0  0  0  0  0  0  0
    8.1380   10.8290   24.8110 C   0  0  0  0  0  0  0  0  0  0  0  0
    9.5150   10.5970   23.7190 S   0  0  0  0  0  0  0  0  0  0  0  0
    9.4500    8.8500   23.3190 C   0  0  0  0  0  0  0  0  0  0  0  0
    6.8150   12.3140   26.1720 C   0  0  0  0  0  0  0  0  0  0  0  0
    6.0300   11.2440   26.5530 C   0  0  0  0  0  0  0  0  0  0  0  0
    4.5280   11.5540   27.6850 Br  0  0  0  0  0  0  0  0  0  0  0  0
    6.2850    9.9680   26.1050 C   0  0  0  0  0  0  0  0  0  0  0  0
    7.3430    9.7610   25.2310 C   0  0  0  0  0  0  0  0  0  0  0  0
 17 16  1  0
 16 15  1  0
 15 22  2  0
 22 21  1  0
 21 19  2  0
 20 19  1  0
 19 18  1  0
 18 14  2  0
 15 14  1  0
 14 13  1  0
 13 11  1  0
 12 11  2  0
 11 10  1  0
 10  5  1  0
  5  4  1  0
  4  2  1  6
  3  2  1  0
  2  1  2  0
  6  4  1  0
  7  6  1  0
  8  7  1  0
 10  8  1  0
  8  9  1  6
M  END
>  <smiles>  (242) 
CSc1ccc(Br)cc1CC(=O)N1C[C@H](C(N)=O)CC[C@@H]1C

>  <inchikey>  (242) 
FMBXRAUPCZLXGY-WDEREUQCSA-N

>  <alias>  (242) 
A5339b

$$$$
A5366a
     RDKit          3D

 22 23  0  0  0  0  0  0  0  0999 V2000
   10.5110   16.7930   19.2600 O   0  0  0  0  0  0  0  0  0  0  0  0
   10.8360   15.6180   19.4460 C   0  0  0  0  0  0  0  0  0  0  0  0
   11.0990   14.7790   18.4550 N   0  0  0  0  0  0  0  0  0  0  0  0
   10.8770   15.0250   20.8450 C   0  0  2  0  0  0  0  0  0  0  0  0
    9.5220   15.1790   21.5400 C   0  0  0  0  0  0  0  0  0  0  0  0
   11.9690   15.6800   21.7060 C   0  0  0  0  0  0  0  0  0  0  0  0
   11.9730   15.0930   23.1210 C   0  0  0  0  0  0  0  0  0  0  0  0
   10.6030   15.1790   23.7950 C   0  0  1  0  0  0  0  0  0  0  0  0
   10.2660   16.5860   24.2470 C   0  0  0  0  0  0  0  0  0  0  0  0
    9.5550   14.6390   22.9030 N   0  0  0  0  0  0  0  0  0  0  0  0
    8.6270   13.7350   23.3110 C   0  0  0  0  0  0  0  0  0  0  0  0
    7.7230   13.3760   22.5660 O   0  0  0  0  0  0  0  0  0  0  0  0
    8.7060   13.2140   24.7360 C   0  0  0  0  0  0  0  0  0  0  0  0
    7.7130   12.1050   25.0020 C   0  0  0  0  0  0  0  0  0  0  0  0
    7.9130   10.7760   24.5980 C   0  0  0  0  0  0  0  0  0  0  0  0
    9.2830   10.4770   23.5260 S   0  0  0  0  0  0  0  0  0  0  0  0
    9.3010    8.6840   23.3570 C   0  0  0  0  0  0  0  0  0  0  0  0
    6.6240   12.3930   25.8180 C   0  0  0  0  0  0  0  0  0  0  0  0
    5.7910   11.3770   26.2420 C   0  0  0  0  0  0  0  0  0  0  0  0
    4.3320   11.8090   27.3810 Br  0  0  0  0  0  0  0  0  0  0  0  0
    5.9960   10.0670   25.8730 C   0  0  0  0  0  0  0  0  0  0  0  0
    7.0640    9.7630   25.0470 C   0  0  0  0  0  0  0  0  0  0  0  0
 17 16  1  0
 16 15  1  0
 15 22  2  0
 22 21  1  0
 21 19  2  0
 20 19  1  0
 19 18  1  0
 18 14  2  0
 15 14  1  0
 14 13  1  0
 13 11  1  0
 12 11  2  0
 11 10  1  0
 10  5  1  0
  5  4  1  0
  4  2  1  6
  3  2  1  0
  2  1  2  0
  6  4  1  0
  7  6  1  0
  8  7  1  0
 10  8  1  0
  8  9  1  6
M  END
>  <smiles>  (243) 
CSc1ccc(Br)cc1CC(=O)N1C[C@@H](C(N)=O)CC[C@H]1C

>  <inchikey>  (243) 
FMBXRAUPCZLXGY-MNOVXSKESA-N

>  <alias>  (243) 
A5366a

$$$$
A5366b
     RDKit          3D

 22 23  0  0  0  0  0  0  0  0999 V2000
   10.4120   16.7620   19.2360 O   0  0  0  0  0  0  0  0  0  0  0  0
   10.7860   15.5980   19.4130 C   0  0  0  0  0  0  0  0  0  0  0  0
   11.0030   14.7490   18.4200 N   0  0  0  0  0  0  0  0  0  0  0  0
   10.9200   15.0240   20.8120 C   0  0  2  0  0  0  0  0  0  0  0  0
    9.5970   15.1570   21.5740 C   0  0  0  0  0  0  0  0  0  0  0  0
   12.0410   15.7210   21.6030 C   0  0  0  0  0  0  0  0  0  0  0  0
   12.1360   15.1500   23.0240 C   0  0  0  0  0  0  0  0  0  0  0  0
   10.8010   15.1950   23.7640 C   0  0  1  0  0  0  0  0  0  0  0  0
   10.4500   16.5930   24.2410 C   0  0  0  0  0  0  0  0  0  0  0  0
    9.7190   14.6240   22.9330 N   0  0  0  0  0  0  0  0  0  0  0  0
    8.8300   13.6930   23.3920 C   0  0  0  0  0  0  0  0  0  0  0  0
    7.8780   13.3240   22.7120 O   0  0  0  0  0  0  0  0  0  0  0  0
    9.0100   13.1680   24.8070 C   0  0  0  0  0  0  0  0  0  0  0  0
    8.0610   12.0350   25.1290 C   0  0  0  0  0  0  0  0  0  0  0  0
    8.2640   10.7160   24.6940 C   0  0  0  0  0  0  0  0  0  0  0  0
    9.5750   10.4530   23.5360 S   0  0  0  0  0  0  0  0  0  0  0  0
    9.6450    8.6690   23.3730 C   0  0  0  0  0  0  0  0  0  0  0  0
    7.0120   12.2950   26.0110 C   0  0  0  0  0  0  0  0  0  0  0  0
    6.2170   11.2630   26.4680 C   0  0  0  0  0  0  0  0  0  0  0  0
    4.7920   11.6610   27.6710 Br  0  0  0  0  0  0  0  0  0  0  0  0
    6.4240    9.9610   26.0660 C   0  0  0  0  0  0  0  0  0  0  0  0
    7.4520    9.6860   25.1730 C   0  0  0  0  0  0  0  0  0  0  0  0
 17 16  1  0
 16 15  1  0
 15 22  2  0
 22 21  1  0
 21 19  2  0
 20 19  1  0
 19 18  1  0
 18 14  2  0
 15 14  1  0
 14 13  1  0
 13 11  1  0
 12 11  2  0
 11 10  1  0
 10  5  1  0
  5  4  1  0
  4  2  1  6
  3  2  1  0
  2  1  2  0
  6  4  1  0
  7  6  1  0
  8  7  1  0
 10  8  1  0
  8  9  1  6
M  END
>  <smiles>  (244) 
CSc1ccc(Br)cc1CC(=O)N1C[C@@H](C(N)=O)CC[C@H]1C

>  <inchikey>  (244) 
FMBXRAUPCZLXGY-MNOVXSKESA-N

>  <alias>  (244) 
A5366b

$$$$
A5388a
     RDKit          3D

 21 22  0  0  0  0  0  0  0  0999 V2000
   10.1960   16.3170   19.3060 O   0  0  0  0  0  0  0  0  0  0  0  0
   10.9660   15.3720   19.4710 C   0  0  0  0  0  0  0  0  0  0  0  0
   11.4960   14.7090   18.4510 N   0  0  0  0  0  0  0  0  0  0  0  0
   11.3050   14.8660   20.8930 C   0  0  1  0  0  0  0  0  0  0  0  0
   12.1650   13.7260   20.8440 O   0  0  0  0  0  0  0  0  0  0  0  0
   11.9190   15.8920   21.8500 C   0  0  0  0  0  0  0  0  0  0  0  0
   11.6550   15.3030   23.2350 C   0  0  0  0  0  0  0  0  0  0  0  0
   10.0230   14.4950   21.6350 C   0  0  0  0  0  0  0  0  0  0  0  0
   10.3750   14.6070   23.0530 N   0  0  0  0  0  0  0  0  0  0  0  0
    9.5990   14.2120   24.0840 C   0  0  0  0  0  0  0  0  0  0  0  0
    9.9790   14.2790   25.2430 O   0  0  0  0  0  0  0  0  0  0  0  0
    8.1970   13.7330   23.7470 C   0  0  0  0  0  0  0  0  0  0  0  0
    7.7320   12.5920   24.6250 C   0  0  0  0  0  0  0  0  0  0  0  0
    8.1220   11.2600   24.4170 C   0  0  0  0  0  0  0  0  0  0  0  0
    9.3840   10.9570   23.2150 S   0  0  0  0  0  0  0  0  0  0  0  0
    9.4790    9.1540   23.1490 C   0  0  0  0  0  0  0  0  0  0  0  0
    6.7760   12.8600   25.6070 C   0  0  0  0  0  0  0  0  0  0  0  0
    6.1930   11.8220   26.3070 C   0  0  0  0  0  0  0  0  0  0  0  0
    4.8130   12.2070   27.5580 Br  0  0  0  0  0  0  0  0  0  0  0  0
    6.5550   10.5120   26.0920 C   0  0  0  0  0  0  0  0  0  0  0  0
    7.5280   10.2310   25.1480 C   0  0  0  0  0  0  0  0  0  0  0  0
 16 15  1  0
 15 14  1  0
 14 21  2  0
 21 20  1  0
 20 18  2  0
 19 18  1  0
 18 17  1  0
 17 13  2  0
 14 13  1  0
 13 12  1  0
 12 10  1  0
 11 10  2  0
 10  9  1  0
  9  7  1  0
  7  6  1  0
  6  4  1  0
  4  5  1  6
  4  2  1  0
  3  2  1  0
  2  1  2  0
  8  4  1  0
  9  8  1  0
M  END
>  <smiles>  (245) 
CSc1ccc(Br)cc1CC(=O)N1CC[C@](O)(C(N)=O)C1

>  <inchikey>  (245) 
YQWOXKTZBWAQJN-CQSZACIVSA-N

>  <alias>  (245) 
A5388a

$$$$
A5598a
     RDKit          3D

 26 28  0  0  0  0  0  0  0  0999 V2000
   10.2810   16.6330   19.2560 O   0  0  0  0  0  0  0  0  0  0  0  0
   10.6410   15.4720   19.4630 C   0  0  0  0  0  0  0  0  0  0  0  0
   11.0330   14.6540   18.4850 N   0  0  0  0  0  0  0  0  0  0  0  0
   10.6120   14.8810   20.8640 C   0  0  1  0  0  0  0  0  0  0  0  0
   11.7420   15.4430   21.7440 C   0  0  0  0  0  0  0  0  0  0  0  0
   11.6530   14.8790   23.1700 C   0  0  0  0  0  0  0  0  0  0  0  0
   10.2850   15.1520   23.7690 C   0  0  0  0  0  0  0  0  0  0  0  0
    9.2650   15.2380   21.5080 C   0  0  0  0  0  0  0  0  0  0  0  0
    9.1930   14.7120   22.8760 N   0  0  0  0  0  0  0  0  0  0  0  0
    8.3090   13.7050   23.1700 C   0  0  0  0  0  0  0  0  0  0  0  0
    7.5440   13.2600   22.3270 O   0  0  0  0  0  0  0  0  0  0  0  0
    8.2810   13.2870   24.4640 N   0  0  0  0  0  0  0  0  0  0  0  0
    7.5130   12.1940   24.9160 C   0  0  0  0  0  0  0  0  0  0  0  0
    7.9020   10.8960   24.5420 C   0  0  0  0  0  0  0  0  0  0  0  0
    9.3320   10.6910   23.5190 S   0  0  0  0  0  0  0  0  0  0  0  0
    9.3680    8.9180   23.2050 C   0  0  0  0  0  0  0  0  0  0  0  0
    6.4060   12.3610   25.7510 C   0  0  0  0  0  0  0  0  0  0  0  0
    5.6790   11.2660   26.2310 C   0  0  0  0  0  0  0  0  0  0  0  0
    6.0870    9.9890   25.8490 C   0  0  0  0  0  0  0  0  0  0  0  0
    7.1830    9.8040   25.0230 C   0  0  0  0  0  0  0  0  0  0  0  0
    4.5180   11.4390   27.0310 N   0  0  0  0  0  0  0  0  0  0  0  0
    3.9900   10.2780   27.7700 C   0  0  0  0  0  0  0  0  0  0  0  0
    2.5610   10.5080   28.2250 C   0  0  0  0  0  0  0  0  0  0  0  0
    2.4190   11.7440   28.9210 O   0  0  0  0  0  0  0  0  0  0  0  0
    2.7800   12.8270   28.0570 C   0  0  0  0  0  0  0  0  0  0  0  0
    4.2410   12.7420   27.6520 C   0  0  0  0  0  0  0  0  0  0  0  0
 16 15  1  0
 15 14  1  0
 14 20  2  0
 20 19  1  0
 19 18  2  0
 21 18  1  0
 21 26  1  0
 26 25  1  0
 25 24  1  0
 24 23  1  0
 23 22  1  0
 22 21  1  0
 18 17  1  0
 17 13  2  0
 14 13  1  0
 13 12  1  0
 12 10  1  0
 11 10  2  0
 10  9  1  0
  9  7  1  0
  7  6  1  0
  6  5  1  0
  5  4  1  0
  4  2  1  6
  3  2  1  0
  2  1  2  0
  8  4  1  0
  9  8  1  0
M  END
>  <smiles>  (246) 
CSc1ccc(N2CCOCC2)cc1NC(=O)N1CCC[C@H](C(N)=O)C1

>  <inchikey>  (246) 
DTYSDMKYQACGHV-ZDUSSCGKSA-N

>  <alias>  (246) 
A5598a

$$$$
A5598b
     RDKit          3D

 26 28  0  0  0  0  0  0  0  0999 V2000
   10.3150   16.5750   19.3000 O   0  0  0  0  0  0  0  0  0  0  0  0
   10.7110   15.4190   19.5030 C   0  0  0  0  0  0  0  0  0  0  0  0
   11.0540   14.5910   18.5200 N   0  0  0  0  0  0  0  0  0  0  0  0
   10.7880   14.8530   20.9130 C   0  0  1  0  0  0  0  0  0  0  0  0
   11.9650   15.4650   21.6970 C   0  0  0  0  0  0  0  0  0  0  0  0
   12.0110   14.9250   23.1400 C   0  0  0  0  0  0  0  0  0  0  0  0
   10.6950   15.2050   23.8560 C   0  0  0  0  0  0  0  0  0  0  0  0
    9.5060   15.2040   21.6780 C   0  0  0  0  0  0  0  0  0  0  0  0
    9.5640   14.7060   23.0580 N   0  0  0  0  0  0  0  0  0  0  0  0
    8.7570   13.6680   23.4410 C   0  0  0  0  0  0  0  0  0  0  0  0
    7.9230   13.2060   22.6800 O   0  0  0  0  0  0  0  0  0  0  0  0
    8.8890   13.2250   24.7320 N   0  0  0  0  0  0  0  0  0  0  0  0
    8.1260   12.1430   25.2550 C   0  0  0  0  0  0  0  0  0  0  0  0
    8.4150   10.8400   24.8210 C   0  0  0  0  0  0  0  0  0  0  0  0
    9.7260   10.6160   23.6630 S   0  0  0  0  0  0  0  0  0  0  0  0
    9.7010    8.8490   23.3150 C   0  0  0  0  0  0  0  0  0  0  0  0
    7.1000   12.3390   26.1740 C   0  0  0  0  0  0  0  0  0  0  0  0
    6.3580   11.2730   26.6880 C   0  0  0  0  0  0  0  0  0  0  0  0
    6.6650    9.9810   26.2450 C   0  0  0  0  0  0  0  0  0  0  0  0
    7.6800    9.7690   25.3260 C   0  0  0  0  0  0  0  0  0  0  0  0
    5.3310   11.4940   27.6450 N   0  0  0  0  0  0  0  0  0  0  0  0
    4.6350   10.3340   28.2270 C   0  0  0  0  0  0  0  0  0  0  0  0
    3.8980   10.7440   29.4870 C   0  0  0  0  0  0  0  0  0  0  0  0
    3.0310   11.8640   29.2530 O   0  0  0  0  0  0  0  0  0  0  0  0
    3.7790   12.9970   28.8040 C   0  0  0  0  0  0  0  0  0  0  0  0
    4.4960   12.7010   27.5050 C   0  0  0  0  0  0  0  0  0  0  0  0
 16 15  1  0
 15 14  1  0
 14 20  2  0
 20 19  1  0
 19 18  2  0
 21 18  1  0
 21 26  1  0
 26 25  1  0
 25 24  1  0
 24 23  1  0
 23 22  1  0
 22 21  1  0
 18 17  1  0
 17 13  2  0
 14 13  1  0
 13 12  1  0
 12 10  1  0
 11 10  2  0
 10  9  1  0
  9  7  1  0
  7  6  1  0
  6  5  1  0
  5  4  1  0
  4  2  1  6
  3  2  1  0
  2  1  2  0
  8  4  1  0
  9  8  1  0
M  END
>  <smiles>  (247) 
CSc1ccc(N2CCOCC2)cc1NC(=O)N1CCC[C@H](C(N)=O)C1

>  <inchikey>  (247) 
DTYSDMKYQACGHV-ZDUSSCGKSA-N

>  <alias>  (247) 
A5598b

$$$$
