XX01ZVNS2B-x5067_B_203_7_XX01ZVNS2B-x4590+B+203+1__LIG
     RDKit          3D

 25 29  0  0  0  0  0  0  0  0999 V2000
   -6.5910    5.4290  -12.6400 O   0  0  0  0  0  0  0  0  0  0  0  0
   -7.3950    4.7060  -13.2270 C   0  0  0  0  0  0  0  0  0  0  0  0
   -7.3870    4.6130  -14.7220 C   0  0  0  0  0  0  0  0  0  0  0  0
   -6.1880    4.9550  -15.3460 C   0  0  0  0  0  0  0  0  0  0  0  0
   -6.1020    4.9620  -16.7400 C   0  0  0  0  0  0  0  0  0  0  0  0
   -5.0480    5.2360  -17.6850 C   0  0  0  0  0  0  0  0  0  0  0  0
   -5.5700    5.0590  -18.9390 C   0  0  0  0  0  0  0  0  0  0  0  0
   -4.9130    5.1690  -20.2590 C   0  0  0  0  0  0  0  0  0  0  0  0
   -4.7220    6.6070  -20.8010 C   0  0  0  0  0  0  0  0  0  0  0  0
   -3.3700    6.2010  -21.2540 N   0  0  0  0  0  0  0  0  0  0  0  0
   -3.3680    5.0580  -20.3080 C   0  0  0  0  0  0  0  0  0  0  0  0
   -6.8910    4.6940  -18.8340 N   0  0  0  0  0  0  0  0  0  0  0  0
   -7.2380    4.6210  -17.4930 C   0  0  0  0  0  0  0  0  0  0  0  0
   -8.4400    4.2670  -16.8850 C   0  0  0  0  0  0  0  0  0  0  0  0
   -8.5010    4.2650  -15.4970 C   0  0  0  0  0  0  0  0  0  0  0  0
   -8.3070    3.9440  -12.5710 N   0  0  0  0  0  0  0  0  0  0  0  0
   -8.4570    3.8950  -11.1520 C   0  0  0  0  0  0  0  0  0  0  0  0
   -8.6620    2.6830  -10.4950 C   0  0  0  0  0  0  0  0  0  0  0  0
   -8.7790    2.6470   -9.1050 C   0  0  0  0  0  0  0  0  0  0  0  0
   -9.0640    1.4870   -8.1970 C   0  0  0  0  0  0  0  0  0  0  0  0
   -8.8540    2.0560   -6.8650 N   0  0  0  0  0  0  0  0  0  0  0  0
   -8.8250    3.5290   -6.9050 C   0  0  0  0  0  0  0  0  0  0  0  0
   -8.6770    3.8190   -8.3700 C   0  0  0  0  0  0  0  0  0  0  0  0
   -8.4720    5.0300   -9.0240 C   0  0  0  0  0  0  0  0  0  0  0  0
   -8.3690    5.0690  -10.4070 C   0  0  0  0  0  0  0  0  0  0  0  0
  2  1  2  0
 16  2  1  0
 17 16  1  0
 17 25  2  0
 25 24  1  0
 24 23  2  0
 23 19  1  0
 19 18  2  0
 18 17  1  0
 20 19  1  0
 21 20  1  0
 22 21  1  0
 23 22  1  0
  3  2  1  0
  3 15  2  0
 15 14  1  0
 14 13  2  0
 13 12  1  0
 12  7  1  0
  8  7  1  0
  8 11  1  0
 11 10  1  0
 10  9  1  0
  9  8  1  0
  7  6  2  0
  6  5  1  0
 13  5  1  0
  5  4  2  0
  4  3  1  0
M  END
$$$$
