A71EV2A-x4283_C_201_1_A71EV2A-x0911+A+147+1__LIG
     RDKit          3D

 20 21  0  0  0  0  0  0  0  0999 V2000
   10.3090   16.6270   19.2350 O   0  0  0  0  0  0  0  0  0  0  0  0
   10.7300   15.4830   19.4450 C   0  0  0  0  0  0  0  0  0  0  0  0
   11.0560   14.6340   18.4760 N   0  0  0  0  0  0  0  0  0  0  0  0
   10.8520   14.9440   20.8600 C   0  0  1  0  0  0  0  0  0  0  0  0
   12.0150   15.6230   21.6140 C   0  0  0  0  0  0  0  0  0  0  0  0
   12.1100   15.1110   23.0590 C   0  0  0  0  0  0  0  0  0  0  0  0
   10.7640   15.2530   23.7790 C   0  0  0  0  0  0  0  0  0  0  0  0
    9.5490   15.1420   21.6500 C   0  0  0  0  0  0  0  0  0  0  0  0
    9.7060   14.5910   22.9990 N   0  0  0  0  0  0  0  0  0  0  0  0
    8.9290   13.5640   23.4150 C   0  0  0  0  0  0  0  0  0  0  0  0
    7.9940   13.1480   22.7390 O   0  0  0  0  0  0  0  0  0  0  0  0
    9.2570   12.9620   24.7720 C   0  0  0  0  0  0  0  0  0  0  0  0
    8.2710   11.8950   25.1750 C   0  0  0  0  0  0  0  0  0  0  0  0
    8.4130   10.5810   24.7240 C   0  0  0  0  0  0  0  0  0  0  0  0
    9.4130   10.3790   23.8100 O   0  0  0  0  0  0  0  0  0  0  0  0
    9.6450    9.0370   23.3540 C   0  0  0  0  0  0  0  0  0  0  0  0
    7.3030   12.2510   26.0350 N   0  0  0  0  0  0  0  0  0  0  0  0
    6.4870   11.2940   26.5000 C   0  0  0  0  0  0  0  0  0  0  0  0
    6.5790    9.9750   26.1280 C   0  0  0  0  0  0  0  0  0  0  0  0
    7.5570    9.6030   25.2140 C   0  0  0  0  0  0  0  0  0  0  0  0
 16 15  1  0
 15 14  1  0
 14 20  2  0
 20 19  1  0
 19 18  2  0
 18 17  1  0
 17 13  2  0
 14 13  1  0
 13 12  1  0
 12 10  1  0
 11 10  2  0
 10  9  1  0
  9  7  1  0
  7  6  1  0
  6  5  1  0
  5  4  1  0
  4  2  1  6
  3  2  1  0
  2  1  2  0
  8  4  1  0
  9  8  1  0
M  END
$$$$
