A5666a
     RDKit          3D

 29 32  0  0  0  0  0  0  0  0999 V2000
   10.3220   16.5870   19.1860 O   0  0  0  0  0  0  0  0  0  0  0  0
   10.7320   15.4530   19.4410 C   0  0  0  0  0  0  0  0  0  0  0  0
   11.2010   14.6370   18.5120 N   0  0  0  0  0  0  0  0  0  0  0  0
   10.7330   14.9190   20.8630 C   0  0  1  0  0  0  0  0  0  0  0  0
   11.7690   15.6430   21.7320 C   0  0  0  0  0  0  0  0  0  0  0  0
   11.8390   15.0260   23.1280 C   0  0  0  0  0  0  0  0  0  0  0  0
   10.4750   15.0580   23.7860 C   0  0  0  0  0  0  0  0  0  0  0  0
    9.3660   14.9730   21.5640 C   0  0  0  0  0  0  0  0  0  0  0  0
    9.4530   14.4310   22.9250 N   0  0  0  0  0  0  0  0  0  0  0  0
    8.5720   13.5020   23.3660 C   0  0  0  0  0  0  0  0  0  0  0  0
    7.6880   13.0550   22.6500 O   0  0  0  0  0  0  0  0  0  0  0  0
    8.6940   13.0710   24.8160 C   0  0  0  0  0  0  0  0  0  0  0  0
    7.8220   11.8820   25.1560 C   0  0  0  0  0  0  0  0  0  0  0  0
    8.1080   10.5740   24.7230 C   0  0  0  0  0  0  0  0  0  0  0  0
    9.3950   10.3590   23.5420 S   0  0  0  0  0  0  0  0  0  0  0  0
    9.4230    8.5870   23.3120 C   0  0  0  0  0  0  0  0  0  0  0  0
    6.7220   11.9920   26.0550 C   0  0  0  0  0  0  0  0  0  0  0  0
    6.0460   10.9250   26.5040 N   0  0  0  0  0  0  0  0  0  0  0  0
    6.4620    9.7540   26.0270 C   0  0  0  0  0  0  0  0  0  0  0  0
    7.4340    9.5060   25.1510 N   0  0  0  0  0  0  0  0  0  0  0  0
    6.2640   13.2610   26.4870 N   0  0  0  0  0  0  0  0  0  0  0  0
    5.7330   14.1900   25.4910 C   0  0  0  0  0  0  0  0  0  0  0  0
    4.2390   14.1640   25.5450 C   0  0  0  0  0  0  0  0  0  0  0  0
    3.2160   14.6720   24.2390 S   0  0  0  0  0  0  0  0  0  0  0  0
    1.8000   14.3280   25.1440 C   0  0  0  0  0  0  0  0  0  0  0  0
    2.0980   13.8440   26.3850 C   0  0  0  0  0  0  0  0  0  0  0  0
    3.5040   13.7520   26.6120 C   0  0  0  0  0  0  0  0  0  0  0  0
    4.1890   13.2680   27.8680 C   0  0  0  0  0  0  0  0  0  0  0  0
    5.7140   13.4500   27.8390 C   0  0  0  0  0  0  0  0  0  0  0  0
 16 15  1  0
 15 14  1  0
 14 20  2  0
 20 19  1  0
 19 18  2  0
 18 17  1  0
 21 17  1  0
 21 29  1  0
 29 28  1  0
 28 27  1  0
 27 26  1  0
 26 25  2  0
 25 24  1  0
 24 23  1  0
 27 23  2  0
 23 22  1  0
 22 21  1  0
 17 13  2  0
 14 13  1  0
 13 12  1  0
 12 10  1  0
 11 10  2  0
 10  9  1  0
  9  7  1  0
  7  6  1  0
  6  5  1  0
  5  4  1  0
  4  2  1  6
  3  2  1  0
  2  1  2  0
  8  4  1  0
  9  8  1  0
M  END
>  <id>  (1) 
1

>  <inchikey>  (1) 
SYEWZSIFJAGIJX-AWEZNQCLSA-N

>  <alias>  (1) 
A5666a

>  <smiles>  (1) 
CSc1ncnc(N2CCc3ccsc3C2)c1CC(=O)N1CCC[C@H](C(N)=O)C1

>  <path>  (1) 
/opt/xchem-fragalysis-2/maxwin/BulkDock/TARGETS/A71EV2A/aligned_files/A5666a/A5666a.pdb

>  <distance_score>  (1) 
None

>  <energy_score>  (1) 
None

>  <compound>  (1) 
SYEWZSIFJAGIJX-UHFFFAOYSA-N

>  <compound_id>  (1) 
1

>  <target>  (1) 
A71EV2A

>  <tags>  (1) 
['GOOD count', 'MEDIOCRE count', '[Other] S1 site', 'hits', '[Other] S2 site', '[Other] upload_4 2025-04-02', '[Other] P3 compound design', '[Series] Piperidine series', 'Main status', 'BAD count', '[Other] S3 site']

>  <inspirations>  (1) 
None

>  <subsites>  (1) 
None

>  <reference>  (1) 


>  <observation_longname>  (1) 
A71EV2A-x5666_A_201_v4

>  <ConformerSites alias>  (1) 
1b - A0911/A/147

>  <CanonSites alias>  (1) 
1 - Active Site

>  <CrystalformSites alias>  (1) 
F8h - A0884/A/147

>  <Quatassemblies alias>  (1) 
A1 - monomer

>  <Crystalforms alias>  (1) 
F8 - A712A_x4271_2.1_refmac1_1st_ref

>  <ConformerSites upload name>  (1) 
1b - A71EV2A-x0911/A/147

>  <CanonSites upload name>  (1) 
1 - A71EV2A-x0911/A/147/1

>  <CrystalformSites upload name>  (1) 
F8h - A71EV2A-x0884/A/147/1

>  <Quatassemblies upload name>  (1) 
A1 - monomer

>  <Crystalforms upload name>  (1) 
F8 - A712A_x4271_2.1_refmac1_1st_ref

>  <ConformerSites short tag>  (1) 
1b - A0911/A/147

>  <CanonSites short tag>  (1) 
1 - A0911/A/147/1

>  <CrystalformSites short tag>  (1) 
F8h - A0884/A/147

>  <Quatassemblies short tag>  (1) 
A1 - monomer

>  <Crystalforms short tag>  (1) 
F8 - A712A_x4271_2.1_refmac1_1st_ref

>  <Centroid res>  (1) 
A71EV2A-x0911/A/133/A_v1

>  <Experiment code>  (1) 
A71EV2A-x5666

>  <Pose>  (1) 
A5666a

$$$$
A4298a
     RDKit          3D

 20 21  0  0  0  0  0  0  0  0999 V2000
   10.2790   16.6690   19.0850 O   0  0  0  0  0  0  0  0  0  0  0  0
   10.5670   15.5030   19.3800 C   0  0  0  0  0  0  0  0  0  0  0  0
   10.9270   14.5940   18.4790 N   0  0  0  0  0  0  0  0  0  0  0  0
   10.5100   15.0230   20.8190 C   0  0  1  0  0  0  0  0  0  0  0  0
   11.6890   15.5510   21.6580 C   0  0  0  0  0  0  0  0  0  0  0  0
   11.6470   14.9660   23.0730 C   0  0  0  0  0  0  0  0  0  0  0  0
   10.3030   15.2630   23.7450 C   0  0  0  0  0  0  0  0  0  0  0  0
    9.2130   15.4270   21.5290 C   0  0  0  0  0  0  0  0  0  0  0  0
    9.1840   14.8540   22.8810 N   0  0  0  0  0  0  0  0  0  0  0  0
    8.3330   13.8280   23.1660 C   0  0  0  0  0  0  0  0  0  0  0  0
    7.6210   13.3370   22.3110 O   0  0  0  0  0  0  0  0  0  0  0  0
    8.2450   13.4560   24.4740 N   0  0  0  0  0  0  0  0  0  0  0  0
    7.6340   12.3010   24.9850 C   0  0  0  0  0  0  0  0  0  0  0  0
    6.6420   12.2760   25.9620 C   0  0  0  0  0  0  0  0  0  0  0  0
    6.1320   11.0400   26.3360 C   0  0  0  0  0  0  0  0  0  0  0  0
    6.6130    9.8870   25.7440 C   0  0  0  0  0  0  0  0  0  0  0  0
    8.1280   11.2000   24.4160 N   0  0  0  0  0  0  0  0  0  0  0  0
    7.6270   10.0300   24.7960 C   0  0  0  0  0  0  0  0  0  0  0  0
    8.0550    8.8990   24.2060 O   0  0  0  0  0  0  0  0  0  0  0  0
    9.2790    8.9470   23.4560 C   0  0  0  0  0  0  0  0  0  0  0  0
 20 19  1  0
 19 18  1  0
 18 16  2  0
 16 15  1  0
 15 14  2  0
 14 13  1  0
 13 12  1  0
 12 10  1  0
 11 10  2  0
 10  9  1  0
  9  7  1  0
  7  6  1  0
  6  5  1  0
  5  4  1  0
  4  2  1  6
  3  2  1  0
  2  1  2  0
  8  4  1  0
  9  8  1  0
 17 13  2  0
 18 17  1  0
M  END
>  <id>  (2) 
2

>  <inchikey>  (2) 
YPPPQJNCBBACKM-VIFPVBQESA-N

>  <alias>  (2) 
A4298a

>  <smiles>  (2) 
COc1cccc(NC(=O)N2CCC[C@H](C(N)=O)C2)n1

>  <path>  (2) 
/opt/xchem-fragalysis-2/maxwin/BulkDock/TARGETS/A71EV2A/aligned_files/A4298a/A4298a.pdb

>  <distance_score>  (2) 
None

>  <energy_score>  (2) 
None

>  <compound>  (2) 
YPPPQJNCBBACKM-UHFFFAOYSA-N

>  <compound_id>  (2) 
2

>  <target>  (2) 
A71EV2A

>  <tags>  (2) 
['GOOD count', 'MEDIOCRE count', '[Other] S1 site', 'hits', '[Other] S2 site', '[Other] P3 compound design', '[Series] Piperidine series', 'Main status', '[Other] upload_061224', 'BAD count']

>  <inspirations>  (2) 
None

>  <subsites>  (2) 
None

>  <reference>  (2) 


>  <observation_longname>  (2) 
A71EV2A-x4298_A_201_v1

>  <ConformerSites alias>  (2) 
1b - A0911/A/147

>  <CanonSites alias>  (2) 
1 - Active Site

>  <CrystalformSites alias>  (2) 
F5i - A3175/A/201

>  <Quatassemblies alias>  (2) 
A1 - monomer

>  <Crystalforms alias>  (2) 
F5 - A71EV2A_x3178_new_long_dials_041024

>  <ConformerSites upload name>  (2) 
1b - A71EV2A-x0911/A/147

>  <CanonSites upload name>  (2) 
1 - A71EV2A-x0911/A/147/1

>  <CrystalformSites upload name>  (2) 
F5i - A71EV2A-x3175/A/201/1

>  <Quatassemblies upload name>  (2) 
A1 - monomer

>  <Crystalforms upload name>  (2) 
F5 - A71EV2A_x3178_new_long_dials_041024

>  <ConformerSites short tag>  (2) 
1b - A0911/A/147

>  <CanonSites short tag>  (2) 
1 - A0911/A/147/1

>  <CrystalformSites short tag>  (2) 
F5i - A3175/A/201

>  <Quatassemblies short tag>  (2) 
A1 - monomer

>  <Crystalforms short tag>  (2) 
F5 - A71EV2A_x3178_new_long_dials_041024

>  <Centroid res>  (2) 
A71EV2A-x0911/A/133/A_v1

>  <Experiment code>  (2) 
A71EV2A-x4298

>  <Pose>  (2) 
A4298a

$$$$
A4918a
     RDKit          3D

 20 21  0  0  0  0  0  0  0  0999 V2000
   10.3940   16.6220   19.2730 O   0  0  0  0  0  0  0  0  0  0  0  0
   10.7870   15.4660   19.4960 C   0  0  0  0  0  0  0  0  0  0  0  0
   11.1780   14.6410   18.5310 N   0  0  0  0  0  0  0  0  0  0  0  0
   10.8120   14.9030   20.9090 C   0  0  1  0  0  0  0  0  0  0  0  0
   11.9650   15.5020   21.7330 C   0  0  0  0  0  0  0  0  0  0  0  0
   11.9900   14.9580   23.1670 C   0  0  0  0  0  0  0  0  0  0  0  0
   10.6310   15.1250   23.8330 C   0  0  0  0  0  0  0  0  0  0  0  0
    9.4810   15.0830   21.6520 C   0  0  0  0  0  0  0  0  0  0  0  0
    9.5620   14.5320   23.0110 N   0  0  0  0  0  0  0  0  0  0  0  0
    8.7130   13.5680   23.4410 C   0  0  0  0  0  0  0  0  0  0  0  0
    7.8100   13.1370   22.7360 O   0  0  0  0  0  0  0  0  0  0  0  0
    8.9400   13.0360   24.8470 C   0  0  0  0  0  0  0  0  0  0  0  0
    8.0610   11.8470   25.1700 C   0  0  0  0  0  0  0  0  0  0  0  0
    8.2530   10.5480   24.6480 C   0  0  0  0  0  0  0  0  0  0  0  0
    9.6060   10.3860   23.5320 S   0  0  0  0  0  0  0  0  0  0  0  0
    9.6600    8.6090   23.2540 C   0  0  0  0  0  0  0  0  0  0  0  0
    7.0140   11.9810   26.0830 C   0  0  0  0  0  0  0  0  0  0  0  0
    6.2240   10.8890   26.4120 C   0  0  0  0  0  0  0  0  0  0  0  0
    6.5110    9.6730   25.8390 C   0  0  0  0  0  0  0  0  0  0  0  0
    7.5220    9.4780   24.9770 N   0  0  0  0  0  0  0  0  0  0  0  0
 16 15  1  0
 15 14  1  0
 14 20  2  0
 20 19  1  0
 19 18  2  0
 18 17  1  0
 17 13  2  0
 14 13  1  0
 13 12  1  0
 12 10  1  0
 11 10  2  0
 10  9  1  0
  9  7  1  0
  7  6  1  0
  6  5  1  0
  5  4  1  0
  4  2  1  6
  3  2  1  0
  2  1  2  0
  8  4  1  0
  9  8  1  0
M  END
>  <id>  (3) 
3

>  <inchikey>  (3) 
OEHCNOCXCMBJIE-NSHDSACASA-N

>  <alias>  (3) 
A4918a

>  <smiles>  (3) 
CSc1ncccc1CC(=O)N1CCC[C@H](C(N)=O)C1

>  <path>  (3) 
/opt/xchem-fragalysis-2/maxwin/BulkDock/TARGETS/A71EV2A/aligned_files/A4918a/A4918a.pdb

>  <distance_score>  (3) 
None

>  <energy_score>  (3) 
None

>  <compound>  (3) 
OEHCNOCXCMBJIE-UHFFFAOYSA-N

>  <compound_id>  (3) 
3

>  <target>  (3) 
A71EV2A

>  <tags>  (3) 
['GOOD count', 'MEDIOCRE count', '[Other] S1 site', 'hits', '[Other] S2 site', '[Other] P3 compound design', '[Other] upload_1 2025-02-12', 'Main status', '[Series] Piperidine series', 'BAD count']

>  <inspirations>  (3) 
None

>  <subsites>  (3) 
None

>  <reference>  (3) 


>  <observation_longname>  (3) 
A71EV2A-x4918_A_201_v1

>  <ConformerSites alias>  (3) 
1b - A0911/A/147

>  <CanonSites alias>  (3) 
1 - Active Site

>  <CrystalformSites alias>  (3) 
F8h - A0884/A/147

>  <Quatassemblies alias>  (3) 
A1 - monomer

>  <Crystalforms alias>  (3) 
F8 - A712A_x4271_2.1_refmac1_1st_ref

>  <ConformerSites upload name>  (3) 
1b - A71EV2A-x0911/A/147

>  <CanonSites upload name>  (3) 
1 - A71EV2A-x0911/A/147/1

>  <CrystalformSites upload name>  (3) 
F8h - A71EV2A-x0884/A/147/1

>  <Quatassemblies upload name>  (3) 
A1 - monomer

>  <Crystalforms upload name>  (3) 
F8 - A712A_x4271_2.1_refmac1_1st_ref

>  <ConformerSites short tag>  (3) 
1b - A0911/A/147

>  <CanonSites short tag>  (3) 
1 - A0911/A/147/1

>  <CrystalformSites short tag>  (3) 
F8h - A0884/A/147

>  <Quatassemblies short tag>  (3) 
A1 - monomer

>  <Crystalforms short tag>  (3) 
F8 - A712A_x4271_2.1_refmac1_1st_ref

>  <Centroid res>  (3) 
A71EV2A-x0911/A/133/A_v1

>  <Experiment code>  (3) 
A71EV2A-x4918

>  <Pose>  (3) 
A4918a

$$$$
A5151a
     RDKit          3D

 21 23  0  0  0  0  0  0  0  0999 V2000
    7.7460   13.4130   22.3950 O   0  0  0  0  0  0  0  0  0  0  0  0
    8.5480   13.9680   23.1310 C   0  0  0  0  0  0  0  0  0  0  0  0
    9.3920   14.9190   22.6820 N   0  0  0  0  0  0  0  0  0  0  0  0
   10.3880   15.5910   23.5210 C   0  0  0  0  0  0  0  0  0  0  0  0
   11.7780   15.4130   22.9500 C   0  0  0  0  0  0  0  0  0  0  0  0
   11.8250   15.8570   21.4910 C   0  0  0  0  0  0  0  0  0  0  0  0
    9.3950   15.3800   21.2930 C   0  0  0  0  0  0  0  0  0  0  0  0
   10.7660   15.1310   20.6590 C   0  0  1  0  0  0  0  0  0  0  0  0
   10.7480   15.6520   19.2320 C   0  0  0  0  0  0  0  0  0  0  0  0
   10.5480   16.8460   18.9920 O   0  0  0  0  0  0  0  0  0  0  0  0
   10.9590   14.7550   18.2830 N   0  0  0  0  0  0  0  0  0  0  0  0
    8.6380   13.6120   24.6040 C   0  0  0  0  0  0  0  0  0  0  0  0
    8.0670   12.2420   24.8930 C   0  0  0  0  0  0  0  0  0  0  0  0
    8.6160   11.0720   24.3460 C   0  0  0  0  0  0  0  0  0  0  0  0
   10.0150   11.0090   23.2840 S   0  0  0  0  0  0  0  0  0  0  0  0
   10.1730    9.2130   23.5310 C   0  0  0  0  0  0  0  0  0  0  0  0
    8.8040    8.6880   23.9400 C   0  0  0  0  0  0  0  0  0  0  0  0
    8.0710    9.8170   24.6140 C   0  0  0  0  0  0  0  0  0  0  0  0
    6.9600    9.7270   25.4440 C   0  0  0  0  0  0  0  0  0  0  0  0
    6.4070   10.8700   25.9950 C   0  0  0  0  0  0  0  0  0  0  0  0
    6.9560   12.1130   25.7220 C   0  0  0  0  0  0  0  0  0  0  0  0
 11  9  1  0
 10  9  2  0
  8  9  1  6
  8  6  1  0
  6  5  1  0
  5  4  1  0
  4  3  1  0
  3  2  1  0
  2  1  2  0
 12  2  1  0
 13 12  1  0
 13 21  2  0
 21 20  1  0
 20 19  2  0
 19 18  1  0
 18 14  2  0
 14 13  1  0
 15 14  1  0
 16 15  1  0
 17 16  1  0
 18 17  1  0
  7  3  1  0
  8  7  1  0
M  END
>  <id>  (4) 
4

>  <inchikey>  (4) 
MYWVCJKERPOZPN-ZDUSSCGKSA-N

>  <alias>  (4) 
A5151a

>  <smiles>  (4) 
NC(=O)[C@H]1CCCN(C(=O)Cc2cccc3c2SCC3)C1

>  <path>  (4) 
/opt/xchem-fragalysis-2/maxwin/BulkDock/TARGETS/A71EV2A/aligned_files/A5151a/A5151a.pdb

>  <distance_score>  (4) 
None

>  <energy_score>  (4) 
None

>  <compound>  (4) 
MYWVCJKERPOZPN-UHFFFAOYSA-N

>  <compound_id>  (4) 
4

>  <target>  (4) 
A71EV2A

>  <tags>  (4) 
['GOOD count', 'MEDIOCRE count', '[Other] S1 site', 'hits', '[Other] S2 site', '[Other] P3 compound design', '[Series] Piperidine series', 'Main status', '[Other] upload_2 2025-02-28', 'BAD count']

>  <inspirations>  (4) 
None

>  <subsites>  (4) 
None

>  <reference>  (4) 


>  <observation_longname>  (4) 
A71EV2A-x5151_A_201_v2

>  <ConformerSites alias>  (4) 
1b - A0911/A/147

>  <CanonSites alias>  (4) 
1 - Active Site

>  <CrystalformSites alias>  (4) 
F8h - A0884/A/147

>  <Quatassemblies alias>  (4) 
A1 - monomer

>  <Crystalforms alias>  (4) 
F8 - A712A_x4271_2.1_refmac1_1st_ref

>  <ConformerSites upload name>  (4) 
1b - A71EV2A-x0911/A/147

>  <CanonSites upload name>  (4) 
1 - A71EV2A-x0911/A/147/1

>  <CrystalformSites upload name>  (4) 
F8h - A71EV2A-x0884/A/147/1

>  <Quatassemblies upload name>  (4) 
A1 - monomer

>  <Crystalforms upload name>  (4) 
F8 - A712A_x4271_2.1_refmac1_1st_ref

>  <ConformerSites short tag>  (4) 
1b - A0911/A/147

>  <CanonSites short tag>  (4) 
1 - A0911/A/147/1

>  <CrystalformSites short tag>  (4) 
F8h - A0884/A/147

>  <Quatassemblies short tag>  (4) 
A1 - monomer

>  <Crystalforms short tag>  (4) 
F8 - A712A_x4271_2.1_refmac1_1st_ref

>  <Centroid res>  (4) 
A71EV2A-x0911/A/133/A_v1

>  <Experiment code>  (4) 
A71EV2A-x5151

>  <Pose>  (4) 
A5151a

$$$$
A0450a
     RDKit          3D

 13 13  0  0  0  0  0  0  0  0999 V2000
    8.4650   14.3150   25.4980 Br  0  0  0  0  0  0  0  0  0  0  0  0
    8.2600   12.4470   25.2580 C   0  0  0  0  0  0  0  0  0  0  0  0
    9.1550   11.7900   24.4260 C   0  0  0  0  0  0  0  0  0  0  0  0
    8.9950   10.4350   24.2560 C   0  0  0  0  0  0  0  0  0  0  0  0
    9.8900    9.7610   23.4820 F   0  0  0  0  0  0  0  0  0  0  0  0
    7.9980    9.7240   24.8530 C   0  0  0  0  0  0  0  0  0  0  0  0
    7.1130   10.3950   25.6780 C   0  0  0  0  0  0  0  0  0  0  0  0
    7.2310   11.7650   25.9030 C   0  0  0  0  0  0  0  0  0  0  0  0
    6.3110   12.4260   26.8920 C   0  0  0  0  0  0  0  0  0  0  0  0
    6.4140   12.1210   28.0670 O   0  0  0  0  0  0  0  0  0  0  0  0
    5.4180   13.3310   26.4570 N   0  0  0  0  0  0  0  0  0  0  0  0
    4.5050   13.9700   27.4080 C   0  0  0  0  0  0  0  0  0  0  0  0
    5.2590   13.8030   25.0810 C   0  0  0  0  0  0  0  0  0  0  0  0
 13 11  1  0
 12 11  1  0
 11  9  1  0
 10  9  2  0
  9  8  1  0
  8  7  2  0
  7  6  1  0
  6  4  2  0
  5  4  1  0
  4  3  1  0
  3  2  2  0
  8  2  1  0
  2  1  1  0
M  END
>  <id>  (5) 
5

>  <inchikey>  (5) 
CGUIJOTZYHWBSQ-UHFFFAOYSA-N

>  <alias>  (5) 
A0450a

>  <smiles>  (5) 
CN(C)C(=O)c1ccc(F)cc1Br

>  <path>  (5) 
/opt/xchem-fragalysis-2/maxwin/BulkDock/TARGETS/A71EV2A/aligned_files/A0450a/A0450a.pdb

>  <distance_score>  (5) 
None

>  <energy_score>  (5) 
None

>  <compound>  (5) 
CGUIJOTZYHWBSQ-UHFFFAOYSA-N

>  <compound_id>  (5) 
5

>  <target>  (5) 
A71EV2A

>  <tags>  (5) 
['[Other] Fragment Screen', 'GOOD count', 'MEDIOCRE count', '[Other] S1 site', 'hits', '[Other] Active site fragment', '[Other] upload_1 2024-12-06', 'Main status', '[Other] New', '[Other] upload_1 2025-02-12', 'BAD count']

>  <inspirations>  (5) 
None

>  <subsites>  (5) 
None

>  <reference>  (5) 


>  <observation_longname>  (5) 
A71EV2A-x0450_A_201_v1

>  <ConformerSites alias>  (5) 
1b - A0911/A/147

>  <CanonSites alias>  (5) 
1 - Active Site

>  <CrystalformSites alias>  (5) 
F2b - A0450/A/201

>  <Quatassemblies alias>  (5) 
A1 - monomer

>  <Crystalforms alias>  (5) 
F2 - A71_2A_open_small_cell

>  <ConformerSites upload name>  (5) 
1b - A71EV2A-x0911/A/147

>  <CanonSites upload name>  (5) 
1 - A71EV2A-x0911/A/147/1

>  <CrystalformSites upload name>  (5) 
F2b - A71EV2A-x0450/A/201/1

>  <Quatassemblies upload name>  (5) 
A1 - monomer

>  <Crystalforms upload name>  (5) 
F2 - A71_2A_open_small_cell

>  <ConformerSites short tag>  (5) 
1b - A0911/A/147

>  <CanonSites short tag>  (5) 
1 - A0911/A/147/1

>  <CrystalformSites short tag>  (5) 
F2b - A0450/A/201

>  <Quatassemblies short tag>  (5) 
A1 - monomer

>  <Crystalforms short tag>  (5) 
F2 - A71_2A_open_small_cell

>  <Centroid res>  (5) 
A71EV2A-x0911/A/133/A_v1

>  <Experiment code>  (5) 
A71EV2A-x0450

>  <Pose>  (5) 
A0450a

$$$$
A0451a
     RDKit          3D

 14 15  0  0  0  0  0  0  0  0999 V2000
   10.5800   14.1140   24.6010 O   0  0  0  0  0  0  0  0  0  0  0  0
   10.7620   13.1860   23.8320 C   0  0  0  0  0  0  0  0  0  0  0  0
   11.7610   13.1720   22.9560 N   0  0  0  0  0  0  0  0  0  0  0  0
   12.1050   14.3360   22.1600 C   0  0  0  0  0  0  0  0  0  0  0  0
    9.8950   11.9830   23.8690 C   0  0  0  0  0  0  0  0  0  0  0  0
    8.6880   11.7750   24.6420 C   0  0  0  0  0  0  0  0  0  0  0  0
    8.2420   10.4780   24.3480 C   0  0  0  0  0  0  0  0  0  0  0  0
    9.1190    9.9240   23.4400 N   0  0  0  0  0  0  0  0  0  0  0  0
    9.0080    8.5980   22.8510 C   0  0  0  0  0  0  0  0  0  0  0  0
   10.1020   10.8310   23.1690 C   0  0  0  0  0  0  0  0  0  0  0  0
    7.9540   12.5500   25.5390 C   0  0  0  0  0  0  0  0  0  0  0  0
    6.8040   12.0280   26.1160 C   0  0  0  0  0  0  0  0  0  0  0  0
    6.3840   10.7400   25.8200 C   0  0  0  0  0  0  0  0  0  0  0  0
    7.1010    9.9460   24.9350 C   0  0  0  0  0  0  0  0  0  0  0  0
  4  3  1  0
  3  2  1  0
  2  1  2  0
  5  2  1  0
  5 10  2  0
 10  8  1  0
  9  8  1  0
  8  7  1  0
  7 14  2  0
 14 13  1  0
 13 12  2  0
 12 11  1  0
 11  6  2  0
  6  5  1  0
  7  6  1  0
M  END
>  <id>  (6) 
6

>  <inchikey>  (6) 
OHXYWSIWHXTWCT-UHFFFAOYSA-N

>  <alias>  (6) 
A0451a

>  <smiles>  (6) 
CNC(=O)c1cn(C)c2ccccc12

>  <path>  (6) 
/opt/xchem-fragalysis-2/maxwin/BulkDock/TARGETS/A71EV2A/aligned_files/A0451a/A0451a.pdb

>  <distance_score>  (6) 
None

>  <energy_score>  (6) 
None

>  <compound>  (6) 
OHXYWSIWHXTWCT-UHFFFAOYSA-N

>  <compound_id>  (6) 
6

>  <target>  (6) 
A71EV2A

>  <tags>  (6) 
['[Other] Fragment Screen', 'GOOD count', 'MEDIOCRE count', '[Other] S1 site', 'hits', '[Other] Active site fragment', '[Other] upload_1 2024-12-06', 'Main status', '[Other] New', '[Other] upload_1 2025-02-12', 'BAD count']

>  <inspirations>  (6) 
None

>  <subsites>  (6) 
None

>  <reference>  (6) 


>  <observation_longname>  (6) 
A71EV2A-x0451_A_201_v1

>  <ConformerSites alias>  (6) 
1b - A0911/A/147

>  <CanonSites alias>  (6) 
1 - Active Site

>  <CrystalformSites alias>  (6) 
F1a - A0375/A/201

>  <Quatassemblies alias>  (6) 
A1 - monomer

>  <Crystalforms alias>  (6) 
F1 - A71_2A_open

>  <ConformerSites upload name>  (6) 
1b - A71EV2A-x0911/A/147

>  <CanonSites upload name>  (6) 
1 - A71EV2A-x0911/A/147/1

>  <CrystalformSites upload name>  (6) 
F1a - A71EV2A-x0375/A/201/1

>  <Quatassemblies upload name>  (6) 
A1 - monomer

>  <Crystalforms upload name>  (6) 
F1 - A71_2A_open

>  <ConformerSites short tag>  (6) 
1b - A0911/A/147

>  <CanonSites short tag>  (6) 
1 - A0911/A/147/1

>  <CrystalformSites short tag>  (6) 
F1a - A0375/A/201

>  <Quatassemblies short tag>  (6) 
A1 - monomer

>  <Crystalforms short tag>  (6) 
F1 - A71_2A_open

>  <Centroid res>  (6) 
A71EV2A-x0911/A/133/A_v1

>  <Experiment code>  (6) 
A71EV2A-x0451

>  <Pose>  (6) 
A0451a

$$$$
A0469a
     RDKit          3D

 15 16  0  0  0  0  0  0  0  0999 V2000
   11.4190   23.2470   24.3600 C   0  0  0  0  0  0  0  0  0  0  0  0
   11.8540   22.6290   25.6760 C   0  0  0  0  0  0  0  0  0  0  0  0
   12.9680   21.6190   25.4490 C   0  0  0  0  0  0  0  0  0  0  0  0
   10.7120   22.0810   26.4410 N   0  0  0  0  0  0  0  0  0  0  0  0
   11.0720   21.3410   27.6620 C   0  0  0  0  0  0  0  0  0  0  0  0
   10.1110   21.6140   28.8110 C   0  0  0  0  0  0  0  0  0  0  0  0
    8.7190   21.4570   28.3770 N   0  0  0  0  0  0  0  0  0  0  0  0
    8.4030   22.3560   27.2620 C   0  0  0  0  0  0  0  0  0  0  0  0
    9.6490   23.0530   26.7400 C   0  0  0  0  0  0  0  0  0  0  0  0
    7.9690   20.3370   28.6300 C   0  0  0  0  0  0  0  0  0  0  0  0
    8.5290   19.3910   29.4080 N   0  0  0  0  0  0  0  0  0  0  0  0
    7.7990   18.2760   29.5700 C   0  0  0  0  0  0  0  0  0  0  0  0
    6.5640   18.0810   28.9920 C   0  0  0  0  0  0  0  0  0  0  0  0
    6.0860   19.1250   28.2340 C   0  0  0  0  0  0  0  0  0  0  0  0
    6.7590   20.2680   28.0380 N   0  0  0  0  0  0  0  0  0  0  0  0
  3  2  1  0
  2  1  1  0
  4  2  1  0
  4  9  1  0
  9  8  1  0
  8  7  1  0
  7  6  1  0
  6  5  1  0
  5  4  1  0
 10  7  1  0
 10 15  2  0
 15 14  1  0
 14 13  2  0
 13 12  1  0
 12 11  2  0
 11 10  1  0
M  END
>  <id>  (7) 
7

>  <inchikey>  (7) 
JMSBGUKOMZSBMF-UHFFFAOYSA-N

>  <alias>  (7) 
A0469a

>  <smiles>  (7) 
CC(C)N1CCN(c2ncccn2)CC1

>  <path>  (7) 
/opt/xchem-fragalysis-2/maxwin/BulkDock/TARGETS/A71EV2A/aligned_files/A0469a/A0469a.pdb

>  <distance_score>  (7) 
None

>  <energy_score>  (7) 
None

>  <compound>  (7) 
JMSBGUKOMZSBMF-UHFFFAOYSA-N

>  <compound_id>  (7) 
7

>  <target>  (7) 
A71EV2A

>  <tags>  (7) 
['[Other] Fragment Screen', 'GOOD count', 'MEDIOCRE count', 'hits', '[Other] upload_1 2024-12-06', 'Main status', '[Other] New', '[Other] upload_1 2025-02-12', 'BAD count']

>  <inspirations>  (7) 
None

>  <subsites>  (7) 
None

>  <reference>  (7) 


>  <observation_longname>  (7) 
A71EV2A-x0469_A_147_v1

>  <ConformerSites alias>  (7) 
4b - A0469/A/147

>  <CanonSites alias>  (7) 
4 - A0525/A/246/1

>  <CrystalformSites alias>  (7) 
F1z - A0525/A/246

>  <Quatassemblies alias>  (7) 
A1 - monomer

>  <Crystalforms alias>  (7) 
F1 - A71_2A_open

>  <ConformerSites upload name>  (7) 
4b - A71EV2A-x0469/A/147

>  <CanonSites upload name>  (7) 
4 - A71EV2A-x0525/A/246/1

>  <CrystalformSites upload name>  (7) 
F1z - A71EV2A-x0525/A/246/1

>  <Quatassemblies upload name>  (7) 
A1 - monomer

>  <Crystalforms upload name>  (7) 
F1 - A71_2A_open

>  <ConformerSites short tag>  (7) 
4b - A0469/A/147

>  <CanonSites short tag>  (7) 
4 - A0525/A/246/1

>  <CrystalformSites short tag>  (7) 
F1z - A0525/A/246

>  <Quatassemblies short tag>  (7) 
A1 - monomer

>  <Crystalforms short tag>  (7) 
F1 - A71_2A_open

>  <Centroid res>  (7) 
A71EV2A-x0525/A/90/A_v1

>  <Experiment code>  (7) 
A71EV2A-x0469

>  <Pose>  (7) 
A0469a

$$$$
A0473a
     RDKit          3D

 15 16  0  0  0  0  0  0  0  0999 V2000
   -0.5550   12.8320   20.4460 O   0  0  0  0  0  0  0  0  0  0  0  0
    0.5500   13.4940   19.8590 S   0  0  0  0  0  0  0  0  0  0  0  0
    1.2950   14.3700   20.7210 O   0  0  0  0  0  0  0  0  0  0  0  0
    1.7530   12.2310   19.1920 C   0  0  0  0  0  0  0  0  0  0  0  0
    2.3980   11.5200   20.3800 C   0  0  0  0  0  0  0  0  0  0  0  0
    3.2760   10.4000   19.9040 C   0  0  0  0  0  0  0  0  0  0  0  0
    4.3550   10.8720   19.2330 O   0  0  0  0  0  0  0  0  0  0  0  0
    3.9080   11.6140   18.0690 C   0  0  0  0  0  0  0  0  0  0  0  0
    2.9870   12.7610   18.4530 C   0  0  0  0  0  0  0  0  0  0  0  0
    0.0300   14.2830   18.5560 N   0  0  0  0  0  0  0  0  0  0  0  0
   -0.9690   13.7790   17.5960 C   0  0  0  0  0  0  0  0  0  0  0  0
   -1.3570   14.7970   16.5310 C   0  0  0  0  0  0  0  0  0  0  0  0
   -1.8530   13.9610   15.3670 C   0  0  0  0  0  0  0  0  0  0  0  0
   -1.2750   12.5800   15.5730 C   0  0  0  0  0  0  0  0  0  0  0  0
   -0.4050   12.6640   16.8170 C   0  0  0  0  0  0  0  0  0  0  0  0
  3  2  2  0
  2  1  2  0
 10  2  1  0
 11 10  1  0
 11 15  1  0
 15 14  1  0
 14 13  1  0
 13 12  1  0
 12 11  1  0
  4  2  1  0
  4  9  1  0
  9  8  1  0
  8  7  1  0
  7  6  1  0
  6  5  1  0
  5  4  1  0
M  END
>  <id>  (8) 
8

>  <inchikey>  (8) 
SVSOJZPVHKCFPK-UHFFFAOYSA-N

>  <alias>  (8) 
A0473a

>  <smiles>  (8) 
O=S(=O)(NC1CCCC1)C1CCOCC1

>  <path>  (8) 
/opt/xchem-fragalysis-2/maxwin/BulkDock/TARGETS/A71EV2A/aligned_files/A0473a/A0473a.pdb

>  <distance_score>  (8) 
None

>  <energy_score>  (8) 
None

>  <compound>  (8) 
SVSOJZPVHKCFPK-UHFFFAOYSA-N

>  <compound_id>  (8) 
8

>  <target>  (8) 
A71EV2A

>  <tags>  (8) 
['[Other] Fragment Screen', 'GOOD count', '[Other] S4 site', 'MEDIOCRE count', '[Other] S5 site', 'hits', '[Other] Active site fragment', '[Other] upload_1 2024-12-06', 'Main status', '[Other] New', '[Other] upload_1 2025-02-12', 'BAD count']

>  <inspirations>  (8) 
None

>  <subsites>  (8) 
None

>  <reference>  (8) 


>  <observation_longname>  (8) 
A71EV2A-x0473_A_147_v1

>  <ConformerSites alias>  (8) 
1b - A0911/A/147

>  <CanonSites alias>  (8) 
1 - Active Site

>  <CrystalformSites alias>  (8) 
F1a - A0375/A/201

>  <Quatassemblies alias>  (8) 
A1 - monomer

>  <Crystalforms alias>  (8) 
F1 - A71_2A_open

>  <ConformerSites upload name>  (8) 
1b - A71EV2A-x0911/A/147

>  <CanonSites upload name>  (8) 
1 - A71EV2A-x0911/A/147/1

>  <CrystalformSites upload name>  (8) 
F1a - A71EV2A-x0375/A/201/1

>  <Quatassemblies upload name>  (8) 
A1 - monomer

>  <Crystalforms upload name>  (8) 
F1 - A71_2A_open

>  <ConformerSites short tag>  (8) 
1b - A0911/A/147

>  <CanonSites short tag>  (8) 
1 - A0911/A/147/1

>  <CrystalformSites short tag>  (8) 
F1a - A0375/A/201

>  <Quatassemblies short tag>  (8) 
A1 - monomer

>  <Crystalforms short tag>  (8) 
F1 - A71_2A_open

>  <Centroid res>  (8) 
A71EV2A-x0911/A/133/A_v1

>  <Experiment code>  (8) 
A71EV2A-x0473

>  <Pose>  (8) 
A0473a

$$$$
A0486a
     RDKit          3D

 15 16  0  0  0  0  0  0  0  0999 V2000
   21.9990   13.3710    0.8570 O   0  0  0  0  0  0  0  0  0  0  0  0
   22.6430   13.4330    1.9050 C   0  0  0  0  0  0  0  0  0  0  0  0
   23.8540   12.8690    2.0480 N   0  0  0  0  0  0  0  0  0  0  0  0
   24.4290   13.0780    3.3320 C   0  0  0  0  0  0  0  0  0  0  0  0
   24.7310   12.0470    1.2120 C   0  0  0  0  0  0  0  0  0  0  0  0
   21.9950   13.9460    3.1830 C   0  0  0  0  0  0  0  0  0  0  0  0
   20.6290   14.3140    2.9600 N   0  0  0  0  0  0  0  0  0  0  0  0
   20.1110   15.4920    2.5410 C   0  0  0  0  0  0  0  0  0  0  0  0
   18.7210   15.3580    2.5860 C   0  0  0  0  0  0  0  0  0  0  0  0
   18.5120   14.0170    2.9950 C   0  0  0  0  0  0  0  0  0  0  0  0
   19.6490   13.4130    3.2500 N   0  0  0  0  0  0  0  0  0  0  0  0
   20.7090   16.6320    2.0800 C   0  0  0  0  0  0  0  0  0  0  0  0
   19.9270   17.6550    1.5940 C   0  0  0  0  0  0  0  0  0  0  0  0
   18.5550   17.5730    1.6680 C   0  0  0  0  0  0  0  0  0  0  0  0
   17.9290   16.4480    2.2470 C   0  0  0  0  0  0  0  0  0  0  0  0
  5  3  1  0
  4  3  1  0
  3  2  1  0
  2  1  2  0
  6  2  1  0
  7  6  1  0
  7 11  1  0
 11 10  2  0
 10  9  1  0
  9 15  2  0
 15 14  1  0
 14 13  2  0
 13 12  1  0
 12  8  2  0
  8  7  1  0
  9  8  1  0
M  END
>  <id>  (9) 
9

>  <inchikey>  (9) 
AOLISVCNSODKGB-UHFFFAOYSA-N

>  <alias>  (9) 
A0486a

>  <smiles>  (9) 
CN(C)C(=O)Cn1ncc2ccccc21

>  <path>  (9) 
/opt/xchem-fragalysis-2/maxwin/BulkDock/TARGETS/A71EV2A/aligned_files/A0486a/A0486a.pdb

>  <distance_score>  (9) 
None

>  <energy_score>  (9) 
None

>  <compound>  (9) 
AOLISVCNSODKGB-UHFFFAOYSA-N

>  <compound_id>  (9) 
9

>  <target>  (9) 
A71EV2A

>  <tags>  (9) 
['[Other] Fragment Screen', 'GOOD count', 'MEDIOCRE count', 'hits', '[Other] upload_1 2024-12-06', 'Main status', '[Other] New', '[Other] upload_1 2025-02-12', 'BAD count']

>  <inspirations>  (9) 
None

>  <subsites>  (9) 
None

>  <reference>  (9) 


>  <observation_longname>  (9) 
A71EV2A-x0486_A_147_v1

>  <ConformerSites alias>  (9) 
6a - A0486/A/147

>  <CanonSites alias>  (9) 
6 - A0486/A/147/1

>  <CrystalformSites alias>  (9) 
F1ac - A0486/A/147

>  <Quatassemblies alias>  (9) 
A1 - monomer

>  <Crystalforms alias>  (9) 
F1 - A71_2A_open

>  <ConformerSites upload name>  (9) 
6a - A71EV2A-x0486/A/147

>  <CanonSites upload name>  (9) 
6 - A71EV2A-x0486/A/147/1

>  <CrystalformSites upload name>  (9) 
F1ac - A71EV2A-x0486/A/147/1

>  <Quatassemblies upload name>  (9) 
A1 - monomer

>  <Crystalforms upload name>  (9) 
F1 - A71_2A_open

>  <ConformerSites short tag>  (9) 
6a - A0486/A/147

>  <CanonSites short tag>  (9) 
6 - A0486/A/147/1

>  <CrystalformSites short tag>  (9) 
F1ac - A0486/A/147

>  <Quatassemblies short tag>  (9) 
A1 - monomer

>  <Crystalforms short tag>  (9) 
F1 - A71_2A_open

>  <Centroid res>  (9) 
A71EV2A-x0486/A/143/A_v1

>  <Experiment code>  (9) 
A71EV2A-x0486

>  <Pose>  (9) 
A0486a

$$$$
A0487a
     RDKit          3D

 11 11  0  0  0  0  0  0  0  0999 V2000
   11.4760   13.4750   24.7520 O   0  0  0  0  0  0  0  0  0  0  0  0
   11.4570   13.0670   23.5930 C   0  0  0  0  0  0  0  0  0  0  0  0
   12.4060   13.5760   22.5590 C   0  0  0  0  0  0  0  0  0  0  0  0
   10.5600   12.1460   23.1620 N   0  0  0  0  0  0  0  0  0  0  0  0
    9.4660   11.6600   23.9290 C   0  0  0  0  0  0  0  0  0  0  0  0
    9.1230   10.2980   23.8380 C   0  0  0  0  0  0  0  0  0  0  0  0
    9.9040    9.3270   22.9960 C   0  0  0  0  0  0  0  0  0  0  0  0
    8.0470    9.8710   24.6090 C   0  0  0  0  0  0  0  0  0  0  0  0
    7.3330   10.6570   25.4240 N   0  0  0  0  0  0  0  0  0  0  0  0
    7.6830   11.9460   25.4860 C   0  0  0  0  0  0  0  0  0  0  0  0
    8.7350   12.4970   24.7760 C   0  0  0  0  0  0  0  0  0  0  0  0
  3  2  1  0
  2  1  2  0
  4  2  1  0
  5  4  1  0
  5 11  2  0
 11 10  1  0
 10  9  2  0
  9  8  1  0
  8  6  2  0
  6  5  1  0
  7  6  1  0
M  END
>  <id>  (10) 
10

>  <inchikey>  (10) 
DHUDCBCQKIWLSB-UHFFFAOYSA-N

>  <alias>  (10) 
A0487a

>  <smiles>  (10) 
CC(=O)Nc1ccncc1C

>  <path>  (10) 
/opt/xchem-fragalysis-2/maxwin/BulkDock/TARGETS/A71EV2A/aligned_files/A0487a/A0487a.pdb

>  <distance_score>  (10) 
None

>  <energy_score>  (10) 
None

>  <compound>  (10) 
DHUDCBCQKIWLSB-UHFFFAOYSA-N

>  <compound_id>  (10) 
10

>  <target>  (10) 
A71EV2A

>  <tags>  (10) 
['[Other] Fragment Screen', 'GOOD count', 'MEDIOCRE count', '[Other] S1 site', 'hits', '[Other] Active site fragment', '[Other] upload_1 2024-12-06', 'Main status', '[Other] New', '[Other] upload_1 2025-02-12', 'BAD count']

>  <inspirations>  (10) 
None

>  <subsites>  (10) 
None

>  <reference>  (10) 


>  <observation_longname>  (10) 
A71EV2A-x0487_A_250_v1

>  <ConformerSites alias>  (10) 
1b - A0911/A/147

>  <CanonSites alias>  (10) 
1 - Active Site

>  <CrystalformSites alias>  (10) 
F3c - A0487/A/250

>  <Quatassemblies alias>  (10) 
A1 - monomer

>  <Crystalforms alias>  (10) 
F3 - A71_2A_open_long_cell

>  <ConformerSites upload name>  (10) 
1b - A71EV2A-x0911/A/147

>  <CanonSites upload name>  (10) 
1 - A71EV2A-x0911/A/147/1

>  <CrystalformSites upload name>  (10) 
F3c - A71EV2A-x0487/A/250/1

>  <Quatassemblies upload name>  (10) 
A1 - monomer

>  <Crystalforms upload name>  (10) 
F3 - A71_2A_open_long_cell

>  <ConformerSites short tag>  (10) 
1b - A0911/A/147

>  <CanonSites short tag>  (10) 
1 - A0911/A/147/1

>  <CrystalformSites short tag>  (10) 
F3c - A0487/A/250

>  <Quatassemblies short tag>  (10) 
A1 - monomer

>  <Crystalforms short tag>  (10) 
F3 - A71_2A_open_long_cell

>  <Centroid res>  (10) 
A71EV2A-x0911/A/133/A_v1

>  <Experiment code>  (10) 
A71EV2A-x0487

>  <Pose>  (10) 
A0487a

$$$$
A0488a
     RDKit          3D

 10 10  0  0  0  0  0  0  0  0999 V2000
   14.7980   -7.1190   32.8020 O   0  0  0  0  0  0  0  0  0  0  0  0
   14.1270   -6.2820   33.4000 C   0  0  0  0  0  0  0  0  0  0  0  0
   12.7760   -5.9200   33.1150 C   0  0  0  0  0  0  0  0  0  0  0  0
   12.1450   -4.9620   33.8310 C   0  0  0  0  0  0  0  0  0  0  0  0
   12.7200   -4.2780   34.8710 N   0  0  0  0  0  0  0  0  0  0  0  0
   13.9420   -4.6280   35.1290 C   0  0  0  0  0  0  0  0  0  0  0  0
   14.6740   -5.5670   34.4540 N   0  0  0  0  0  0  0  0  0  0  0  0
   16.0910   -5.7920   34.7920 C   0  0  0  0  0  0  0  0  0  0  0  0
   16.3540   -7.1890   35.3190 C   0  0  0  0  0  0  0  0  0  0  0  0
   17.5000   -7.7510   34.7030 O   0  0  0  0  0  0  0  0  0  0  0  0
 10  9  1  0
  9  8  1  0
  8  7  1  0
  7  6  1  0
  6  5  2  0
  5  4  1  0
  4  3  2  0
  3  2  1  0
  7  2  1  0
  2  1  2  0
M  END
>  <id>  (11) 
11

>  <inchikey>  (11) 
HFZYCRPBIIVEAW-UHFFFAOYSA-N

>  <alias>  (11) 
A0488a

>  <smiles>  (11) 
O=c1ccncn1CCO

>  <path>  (11) 
/opt/xchem-fragalysis-2/maxwin/BulkDock/TARGETS/A71EV2A/aligned_files/A0488a/A0488a.pdb

>  <distance_score>  (11) 
None

>  <energy_score>  (11) 
None

>  <compound>  (11) 
HFZYCRPBIIVEAW-UHFFFAOYSA-N

>  <compound_id>  (11) 
11

>  <target>  (11) 
A71EV2A

>  <tags>  (11) 
['[Other] Fragment Screen', 'GOOD count', 'MEDIOCRE count', 'hits', '[Other] upload_1 2024-12-06', 'Main status', '[Other] New', '[Other] upload_1 2025-02-12', 'BAD count']

>  <inspirations>  (11) 
None

>  <subsites>  (11) 
None

>  <reference>  (11) 


>  <observation_longname>  (11) 
A71EV2A-x0488_A_147_v1

>  <ConformerSites alias>  (11) 
7b - A0488/A/147

>  <CanonSites alias>  (11) 
7 - A0488/A/147/1

>  <CrystalformSites alias>  (11) 
F1ad - A0488/A/147

>  <Quatassemblies alias>  (11) 
A1 - monomer

>  <Crystalforms alias>  (11) 
F1 - A71_2A_open

>  <ConformerSites upload name>  (11) 
7b - A71EV2A-x0488/A/147

>  <CanonSites upload name>  (11) 
7 - A71EV2A-x0488/A/147/1

>  <CrystalformSites upload name>  (11) 
F1ad - A71EV2A-x0488/A/147/1

>  <Quatassemblies upload name>  (11) 
A1 - monomer

>  <Crystalforms upload name>  (11) 
F1 - A71_2A_open

>  <ConformerSites short tag>  (11) 
7b - A0488/A/147

>  <CanonSites short tag>  (11) 
7 - A0488/A/147/1

>  <CrystalformSites short tag>  (11) 
F1ad - A0488/A/147

>  <Quatassemblies short tag>  (11) 
A1 - monomer

>  <Crystalforms short tag>  (11) 
F1 - A71_2A_open

>  <Centroid res>  (11) 
A71EV2A-x0488/A/68/A_v1

>  <Experiment code>  (11) 
A71EV2A-x0488

>  <Pose>  (11) 
A0488a

$$$$
A0497a
     RDKit          3D

 11 12  0  0  0  0  0  0  0  0999 V2000
   17.4310   -5.4810   19.8690 N   0  0  0  0  0  0  0  0  0  0  0  0
   17.4950   -6.1260   18.9210 C   0  0  0  0  0  0  0  0  0  0  0  0
   17.5820   -6.8980   17.6940 C   0  0  0  0  0  0  0  0  0  0  0  0
   18.6170   -6.9110   16.6970 C   0  0  0  0  0  0  0  0  0  0  0  0
   18.1120   -7.7190   15.6630 C   0  0  0  0  0  0  0  0  0  0  0  0
   16.8860   -8.1470   16.0710 N   0  0  0  0  0  0  0  0  0  0  0  0
   16.5510   -7.6560   17.3090 N   0  0  0  0  0  0  0  0  0  0  0  0
   19.8730   -6.3290   16.5400 C   0  0  0  0  0  0  0  0  0  0  0  0
   20.5840   -6.5340   15.3630 C   0  0  0  0  0  0  0  0  0  0  0  0
   20.0610   -7.3220   14.3440 C   0  0  0  0  0  0  0  0  0  0  0  0
   18.8210   -7.9300   14.4840 C   0  0  0  0  0  0  0  0  0  0  0  0
  2  1  3  0
  3  2  1  0
  3  7  2  0
  7  6  1  0
  6  5  1  0
  5 11  2  0
 11 10  1  0
 10  9  2  0
  9  8  1  0
  8  4  2  0
  4  3  1  0
  5  4  1  0
M  END
>  <id>  (12) 
12

>  <inchikey>  (12) 
REHRQXVEAXFIML-UHFFFAOYSA-N

>  <alias>  (12) 
A0497a

>  <smiles>  (12) 
N#Cc1n[nH]c2ccccc12

>  <path>  (12) 
/opt/xchem-fragalysis-2/maxwin/BulkDock/TARGETS/A71EV2A/aligned_files/A0497a/A0497a.pdb

>  <distance_score>  (12) 
None

>  <energy_score>  (12) 
None

>  <compound>  (12) 
REHRQXVEAXFIML-UHFFFAOYSA-N

>  <compound_id>  (12) 
12

>  <target>  (12) 
A71EV2A

>  <tags>  (12) 
['[Other] Fragment Screen', 'GOOD count', 'MEDIOCRE count', 'hits', '[Other] upload_1 2024-12-06', 'Main status', '[Other] New', '[Other] upload_1 2025-02-12', 'BAD count']

>  <inspirations>  (12) 
None

>  <subsites>  (12) 
None

>  <reference>  (12) 


>  <observation_longname>  (12) 
A71EV2A-x0497_A_147_v1

>  <ConformerSites alias>  (12) 
2a - A3977/A/202

>  <CanonSites alias>  (12) 
2 - A3977/A/202/1

>  <CrystalformSites alias>  (12) 
F2u - A0497/A/147

>  <Quatassemblies alias>  (12) 
A1 - monomer

>  <Crystalforms alias>  (12) 
F2 - A71_2A_open_small_cell

>  <ConformerSites upload name>  (12) 
2a - A71EV2A-x3977/A/202

>  <CanonSites upload name>  (12) 
2 - A71EV2A-x3977/A/202/1

>  <CrystalformSites upload name>  (12) 
F2u - A71EV2A-x0497/A/147/1

>  <Quatassemblies upload name>  (12) 
A1 - monomer

>  <Crystalforms upload name>  (12) 
F2 - A71_2A_open_small_cell

>  <ConformerSites short tag>  (12) 
2a - A3977/A/202

>  <CanonSites short tag>  (12) 
2 - A3977/A/202/1

>  <CrystalformSites short tag>  (12) 
F2u - A0497/A/147

>  <Quatassemblies short tag>  (12) 
A1 - monomer

>  <Crystalforms short tag>  (12) 
F2 - A71_2A_open_small_cell

>  <Centroid res>  (12) 
A71EV2A-x3977/A/113/A_v1

>  <Experiment code>  (12) 
A71EV2A-x0497

>  <Pose>  (12) 
A0497a

$$$$
A0501a
     RDKit          3D

 13 14  0  0  0  0  0  0  0  0999 V2000
    9.2820    8.5910   23.1640 C   0  0  0  0  0  0  0  0  0  0  0  0
    9.4290    9.9880   23.4310 O   0  0  0  0  0  0  0  0  0  0  0  0
    8.5840   10.5660   24.3400 C   0  0  0  0  0  0  0  0  0  0  0  0
    8.8080   11.9240   24.5780 C   0  0  0  0  0  0  0  0  0  0  0  0
    7.9720   12.5990   25.4750 C   0  0  0  0  0  0  0  0  0  0  0  0
    6.9520   11.9260   26.1170 C   0  0  0  0  0  0  0  0  0  0  0  0
    6.7460   10.5880   25.8730 C   0  0  0  0  0  0  0  0  0  0  0  0
    7.5620    9.8980   24.9930 C   0  0  0  0  0  0  0  0  0  0  0  0
    9.8840   12.6600   23.9220 C   0  0  0  0  0  0  0  0  0  0  0  0
   10.6340   13.5830   24.5840 O   0  0  0  0  0  0  0  0  0  0  0  0
   11.5830   13.9420   23.6830 C   0  0  0  0  0  0  0  0  0  0  0  0
   11.4020   13.2850   22.5430 N   0  0  0  0  0  0  0  0  0  0  0  0
   10.2890   12.4780   22.7110 N   0  0  0  0  0  0  0  0  0  0  0  0
  2  1  1  0
  3  2  1  0
  3  8  2  0
  8  7  1  0
  7  6  2  0
  6  5  1  0
  5  4  2  0
  4  3  1  0
  9  4  1  0
  9 13  2  0
 13 12  1  0
 12 11  2  0
 11 10  1  0
 10  9  1  0
M  END
>  <id>  (13) 
13

>  <inchikey>  (13) 
CMZBFAJLBDAJMC-UHFFFAOYSA-N

>  <alias>  (13) 
A0501a

>  <smiles>  (13) 
COc1ccccc1-c1nnco1

>  <path>  (13) 
/opt/xchem-fragalysis-2/maxwin/BulkDock/TARGETS/A71EV2A/aligned_files/A0501a/A0501a_hippo.pdb

>  <distance_score>  (13) 
None

>  <energy_score>  (13) 
None

>  <compound>  (13) 
CMZBFAJLBDAJMC-UHFFFAOYSA-N

>  <compound_id>  (13) 
13

>  <target>  (13) 
A71EV2A

>  <tags>  (13) 
['GOOD count', 'MEDIOCRE count', '[Other] S1 site', 'hits', '[Other] Active site fragment', '[Other] upload_1 2024-12-06', 'Main status', '[Other] New', '[Other] upload_1 2025-02-12', 'BAD count']

>  <inspirations>  (13) 
None

>  <subsites>  (13) 
None

>  <reference>  (13) 


>  <observation_longname>  (13) 
A71EV2A-x0501_A_151_v1

>  <ConformerSites alias>  (13) 
1b - A0911/A/147

>  <CanonSites alias>  (13) 
1 - Active Site

>  <CrystalformSites alias>  (13) 
F3c - A0487/A/250

>  <Quatassemblies alias>  (13) 
A1 - monomer

>  <Crystalforms alias>  (13) 
F3 - A71_2A_open_long_cell

>  <ConformerSites upload name>  (13) 
1b - A71EV2A-x0911/A/147

>  <CanonSites upload name>  (13) 
1 - A71EV2A-x0911/A/147/1

>  <CrystalformSites upload name>  (13) 
F3c - A71EV2A-x0487/A/250/1

>  <Quatassemblies upload name>  (13) 
A1 - monomer

>  <Crystalforms upload name>  (13) 
F3 - A71_2A_open_long_cell

>  <ConformerSites short tag>  (13) 
1b - A0911/A/147

>  <CanonSites short tag>  (13) 
1 - A0911/A/147/1

>  <CrystalformSites short tag>  (13) 
F3c - A0487/A/250

>  <Quatassemblies short tag>  (13) 
A1 - monomer

>  <Crystalforms short tag>  (13) 
F3 - A71_2A_open_long_cell

>  <Centroid res>  (13) 
A71EV2A-x0911/A/133/A_v1

>  <Experiment code>  (13) 
A71EV2A-x0501

>  <Pose>  (13) 
A0501a

$$$$
A0501b
     RDKit          3D

 13 14  0  0  0  0  0  0  0  0999 V2000
   10.0450    8.7240   23.0690 C   0  0  0  0  0  0  0  0  0  0  0  0
    9.9890   10.1390   23.2040 O   0  0  0  0  0  0  0  0  0  0  0  0
    9.1090   10.6840   24.1080 C   0  0  0  0  0  0  0  0  0  0  0  0
    9.1390   12.0800   24.1960 C   0  0  0  0  0  0  0  0  0  0  0  0
    8.2610   12.7220   25.0710 C   0  0  0  0  0  0  0  0  0  0  0  0
    7.3790   11.9900   25.8410 C   0  0  0  0  0  0  0  0  0  0  0  0
    7.3490   10.6160   25.7420 C   0  0  0  0  0  0  0  0  0  0  0  0
    8.2030    9.9580   24.8680 C   0  0  0  0  0  0  0  0  0  0  0  0
   10.0090   12.9020   23.3660 C   0  0  0  0  0  0  0  0  0  0  0  0
   11.3170   12.5380   23.2170 O   0  0  0  0  0  0  0  0  0  0  0  0
   11.8290   13.4830   22.3880 C   0  0  0  0  0  0  0  0  0  0  0  0
   10.8770   14.3620   22.0650 N   0  0  0  0  0  0  0  0  0  0  0  0
    9.7150   13.9730   22.7050 N   0  0  0  0  0  0  0  0  0  0  0  0
  2  1  1  0
  3  2  1  0
  3  8  2  0
  8  7  1  0
  7  6  2  0
  6  5  1  0
  5  4  2  0
  4  3  1  0
  9  4  1  0
  9 13  2  0
 13 12  1  0
 12 11  2  0
 11 10  1  0
 10  9  1  0
M  END
>  <id>  (14) 
14

>  <inchikey>  (14) 
CMZBFAJLBDAJMC-UHFFFAOYSA-N

>  <alias>  (14) 
A0501b

>  <smiles>  (14) 
COc1ccccc1-c1nnco1

>  <path>  (14) 
/opt/xchem-fragalysis-2/maxwin/BulkDock/TARGETS/A71EV2A/aligned_files/A0501b/A0501b.pdb

>  <distance_score>  (14) 
None

>  <energy_score>  (14) 
None

>  <compound>  (14) 
CMZBFAJLBDAJMC-UHFFFAOYSA-N

>  <compound_id>  (14) 
13

>  <target>  (14) 
A71EV2A

>  <tags>  (14) 
['[Other] Fragment Screen', 'GOOD count', 'MEDIOCRE count', '[Other] S1 site', 'hits', '[Other] Active site fragment', '[Other] upload_1 2024-12-06', 'Main status', '[Other] New', '[Other] upload_1 2025-02-12', 'BAD count']

>  <inspirations>  (14) 
None

>  <subsites>  (14) 
None

>  <reference>  (14) 


>  <observation_longname>  (14) 
A71EV2A-x0501_A_152_v1

>  <ConformerSites alias>  (14) 
1b - A0911/A/147

>  <CanonSites alias>  (14) 
1 - Active Site

>  <CrystalformSites alias>  (14) 
F3d - A0501/A/152

>  <Quatassemblies alias>  (14) 
A1 - monomer

>  <Crystalforms alias>  (14) 
F3 - A71_2A_open_long_cell

>  <ConformerSites upload name>  (14) 
1b - A71EV2A-x0911/A/147

>  <CanonSites upload name>  (14) 
1 - A71EV2A-x0911/A/147/1

>  <CrystalformSites upload name>  (14) 
F3d - A71EV2A-x0501/A/152/1

>  <Quatassemblies upload name>  (14) 
A1 - monomer

>  <Crystalforms upload name>  (14) 
F3 - A71_2A_open_long_cell

>  <ConformerSites short tag>  (14) 
1b - A0911/A/147

>  <CanonSites short tag>  (14) 
1 - A0911/A/147/1

>  <CrystalformSites short tag>  (14) 
F3d - A0501/A/152

>  <Quatassemblies short tag>  (14) 
A1 - monomer

>  <Crystalforms short tag>  (14) 
F3 - A71_2A_open_long_cell

>  <Centroid res>  (14) 
A71EV2A-x0911/A/133/A_v1

>  <Experiment code>  (14) 
A71EV2A-x0501

>  <Pose>  (14) 
A0501a

$$$$
A0514a
     RDKit          3D

 12 13  0  0  0  0  0  0  0  0999 V2000
    5.4930   15.0400   27.4440 N   0  0  0  0  0  0  0  0  0  0  0  0
    5.9660   13.9080   26.9080 C   0  0  0  0  0  0  0  0  0  0  0  0
    5.1190   12.3890   27.1770 S   0  0  0  0  0  0  0  0  0  0  0  0
    7.0170   13.8400   26.1330 N   0  0  0  0  0  0  0  0  0  0  0  0
    7.2110   12.5330   25.6780 C   0  0  0  0  0  0  0  0  0  0  0  0
    6.2710   11.6040   26.1400 C   0  0  0  0  0  0  0  0  0  0  0  0
    6.3300   10.2700   25.7660 C   0  0  0  0  0  0  0  0  0  0  0  0
    7.3480    9.8530   24.9290 C   0  0  0  0  0  0  0  0  0  0  0  0
    8.2300   12.1080   24.8230 C   0  0  0  0  0  0  0  0  0  0  0  0
    8.2790   10.7670   24.4520 C   0  0  0  0  0  0  0  0  0  0  0  0
    9.2540   10.4370   23.5440 O   0  0  0  0  0  0  0  0  0  0  0  0
    9.4010    9.0690   23.1500 C   0  0  0  0  0  0  0  0  0  0  0  0
 12 11  1  0
 11 10  1  0
 10  8  1  0
  8  7  2  0
  7  6  1  0
  6  3  1  0
  3  2  1  0
  2  1  1  0
  4  2  2  0
  5  4  1  0
  6  5  2  0
  9  5  1  0
 10  9  2  0
M  END
>  <id>  (15) 
15

>  <inchikey>  (15) 
OMIHQJBWAPWLBO-UHFFFAOYSA-N

>  <alias>  (15) 
A0514a

>  <smiles>  (15) 
COc1ccc2sc(N)nc2c1

>  <path>  (15) 
/opt/xchem-fragalysis-2/maxwin/BulkDock/TARGETS/A71EV2A/aligned_files/A0514a/A0514a_hippo.pdb

>  <distance_score>  (15) 
None

>  <energy_score>  (15) 
None

>  <compound>  (15) 
OMIHQJBWAPWLBO-UHFFFAOYSA-N

>  <compound_id>  (15) 
14

>  <target>  (15) 
A71EV2A

>  <tags>  (15) 
['[Other] Fragment Screen', 'GOOD count', 'MEDIOCRE count', '[Other] S1 site', 'hits', '[Other] Active site fragment', '[Other] upload_1 2024-12-06', 'Main status', '[Other] New', '[Other] upload_1 2025-02-12', 'BAD count']

>  <inspirations>  (15) 
None

>  <subsites>  (15) 
None

>  <reference>  (15) 


>  <observation_longname>  (15) 
A71EV2A-x0514_B_151_v1

>  <ConformerSites alias>  (15) 
1b - A0911/A/147

>  <CanonSites alias>  (15) 
1 - Active Site

>  <CrystalformSites alias>  (15) 
F3c - A0487/A/250

>  <Quatassemblies alias>  (15) 
A1 - monomer

>  <Crystalforms alias>  (15) 
F3 - A71_2A_open_long_cell

>  <ConformerSites upload name>  (15) 
1b - A71EV2A-x0911/A/147

>  <CanonSites upload name>  (15) 
1 - A71EV2A-x0911/A/147/1

>  <CrystalformSites upload name>  (15) 
F3c - A71EV2A-x0487/A/250/1

>  <Quatassemblies upload name>  (15) 
A1 - monomer

>  <Crystalforms upload name>  (15) 
F3 - A71_2A_open_long_cell

>  <ConformerSites short tag>  (15) 
1b - A0911/A/147

>  <CanonSites short tag>  (15) 
1 - A0911/A/147/1

>  <CrystalformSites short tag>  (15) 
F3c - A0487/A/250

>  <Quatassemblies short tag>  (15) 
A1 - monomer

>  <Crystalforms short tag>  (15) 
F3 - A71_2A_open_long_cell

>  <Centroid res>  (15) 
A71EV2A-x0911/A/133/A_v1

>  <Experiment code>  (15) 
A71EV2A-x0514

>  <Pose>  (15) 
A0514a

$$$$
A0514b
     RDKit          3D

 12 13  0  0  0  0  0  0  0  0999 V2000
   23.9030   22.4170   17.1810 N   0  0  0  0  0  0  0  0  0  0  0  0
   24.8050   21.9120   18.0230 C   0  0  0  0  0  0  0  0  0  0  0  0
   26.5040   22.3590   17.8780 S   0  0  0  0  0  0  0  0  0  0  0  0
   24.5080   21.1430   19.0370 N   0  0  0  0  0  0  0  0  0  0  0  0
   25.6450   20.8540   19.7840 C   0  0  0  0  0  0  0  0  0  0  0  0
   26.8310   21.4310   19.3110 C   0  0  0  0  0  0  0  0  0  0  0  0
   28.0400   21.2230   19.9630 C   0  0  0  0  0  0  0  0  0  0  0  0
   28.0670   20.4070   21.0780 C   0  0  0  0  0  0  0  0  0  0  0  0
   25.6800   20.0370   20.9130 C   0  0  0  0  0  0  0  0  0  0  0  0
   26.9010   19.8120   21.5370 C   0  0  0  0  0  0  0  0  0  0  0  0
   27.1260   18.9550   22.5850 O   0  0  0  0  0  0  0  0  0  0  0  0
   25.9990   18.2760   23.1490 C   0  0  0  0  0  0  0  0  0  0  0  0
 12 11  1  0
 11 10  1  0
 10  8  1  0
  8  7  2  0
  7  6  1  0
  6  3  1  0
  3  2  1  0
  2  1  1  0
  4  2  2  0
  5  4  1  0
  6  5  2  0
  9  5  1  0
 10  9  2  0
M  END
>  <id>  (16) 
16

>  <inchikey>  (16) 
OMIHQJBWAPWLBO-UHFFFAOYSA-N

>  <alias>  (16) 
A0514b

>  <smiles>  (16) 
COc1ccc2sc(N)nc2c1

>  <path>  (16) 
/opt/xchem-fragalysis-2/maxwin/BulkDock/TARGETS/A71EV2A/aligned_files/A0514b/A0514b.pdb

>  <distance_score>  (16) 
None

>  <energy_score>  (16) 
None

>  <compound>  (16) 
OMIHQJBWAPWLBO-UHFFFAOYSA-N

>  <compound_id>  (16) 
14

>  <target>  (16) 
A71EV2A

>  <tags>  (16) 
['[Other] Fragment Screen', 'GOOD count', 'MEDIOCRE count', 'hits', '[Other] upload_1 2024-12-06', 'Main status', '[Other] New', '[Other] upload_1 2025-02-12', 'BAD count']

>  <inspirations>  (16) 
None

>  <subsites>  (16) 
None

>  <reference>  (16) 


>  <observation_longname>  (16) 
A71EV2A-x0514_A_250_v1

>  <ConformerSites alias>  (16) 
5a - A3181/A/202

>  <CanonSites alias>  (16) 
5 - A3181/A/202/1

>  <CrystalformSites alias>  (16) 
F3y - A0514/A/250

>  <Quatassemblies alias>  (16) 
A1 - monomer

>  <Crystalforms alias>  (16) 
F3 - A71_2A_open_long_cell

>  <ConformerSites upload name>  (16) 
5a - A71EV2A-x3181/A/202

>  <CanonSites upload name>  (16) 
5 - A71EV2A-x3181/A/202/1

>  <CrystalformSites upload name>  (16) 
F3y - A71EV2A-x0514/A/250/1

>  <Quatassemblies upload name>  (16) 
A1 - monomer

>  <Crystalforms upload name>  (16) 
F3 - A71_2A_open_long_cell

>  <ConformerSites short tag>  (16) 
5a - A3181/A/202

>  <CanonSites short tag>  (16) 
5 - A3181/A/202/1

>  <CrystalformSites short tag>  (16) 
F3y - A0514/A/250

>  <Quatassemblies short tag>  (16) 
A1 - monomer

>  <Crystalforms short tag>  (16) 
F3 - A71_2A_open_long_cell

>  <Centroid res>  (16) 
A71EV2A-x3181/A/20/A_v1

>  <Experiment code>  (16) 
A71EV2A-x0514

>  <Pose>  (16) 
A0514b

$$$$
A0515a
     RDKit          3D

 11 11  0  0  0  0  0  0  0  0999 V2000
    9.0810   13.7320   24.7780 O   0  0  0  0  0  0  0  0  0  0  0  0
    9.0120   12.5290   24.8190 C   0  0  0  0  0  0  0  0  0  0  0  0
    9.9870   11.7170   24.4220 O   0  0  0  0  0  0  0  0  0  0  0  0
   10.3720   11.8080   23.0290 C   0  0  0  0  0  0  0  0  0  0  0  0
    7.8470   11.7890   25.3700 C   0  0  0  0  0  0  0  0  0  0  0  0
    7.6140   10.4260   25.0710 C   0  0  0  0  0  0  0  0  0  0  0  0
    8.4410    9.6800   24.2450 N   0  0  0  0  0  0  0  0  0  0  0  0
    6.5270    9.8150   25.6610 C   0  0  0  0  0  0  0  0  0  0  0  0
    5.6960   10.4280   26.5050 N   0  0  0  0  0  0  0  0  0  0  0  0
    5.9280   11.7160   26.7740 C   0  0  0  0  0  0  0  0  0  0  0  0
    6.9730   12.4430   26.2350 C   0  0  0  0  0  0  0  0  0  0  0  0
  4  3  1  0
  3  2  1  0
  2  1  2  0
  5  2  1  0
  5 11  2  0
 11 10  1  0
 10  9  2  0
  9  8  1  0
  8  6  2  0
  6  5  1  0
  7  6  1  0
M  END
>  <id>  (17) 
17

>  <inchikey>  (17) 
XLQIGLBALJNHKR-UHFFFAOYSA-N

>  <alias>  (17) 
A0515a

>  <smiles>  (17) 
COC(=O)c1ccncc1N

>  <path>  (17) 
/opt/xchem-fragalysis-2/maxwin/BulkDock/TARGETS/A71EV2A/aligned_files/A0515a/A0515a_hippo.pdb

>  <distance_score>  (17) 
None

>  <energy_score>  (17) 
None

>  <compound>  (17) 
XLQIGLBALJNHKR-UHFFFAOYSA-N

>  <compound_id>  (17) 
15

>  <target>  (17) 
A71EV2A

>  <tags>  (17) 
['[Other] Fragment Screen', 'GOOD count', 'MEDIOCRE count', '[Other] S1 site', 'hits', '[Other] Active site fragment', '[Other] upload_1 2024-12-06', 'Main status', '[Other] New', '[Other] upload_1 2025-02-12', 'BAD count']

>  <inspirations>  (17) 
None

>  <subsites>  (17) 
None

>  <reference>  (17) 


>  <observation_longname>  (17) 
A71EV2A-x0515_A_201_v1

>  <ConformerSites alias>  (17) 
1b - A0911/A/147

>  <CanonSites alias>  (17) 
1 - Active Site

>  <CrystalformSites alias>  (17) 
F2b - A0450/A/201

>  <Quatassemblies alias>  (17) 
A1 - monomer

>  <Crystalforms alias>  (17) 
F2 - A71_2A_open_small_cell

>  <ConformerSites upload name>  (17) 
1b - A71EV2A-x0911/A/147

>  <CanonSites upload name>  (17) 
1 - A71EV2A-x0911/A/147/1

>  <CrystalformSites upload name>  (17) 
F2b - A71EV2A-x0450/A/201/1

>  <Quatassemblies upload name>  (17) 
A1 - monomer

>  <Crystalforms upload name>  (17) 
F2 - A71_2A_open_small_cell

>  <ConformerSites short tag>  (17) 
1b - A0911/A/147

>  <CanonSites short tag>  (17) 
1 - A0911/A/147/1

>  <CrystalformSites short tag>  (17) 
F2b - A0450/A/201

>  <Quatassemblies short tag>  (17) 
A1 - monomer

>  <Crystalforms short tag>  (17) 
F2 - A71_2A_open_small_cell

>  <Centroid res>  (17) 
A71EV2A-x0911/A/133/A_v1

>  <Experiment code>  (17) 
A71EV2A-x0515

>  <Pose>  (17) 
A0515a

$$$$
A0515b
     RDKit          3D

 11 11  0  0  0  0  0  0  0  0999 V2000
   15.9750   -6.7200   17.6350 O   0  0  0  0  0  0  0  0  0  0  0  0
   17.1780   -6.7690   17.6330 C   0  0  0  0  0  0  0  0  0  0  0  0
   17.9100   -6.7490   18.7410 O   0  0  0  0  0  0  0  0  0  0  0  0
   17.8040   -5.5560   19.5560 C   0  0  0  0  0  0  0  0  0  0  0  0
   18.0070   -6.8670   16.4000 C   0  0  0  0  0  0  0  0  0  0  0  0
   17.4960   -7.4640   15.2230 C   0  0  0  0  0  0  0  0  0  0  0  0
   16.2100   -7.9590   15.1360 N   0  0  0  0  0  0  0  0  0  0  0  0
   18.3250   -7.5340   14.1030 C   0  0  0  0  0  0  0  0  0  0  0  0
   19.5730   -7.0500   14.0850 N   0  0  0  0  0  0  0  0  0  0  0  0
   20.0330   -6.4770   15.2060 C   0  0  0  0  0  0  0  0  0  0  0  0
   19.3080   -6.3630   16.3790 C   0  0  0  0  0  0  0  0  0  0  0  0
  4  3  1  0
  3  2  1  0
  2  1  2  0
  5  2  1  0
  5 11  2  0
 11 10  1  0
 10  9  2  0
  9  8  1  0
  8  6  2  0
  6  5  1  0
  7  6  1  0
M  END
>  <id>  (18) 
18

>  <inchikey>  (18) 
XLQIGLBALJNHKR-UHFFFAOYSA-N

>  <alias>  (18) 
A0515b

>  <smiles>  (18) 
COC(=O)c1ccncc1N

>  <path>  (18) 
/opt/xchem-fragalysis-2/maxwin/BulkDock/TARGETS/A71EV2A/aligned_files/A0515b/A0515b.pdb

>  <distance_score>  (18) 
None

>  <energy_score>  (18) 
None

>  <compound>  (18) 
XLQIGLBALJNHKR-UHFFFAOYSA-N

>  <compound_id>  (18) 
15

>  <target>  (18) 
A71EV2A

>  <tags>  (18) 
['[Other] Fragment Screen', 'GOOD count', 'MEDIOCRE count', 'hits', '[Other] upload_1 2024-12-06', 'Main status', '[Other] New', '[Other] upload_1 2025-02-12', 'BAD count']

>  <inspirations>  (18) 
None

>  <subsites>  (18) 
None

>  <reference>  (18) 


>  <observation_longname>  (18) 
A71EV2A-x0515_A_147_v1

>  <ConformerSites alias>  (18) 
2a - A3977/A/202

>  <CanonSites alias>  (18) 
2 - A3977/A/202/1

>  <CrystalformSites alias>  (18) 
F2u - A0497/A/147

>  <Quatassemblies alias>  (18) 
A1 - monomer

>  <Crystalforms alias>  (18) 
F2 - A71_2A_open_small_cell

>  <ConformerSites upload name>  (18) 
2a - A71EV2A-x3977/A/202

>  <CanonSites upload name>  (18) 
2 - A71EV2A-x3977/A/202/1

>  <CrystalformSites upload name>  (18) 
F2u - A71EV2A-x0497/A/147/1

>  <Quatassemblies upload name>  (18) 
A1 - monomer

>  <Crystalforms upload name>  (18) 
F2 - A71_2A_open_small_cell

>  <ConformerSites short tag>  (18) 
2a - A3977/A/202

>  <CanonSites short tag>  (18) 
2 - A3977/A/202/1

>  <CrystalformSites short tag>  (18) 
F2u - A0497/A/147

>  <Quatassemblies short tag>  (18) 
A1 - monomer

>  <Crystalforms short tag>  (18) 
F2 - A71_2A_open_small_cell

>  <Centroid res>  (18) 
A71EV2A-x3977/A/113/A_v1

>  <Experiment code>  (18) 
A71EV2A-x0515

>  <Pose>  (18) 
A0515b

$$$$
A0517a
     RDKit          3D

 18 19  0  0  0  0  0  0  0  0999 V2000
   29.8660    5.9390   19.5640 F   0  0  0  0  0  0  0  0  0  0  0  0
   30.0690    7.0330   18.7920 C   0  0  0  0  0  0  0  0  0  0  0  0
   29.6320    8.2460   19.2430 C   0  0  0  0  0  0  0  0  0  0  0  0
   29.8710    9.3600   18.4600 C   0  0  0  0  0  0  0  0  0  0  0  0
   30.7060    6.8760   17.6060 C   0  0  0  0  0  0  0  0  0  0  0  0
   30.9450    7.9900   16.8400 C   0  0  0  0  0  0  0  0  0  0  0  0
   30.5410    9.2480   17.2620 C   0  0  0  0  0  0  0  0  0  0  0  0
   30.7810   10.4660   16.4220 C   0  0  0  0  0  0  0  0  0  0  0  0
   31.9740   10.4560   15.5940 N   0  0  0  0  0  0  0  0  0  0  0  0
   33.1700   10.6320   16.1310 C   0  0  0  0  0  0  0  0  0  0  0  0
   33.3130   10.8120   17.3000 O   0  0  0  0  0  0  0  0  0  0  0  0
   34.3380   10.5610   15.2140 C   0  0  0  0  0  0  0  0  0  0  0  0
   34.3300   10.3530   13.8560 C   0  0  0  0  0  0  0  0  0  0  0  0
   35.6900   10.6000   15.5400 C   0  0  0  0  0  0  0  0  0  0  0  0
   36.4490   10.4020   14.5090 N   0  0  0  0  0  0  0  0  0  0  0  0
   35.5920   10.2750   13.4780 N   0  0  0  0  0  0  0  0  0  0  0  0
   36.1080   10.2200   12.1110 C   0  0  0  0  0  0  0  0  0  0  0  0
   35.5800    9.0740   11.3240 C   0  0  0  0  0  0  0  0  0  0  0  0
 18 17  1  0
 17 16  1  0
 16 13  1  0
 13 12  2  0
 14 12  1  0
 15 14  2  0
 16 15  1  0
 12 10  1  0
 11 10  2  0
 10  9  1  0
  9  8  1  0
  8  7  1  0
  7  4  2  0
  4  3  1  0
  3  2  2  0
  2  1  1  0
  5  2  1  0
  6  5  2  0
  7  6  1  0
M  END
>  <id>  (19) 
19

>  <inchikey>  (19) 
JRTRCSIVSIKKCQ-UHFFFAOYSA-N

>  <alias>  (19) 
A0517a

>  <smiles>  (19) 
CCn1cc(C(=O)NCc2ccc(F)cc2)cn1

>  <path>  (19) 
/opt/xchem-fragalysis-2/maxwin/BulkDock/TARGETS/A71EV2A/aligned_files/A0517a/A0517a.pdb

>  <distance_score>  (19) 
None

>  <energy_score>  (19) 
None

>  <compound>  (19) 
JRTRCSIVSIKKCQ-UHFFFAOYSA-N

>  <compound_id>  (19) 
16

>  <target>  (19) 
A71EV2A

>  <tags>  (19) 
['[Other] Fragment Screen', 'GOOD count', 'MEDIOCRE count', 'hits', '[Other] upload_1 2024-12-06', 'Main status', '[Other] New', '[Other] upload_1 2025-02-12', 'BAD count']

>  <inspirations>  (19) 
None

>  <subsites>  (19) 
None

>  <reference>  (19) 


>  <observation_longname>  (19) 
A71EV2A-x0517_A_147_v1

>  <ConformerSites alias>  (19) 
8a - A0517/A/147

>  <CanonSites alias>  (19) 
8 - A0517/A/147/1

>  <CrystalformSites alias>  (19) 
F1ae - A0517/A/147

>  <Quatassemblies alias>  (19) 
A1 - monomer

>  <Crystalforms alias>  (19) 
F1 - A71_2A_open

>  <ConformerSites upload name>  (19) 
8a - A71EV2A-x0517/A/147

>  <CanonSites upload name>  (19) 
8 - A71EV2A-x0517/A/147/1

>  <CrystalformSites upload name>  (19) 
F1ae - A71EV2A-x0517/A/147/1

>  <Quatassemblies upload name>  (19) 
A1 - monomer

>  <Crystalforms upload name>  (19) 
F1 - A71_2A_open

>  <ConformerSites short tag>  (19) 
8a - A0517/A/147

>  <CanonSites short tag>  (19) 
8 - A0517/A/147/1

>  <CrystalformSites short tag>  (19) 
F1ae - A0517/A/147

>  <Quatassemblies short tag>  (19) 
A1 - monomer

>  <Crystalforms short tag>  (19) 
F1 - A71_2A_open

>  <Centroid res>  (19) 
A71EV2A-x0517/A/43/A_v1

>  <Experiment code>  (19) 
A71EV2A-x0517

>  <Pose>  (19) 
A0517a

$$$$
A0525a
     RDKit          3D

 11 11  0  0  0  0  0  0  0  0999 V2000
    8.0530   22.3090   26.2050 O   0  0  0  0  0  0  0  0  0  0  0  0
    9.2070   22.5100   25.7780 C   0  0  0  0  0  0  0  0  0  0  0  0
    9.6880   23.7420   25.2060 C   0  0  0  0  0  0  0  0  0  0  0  0
   10.9280   23.8080   24.6560 C   0  0  0  0  0  0  0  0  0  0  0  0
   10.0940   21.4760   25.7710 N   0  0  0  0  0  0  0  0  0  0  0  0
   11.3330   21.5280   25.2100 C   0  0  0  0  0  0  0  0  0  0  0  0
   11.7720   22.6360   24.6170 C   0  0  0  0  0  0  0  0  0  0  0  0
   12.9240   22.6460   23.8550 O   0  0  0  0  0  0  0  0  0  0  0  0
   14.1400   22.7220   24.5010 C   0  0  0  0  0  0  0  0  0  0  0  0
   14.0570   23.7370   25.3690 F   0  0  0  0  0  0  0  0  0  0  0  0
   14.3840   21.5620   25.1910 F   0  0  0  0  0  0  0  0  0  0  0  0
 10  9  1  0
 11  9  1  0
  9  8  1  0
  8  7  1  0
  7  4  1  0
  4  3  2  0
  3  2  1  0
  2  1  2  0
  5  2  1  0
  6  5  1  0
  7  6  2  0
M  END
>  <id>  (20) 
20

>  <inchikey>  (20) 
VRWFXRMPZMWPKH-UHFFFAOYSA-N

>  <alias>  (20) 
A0525a

>  <smiles>  (20) 
O=c1ccc(OC(F)F)c[nH]1

>  <path>  (20) 
/opt/xchem-fragalysis-2/maxwin/BulkDock/TARGETS/A71EV2A/aligned_files/A0525a/A0525a.pdb

>  <distance_score>  (20) 
None

>  <energy_score>  (20) 
None

>  <compound>  (20) 
VRWFXRMPZMWPKH-UHFFFAOYSA-N

>  <compound_id>  (20) 
17

>  <target>  (20) 
A71EV2A

>  <tags>  (20) 
['[Other] Fragment Screen', 'GOOD count', 'MEDIOCRE count', 'hits', '[Other] upload_1 2024-12-06', 'Main status', '[Other] New', '[Other] upload_1 2025-02-12', 'BAD count']

>  <inspirations>  (20) 
None

>  <subsites>  (20) 
None

>  <reference>  (20) 


>  <observation_longname>  (20) 
A71EV2A-x0525_A_246_v1

>  <ConformerSites alias>  (20) 
4c - A0525/A/246

>  <CanonSites alias>  (20) 
4 - A0525/A/246/1

>  <CrystalformSites alias>  (20) 
F1z - A0525/A/246

>  <Quatassemblies alias>  (20) 
A1 - monomer

>  <Crystalforms alias>  (20) 
F1 - A71_2A_open

>  <ConformerSites upload name>  (20) 
4c - A71EV2A-x0525/A/246

>  <CanonSites upload name>  (20) 
4 - A71EV2A-x0525/A/246/1

>  <CrystalformSites upload name>  (20) 
F1z - A71EV2A-x0525/A/246/1

>  <Quatassemblies upload name>  (20) 
A1 - monomer

>  <Crystalforms upload name>  (20) 
F1 - A71_2A_open

>  <ConformerSites short tag>  (20) 
4c - A0525/A/246

>  <CanonSites short tag>  (20) 
4 - A0525/A/246/1

>  <CrystalformSites short tag>  (20) 
F1z - A0525/A/246

>  <Quatassemblies short tag>  (20) 
A1 - monomer

>  <Crystalforms short tag>  (20) 
F1 - A71_2A_open

>  <Centroid res>  (20) 
A71EV2A-x0525/A/90/A_v1

>  <Experiment code>  (20) 
A71EV2A-x0525

>  <Pose>  (20) 
A0525a

$$$$
A0526a
     RDKit          3D

 12 13  0  0  0  0  0  0  0  0999 V2000
    3.2990   10.4300   20.2810 C   0  0  0  0  0  0  0  0  0  0  0  0
    3.1260   11.3220   19.1010 C   0  0  0  0  0  0  0  0  0  0  0  0
    1.9480   11.9490   18.7510 N   0  0  0  0  0  0  0  0  0  0  0  0
    2.2170   12.6790   17.6020 C   0  0  0  0  0  0  0  0  0  0  0  0
    3.5150   12.4650   17.3250 C   0  0  0  0  0  0  0  0  0  0  0  0
    4.0850   11.6490   18.2490 N   0  0  0  0  0  0  0  0  0  0  0  0
    0.6720   11.9150   19.4200 C   0  0  0  0  0  0  0  0  0  0  0  0
    0.5190   11.9210   20.7880 C   0  0  0  0  0  0  0  0  0  0  0  0
   -0.6540   11.9510   21.4110 N   0  0  0  0  0  0  0  0  0  0  0  0
   -1.7430   12.0190   20.6610 C   0  0  0  0  0  0  0  0  0  0  0  0
   -1.7000   12.0630   19.2940 C   0  0  0  0  0  0  0  0  0  0  0  0
   -0.4810   11.9780   18.6680 C   0  0  0  0  0  0  0  0  0  0  0  0
  2  1  1  0
  2  6  2  0
  6  5  1  0
  5  4  2  0
  4  3  1  0
  3  2  1  0
  7  3  1  0
  7 12  2  0
 12 11  1  0
 11 10  2  0
 10  9  1  0
  9  8  2  0
  8  7  1  0
M  END
>  <id>  (21) 
21

>  <inchikey>  (21) 
MNHXJOCWNHZKLQ-UHFFFAOYSA-N

>  <alias>  (21) 
A0526a

>  <smiles>  (21) 
Cc1nccn1-c1cccnc1

>  <path>  (21) 
/opt/xchem-fragalysis-2/maxwin/BulkDock/TARGETS/A71EV2A/aligned_files/A0526a/A0526a.pdb

>  <distance_score>  (21) 
None

>  <energy_score>  (21) 
None

>  <compound>  (21) 
MNHXJOCWNHZKLQ-UHFFFAOYSA-N

>  <compound_id>  (21) 
18

>  <target>  (21) 
A71EV2A

>  <tags>  (21) 
['[Other] Fragment Screen', 'GOOD count', '[Other] S4 site', 'MEDIOCRE count', '[Other] S5 site', 'hits', '[Other] Active site fragment', '[Other] upload_1 2024-12-06', 'Main status', '[Other] New', '[Other] upload_1 2025-02-12', 'BAD count']

>  <inspirations>  (21) 
None

>  <subsites>  (21) 
None

>  <reference>  (21) 


>  <observation_longname>  (21) 
A71EV2A-x0526_A_147_v1

>  <ConformerSites alias>  (21) 
1b - A0911/A/147

>  <CanonSites alias>  (21) 
1 - Active Site

>  <CrystalformSites alias>  (21) 
F1a - A0375/A/201

>  <Quatassemblies alias>  (21) 
A1 - monomer

>  <Crystalforms alias>  (21) 
F1 - A71_2A_open

>  <ConformerSites upload name>  (21) 
1b - A71EV2A-x0911/A/147

>  <CanonSites upload name>  (21) 
1 - A71EV2A-x0911/A/147/1

>  <CrystalformSites upload name>  (21) 
F1a - A71EV2A-x0375/A/201/1

>  <Quatassemblies upload name>  (21) 
A1 - monomer

>  <Crystalforms upload name>  (21) 
F1 - A71_2A_open

>  <ConformerSites short tag>  (21) 
1b - A0911/A/147

>  <CanonSites short tag>  (21) 
1 - A0911/A/147/1

>  <CrystalformSites short tag>  (21) 
F1a - A0375/A/201

>  <Quatassemblies short tag>  (21) 
A1 - monomer

>  <Crystalforms short tag>  (21) 
F1 - A71_2A_open

>  <Centroid res>  (21) 
A71EV2A-x0911/A/133/A_v1

>  <Experiment code>  (21) 
A71EV2A-x0526

>  <Pose>  (21) 
A0526a

$$$$
A0528a
     RDKit          3D

 15 16  0  0  0  0  0  0  0  0999 V2000
   10.0980   16.1610   21.7630 O   0  0  0  0  0  0  0  0  0  0  0  0
   11.0240   15.4160   22.0390 C   0  0  0  0  0  0  0  0  0  0  0  0
   12.3220   15.7020   21.9000 N   0  0  0  0  0  0  0  0  0  0  0  0
   12.8350   16.7130   20.9870 C   0  0  0  0  0  0  0  0  0  0  0  0
   10.9280   13.9920   22.5750 C   0  0  1  0  0  0  0  0  0  0  0  0
   12.3590   13.6760   23.0450 C   0  0  0  0  0  0  0  0  0  0  0  0
   13.2070   14.8990   22.7210 C   0  0  0  0  0  0  0  0  0  0  0  0
   10.0050   13.9260   23.6780 O   0  0  0  0  0  0  0  0  0  0  0  0
    9.4550   12.7040   24.0210 C   0  0  0  0  0  0  0  0  0  0  0  0
    9.8850   11.5010   23.4740 C   0  0  0  0  0  0  0  0  0  0  0  0
    9.2570   10.3550   23.8970 C   0  0  0  0  0  0  0  0  0  0  0  0
    9.7030    9.1680   23.4060 F   0  0  0  0  0  0  0  0  0  0  0  0
    8.2400   10.3420   24.8120 C   0  0  0  0  0  0  0  0  0  0  0  0
    7.8230   11.5520   25.3410 C   0  0  0  0  0  0  0  0  0  0  0  0
    8.4270   12.7370   24.9500 C   0  0  0  0  0  0  0  0  0  0  0  0
  4  3  1  0
  3  7  1  0
  7  6  1  0
  6  5  1  0
  5  8  1  1
  9  8  1  0
  9 15  2  0
 15 14  1  0
 14 13  2  0
 13 11  1  0
 12 11  1  0
 11 10  2  0
 10  9  1  0
  5  2  1  0
  3  2  1  0
  2  1  2  0
M  END
>  <id>  (22) 
22

>  <inchikey>  (22) 
JWLJWMCLUCDWSD-SNVBAGLBSA-N

>  <alias>  (22) 
A0528a

>  <smiles>  (22) 
CN1CC[C@@H](Oc2cccc(F)c2)C1=O

>  <path>  (22) 
/opt/xchem-fragalysis-2/maxwin/BulkDock/TARGETS/A71EV2A/aligned_files/A0528a/A0528a.pdb

>  <distance_score>  (22) 
None

>  <energy_score>  (22) 
None

>  <compound>  (22) 
JWLJWMCLUCDWSD-UHFFFAOYSA-N

>  <compound_id>  (22) 
19

>  <target>  (22) 
A71EV2A

>  <tags>  (22) 
['[Other] Fragment Screen', 'GOOD count', 'MEDIOCRE count', '[Other] S1 site', 'hits', '[Other] Active site fragment', '[Other] S2 site', '[Other] upload_1 2024-12-06', 'Main status', '[Other] New', '[Other] upload_1 2025-02-12', 'BAD count']

>  <inspirations>  (22) 
None

>  <subsites>  (22) 
None

>  <reference>  (22) 


>  <observation_longname>  (22) 
A71EV2A-x0528_A_147_v1

>  <ConformerSites alias>  (22) 
1b - A0911/A/147

>  <CanonSites alias>  (22) 
1 - Active Site

>  <CrystalformSites alias>  (22) 
F2b - A0450/A/201

>  <Quatassemblies alias>  (22) 
A1 - monomer

>  <Crystalforms alias>  (22) 
F2 - A71_2A_open_small_cell

>  <ConformerSites upload name>  (22) 
1b - A71EV2A-x0911/A/147

>  <CanonSites upload name>  (22) 
1 - A71EV2A-x0911/A/147/1

>  <CrystalformSites upload name>  (22) 
F2b - A71EV2A-x0450/A/201/1

>  <Quatassemblies upload name>  (22) 
A1 - monomer

>  <Crystalforms upload name>  (22) 
F2 - A71_2A_open_small_cell

>  <ConformerSites short tag>  (22) 
1b - A0911/A/147

>  <CanonSites short tag>  (22) 
1 - A0911/A/147/1

>  <CrystalformSites short tag>  (22) 
F2b - A0450/A/201

>  <Quatassemblies short tag>  (22) 
A1 - monomer

>  <Crystalforms short tag>  (22) 
F2 - A71_2A_open_small_cell

>  <Centroid res>  (22) 
A71EV2A-x0911/A/133/A_v1

>  <Experiment code>  (22) 
A71EV2A-x0528

>  <Pose>  (22) 
A0528a

$$$$
A0528b
     RDKit          3D

 15 16  0  0  0  0  0  0  0  0999 V2000
   27.5430   19.5880   22.4250 O   0  0  0  0  0  0  0  0  0  0  0  0
   27.0550   20.0800   21.4300 C   0  0  0  0  0  0  0  0  0  0  0  0
   25.7600   20.3530   21.2480 N   0  0  0  0  0  0  0  0  0  0  0  0
   24.6800   19.6730   21.9560 C   0  0  0  0  0  0  0  0  0  0  0  0
   27.7760   20.5100   20.1670 C   0  0  1  0  0  0  0  0  0  0  0  0
   26.9170   21.6720   19.6940 C   0  0  0  0  0  0  0  0  0  0  0  0
   25.5220   21.3830   20.2460 C   0  0  0  0  0  0  0  0  0  0  0  0
   29.1240   20.8400   20.5190 O   0  0  0  0  0  0  0  0  0  0  0  0
   29.8980   21.5630   19.6380 C   0  0  0  0  0  0  0  0  0  0  0  0
   30.6430   20.9020   18.6740 C   0  0  0  0  0  0  0  0  0  0  0  0
   31.5150   21.6580   17.9290 C   0  0  0  0  0  0  0  0  0  0  0  0
   32.3140   21.0180   17.0480 F   0  0  0  0  0  0  0  0  0  0  0  0
   31.6560   23.0100   18.0630 C   0  0  0  0  0  0  0  0  0  0  0  0
   30.8880   23.6510   19.0180 C   0  0  0  0  0  0  0  0  0  0  0  0
   30.0040   22.9360   19.8050 C   0  0  0  0  0  0  0  0  0  0  0  0
  4  3  1  0
  3  7  1  0
  7  6  1  0
  6  5  1  0
  5  8  1  1
  9  8  1  0
  9 15  2  0
 15 14  1  0
 14 13  2  0
 13 11  1  0
 12 11  1  0
 11 10  2  0
 10  9  1  0
  5  2  1  0
  3  2  1  0
  2  1  2  0
M  END
>  <id>  (23) 
23

>  <inchikey>  (23) 
JWLJWMCLUCDWSD-SNVBAGLBSA-N

>  <alias>  (23) 
A0528b

>  <smiles>  (23) 
CN1CC[C@@H](Oc2cccc(F)c2)C1=O

>  <path>  (23) 
/opt/xchem-fragalysis-2/maxwin/BulkDock/TARGETS/A71EV2A/aligned_files/A0528b/A0528b.pdb

>  <distance_score>  (23) 
None

>  <energy_score>  (23) 
None

>  <compound>  (23) 
JWLJWMCLUCDWSD-UHFFFAOYSA-N

>  <compound_id>  (23) 
19

>  <target>  (23) 
A71EV2A

>  <tags>  (23) 
['[Other] Fragment Screen', 'GOOD count', 'MEDIOCRE count', 'hits', '[Other] upload_1 2024-12-06', 'Main status', '[Other] New', '[Other] upload_1 2025-02-12', 'BAD count']

>  <inspirations>  (23) 
None

>  <subsites>  (23) 
None

>  <reference>  (23) 


>  <observation_longname>  (23) 
A71EV2A-x0528_A_201_v1

>  <ConformerSites alias>  (23) 
5a - A3181/A/202

>  <CanonSites alias>  (23) 
5 - A3181/A/202/1

>  <CrystalformSites alias>  (23) 
F2aa - A0528/A/201

>  <Quatassemblies alias>  (23) 
A1 - monomer

>  <Crystalforms alias>  (23) 
F2 - A71_2A_open_small_cell

>  <ConformerSites upload name>  (23) 
5a - A71EV2A-x3181/A/202

>  <CanonSites upload name>  (23) 
5 - A71EV2A-x3181/A/202/1

>  <CrystalformSites upload name>  (23) 
F2aa - A71EV2A-x0528/A/201/1

>  <Quatassemblies upload name>  (23) 
A1 - monomer

>  <Crystalforms upload name>  (23) 
F2 - A71_2A_open_small_cell

>  <ConformerSites short tag>  (23) 
5a - A3181/A/202

>  <CanonSites short tag>  (23) 
5 - A3181/A/202/1

>  <CrystalformSites short tag>  (23) 
F2aa - A0528/A/201

>  <Quatassemblies short tag>  (23) 
A1 - monomer

>  <Crystalforms short tag>  (23) 
F2 - A71_2A_open_small_cell

>  <Centroid res>  (23) 
A71EV2A-x3181/A/20/A_v1

>  <Experiment code>  (23) 
A71EV2A-x0528

>  <Pose>  (23) 
A0528b

$$$$
A0540a
     RDKit          3D

 18 19  0  0  0  0  0  0  0  0999 V2000
   14.6260   23.4330   23.0830 N   0  0  0  0  0  0  0  0  0  0  0  0
   13.6660   23.2300   23.6310 C   0  0  0  0  0  0  0  0  0  0  0  0
   12.4820   22.9530   24.3550 C   0  0  0  0  0  0  0  0  0  0  0  0
   11.4660   23.9000   24.4110 C   0  0  0  0  0  0  0  0  0  0  0  0
   10.3170   23.6330   25.1270 C   0  0  0  0  0  0  0  0  0  0  0  0
   12.3290   21.7420   25.0190 C   0  0  0  0  0  0  0  0  0  0  0  0
   11.1770   21.4940   25.7220 C   0  0  0  0  0  0  0  0  0  0  0  0
   10.1600   22.4320   25.7930 C   0  0  0  0  0  0  0  0  0  0  0  0
    8.9300   22.1260   26.6000 C   0  0  0  0  0  0  0  0  0  0  0  0
    9.2870   22.1770   28.0300 N   0  0  0  0  0  0  0  0  0  0  0  0
    8.1230   22.0100   28.9190 C   0  0  0  0  0  0  0  0  0  0  0  0
    7.4740   20.6450   28.8770 C   0  0  0  0  0  0  0  0  0  0  0  0
    6.2440   20.4500   28.2630 C   0  0  0  0  0  0  0  0  0  0  0  0
    5.6540   19.1990   28.2250 C   0  0  0  0  0  0  0  0  0  0  0  0
    8.1050   19.5460   29.4400 C   0  0  0  0  0  0  0  0  0  0  0  0
    7.5320   18.2850   29.3880 C   0  0  0  0  0  0  0  0  0  0  0  0
    6.3190   18.1520   28.7800 C   0  0  0  0  0  0  0  0  0  0  0  0
    5.7580   16.9180   28.7040 F   0  0  0  0  0  0  0  0  0  0  0  0
 18 17  1  0
 17 14  1  0
 14 13  2  0
 13 12  1  0
 12 11  1  0
 11 10  1  0
 10  9  1  0
  9  8  1  0
  8  5  2  0
  5  4  1  0
  4  3  2  0
  3  2  1  0
  2  1  3  0
  6  3  1  0
  7  6  2  0
  8  7  1  0
 15 12  2  0
 16 15  1  0
 17 16  2  0
M  END
>  <id>  (24) 
24

>  <inchikey>  (24) 
DLXXWXOFLPDGAD-UHFFFAOYSA-N

>  <alias>  (24) 
A0540a

>  <smiles>  (24) 
N#Cc1ccc(CNCc2ccc(F)cc2)cc1

>  <path>  (24) 
/opt/xchem-fragalysis-2/maxwin/BulkDock/TARGETS/A71EV2A/aligned_files/A0540a/A0540a.pdb

>  <distance_score>  (24) 
None

>  <energy_score>  (24) 
None

>  <compound>  (24) 
DLXXWXOFLPDGAD-UHFFFAOYSA-N

>  <compound_id>  (24) 
20

>  <target>  (24) 
A71EV2A

>  <tags>  (24) 
['[Other] Fragment Screen', 'GOOD count', 'MEDIOCRE count', 'hits', '[Other] upload_1 2024-12-06', 'Main status', '[Other] New', '[Other] upload_1 2025-02-12', 'BAD count']

>  <inspirations>  (24) 
None

>  <subsites>  (24) 
None

>  <reference>  (24) 


>  <observation_longname>  (24) 
A71EV2A-x0540_A_147_v1

>  <ConformerSites alias>  (24) 
4c - A0525/A/246

>  <CanonSites alias>  (24) 
4 - A0525/A/246/1

>  <CrystalformSites alias>  (24) 
F1z - A0525/A/246

>  <Quatassemblies alias>  (24) 
A1 - monomer

>  <Crystalforms alias>  (24) 
F1 - A71_2A_open

>  <ConformerSites upload name>  (24) 
4c - A71EV2A-x0525/A/246

>  <CanonSites upload name>  (24) 
4 - A71EV2A-x0525/A/246/1

>  <CrystalformSites upload name>  (24) 
F1z - A71EV2A-x0525/A/246/1

>  <Quatassemblies upload name>  (24) 
A1 - monomer

>  <Crystalforms upload name>  (24) 
F1 - A71_2A_open

>  <ConformerSites short tag>  (24) 
4c - A0525/A/246

>  <CanonSites short tag>  (24) 
4 - A0525/A/246/1

>  <CrystalformSites short tag>  (24) 
F1z - A0525/A/246

>  <Quatassemblies short tag>  (24) 
A1 - monomer

>  <Crystalforms short tag>  (24) 
F1 - A71_2A_open

>  <Centroid res>  (24) 
A71EV2A-x0525/A/90/A_v1

>  <Experiment code>  (24) 
A71EV2A-x0540

>  <Pose>  (24) 
A0540a

$$$$
A0541a
     RDKit          3D

 15 15  0  0  0  0  0  0  0  0999 V2000
    5.2340   15.1010    2.0220 O   0  0  0  0  0  0  0  0  0  0  0  0
    5.6510   14.0460    1.7260 C   0  0  0  0  0  0  0  0  0  0  0  0
    4.8660   13.0010    1.7620 N   0  0  0  0  0  0  0  0  0  0  0  0
    3.9370   12.9800    2.8810 C   0  0  0  0  0  0  0  0  0  0  0  0
    4.7260   12.0160    0.7310 C   0  0  0  0  0  0  0  0  0  0  0  0
    7.0950   13.8830    1.3660 C   0  0  2  0  0  0  0  0  0  0  0  0
    7.5020   12.4710    0.9310 C   0  0  0  0  0  0  0  0  0  0  0  0
    7.8720   14.3380    2.5330 C   0  0  0  0  0  0  0  0  0  0  0  0
    7.3560   13.7240    3.7760 C   0  0  0  0  0  0  0  0  0  0  0  0
    7.4480   12.4240    4.1520 C   0  0  0  0  0  0  0  0  0  0  0  0
    7.5570   11.1320    3.4460 C   0  0  0  0  0  0  0  0  0  0  0  0
    7.4230   12.3500    5.3620 O   0  0  0  0  0  0  0  0  0  0  0  0
    7.1910   13.5980    5.8890 N   0  0  0  0  0  0  0  0  0  0  0  0
    7.1480   14.4240    4.9040 C   0  0  0  0  0  0  0  0  0  0  0  0
    7.0280   15.9050    5.0700 C   0  0  0  0  0  0  0  0  0  0  0  0
  6  7  1  1
  8  6  1  0
  9  8  1  0
  9 14  1  0
 15 14  1  0
 14 13  2  0
 13 12  1  0
 12 10  1  0
 10  9  2  0
 11 10  1  0
  6  2  1  0
  2  1  2  0
  3  2  1  0
  5  3  1  0
  4  3  1  0
M  END
>  <id>  (25) 
25

>  <inchikey>  (25) 
NIHQHFJWDDQIMY-SSDOTTSWSA-N

>  <alias>  (25) 
A0541a

>  <smiles>  (25) 
Cc1noc(C)c1C[C@@H](C)C(=O)N(C)C

>  <path>  (25) 
/opt/xchem-fragalysis-2/maxwin/BulkDock/TARGETS/A71EV2A/aligned_files/A0541a/A0541a.pdb

>  <distance_score>  (25) 
None

>  <energy_score>  (25) 
None

>  <compound>  (25) 
NIHQHFJWDDQIMY-UHFFFAOYSA-N

>  <compound_id>  (25) 
21

>  <target>  (25) 
A71EV2A

>  <tags>  (25) 
['[Other] Fragment Screen', 'GOOD count', 'MEDIOCRE count', 'hits', '[Other] upload_1 2024-12-06', 'Main status', '[Other] New', '[Other] upload_1 2025-02-12', 'BAD count']

>  <inspirations>  (25) 
None

>  <subsites>  (25) 
None

>  <reference>  (25) 


>  <observation_longname>  (25) 
A71EV2A-x0541_A_147_v1

>  <ConformerSites alias>  (25) 
3a - A0541/A/147

>  <CanonSites alias>  (25) 
3 - A0541/A/147/1

>  <CrystalformSites alias>  (25) 
F1x - A0541/A/147

>  <Quatassemblies alias>  (25) 
A1 - monomer

>  <Crystalforms alias>  (25) 
F1 - A71_2A_open

>  <ConformerSites upload name>  (25) 
3a - A71EV2A-x0541/A/147

>  <CanonSites upload name>  (25) 
3 - A71EV2A-x0541/A/147/1

>  <CrystalformSites upload name>  (25) 
F1x - A71EV2A-x0541/A/147/1

>  <Quatassemblies upload name>  (25) 
A1 - monomer

>  <Crystalforms upload name>  (25) 
F1 - A71_2A_open

>  <ConformerSites short tag>  (25) 
3a - A0541/A/147

>  <CanonSites short tag>  (25) 
3 - A0541/A/147/1

>  <CrystalformSites short tag>  (25) 
F1x - A0541/A/147

>  <Quatassemblies short tag>  (25) 
A1 - monomer

>  <Crystalforms short tag>  (25) 
F1 - A71_2A_open

>  <Centroid res>  (25) 
A71EV2A-x0541/A/97/A_v1

>  <Experiment code>  (25) 
A71EV2A-x0541

>  <Pose>  (25) 
A0541a

$$$$
A0554b
     RDKit          3D

 13 14  0  0  0  0  0  0  0  0999 V2000
    3.2790   -3.8440    5.9560 O   0  0  0  0  0  0  0  0  0  0  0  0
    3.7720   -4.7830    5.3370 C   0  0  0  0  0  0  0  0  0  0  0  0
    4.6230   -4.5750    4.1250 C   0  0  0  0  0  0  0  0  0  0  0  0
    3.5680   -6.0810    5.6620 N   0  0  0  0  0  0  0  0  0  0  0  0
    3.2740   -6.7180    6.8900 C   0  0  0  0  0  0  0  0  0  0  0  0
    4.1070   -7.7480    7.3490 C   0  0  0  0  0  0  0  0  0  0  0  0
    5.3080   -8.2050    6.8630 N   0  0  0  0  0  0  0  0  0  0  0  0
    5.6940   -9.2970    7.6000 C   0  0  0  0  0  0  0  0  0  0  0  0
    4.7750   -9.5580    8.5620 C   0  0  0  0  0  0  0  0  0  0  0  0
    3.7400   -8.5770    8.4330 C   0  0  0  0  0  0  0  0  0  0  0  0
    2.5210   -8.3400    9.0720 C   0  0  0  0  0  0  0  0  0  0  0  0
    1.6940   -7.3210    8.6330 C   0  0  0  0  0  0  0  0  0  0  0  0
    2.0680   -6.5110    7.5670 C   0  0  0  0  0  0  0  0  0  0  0  0
  3  2  1  0
  2  1  2  0
  4  2  1  0
  5  4  1  0
  5 13  2  0
 13 12  1  0
 12 11  2  0
 11 10  1  0
 10  9  1  0
  9  8  2  0
  8  7  1  0
  7  6  1  0
  6  5  1  0
 10  6  2  0
M  END
>  <id>  (26) 
26

>  <inchikey>  (26) 
DCOHDTHCOCZQTO-UHFFFAOYSA-N

>  <alias>  (26) 
A0554b

>  <smiles>  (26) 
CC(=O)Nc1cccc2cc[nH]c12

>  <path>  (26) 
/opt/xchem-fragalysis-2/maxwin/BulkDock/TARGETS/A71EV2A/aligned_files/A0554b/A0554b.pdb

>  <distance_score>  (26) 
None

>  <energy_score>  (26) 
None

>  <compound>  (26) 
DCOHDTHCOCZQTO-UHFFFAOYSA-N

>  <compound_id>  (26) 
22

>  <target>  (26) 
A71EV2A

>  <tags>  (26) 
['[Other] Fragment Screen', 'GOOD count', 'MEDIOCRE count', 'hits', '[Other] upload_1 2024-12-06', 'Main status', '[Other] New', '[Other] upload_1 2025-02-12', 'BAD count']

>  <inspirations>  (26) 
None

>  <subsites>  (26) 
None

>  <reference>  (26) 


>  <observation_longname>  (26) 
A71EV2A-x0554_A_147_v1

>  <ConformerSites alias>  (26) 
14a - A0554/A/147

>  <CanonSites alias>  (26) 
14 - A0554/A/147/1

>  <CrystalformSites alias>  (26) 
F1al - A0554/A/147

>  <Quatassemblies alias>  (26) 
A1 - monomer

>  <Crystalforms alias>  (26) 
F1 - A71_2A_open

>  <ConformerSites upload name>  (26) 
14a - A71EV2A-x0554/A/147

>  <CanonSites upload name>  (26) 
14 - A71EV2A-x0554/A/147/1

>  <CrystalformSites upload name>  (26) 
F1al - A71EV2A-x0554/A/147/1

>  <Quatassemblies upload name>  (26) 
A1 - monomer

>  <Crystalforms upload name>  (26) 
F1 - A71_2A_open

>  <ConformerSites short tag>  (26) 
14a - A0554/A/147

>  <CanonSites short tag>  (26) 
14 - A0554/A/147/1

>  <CrystalformSites short tag>  (26) 
F1al - A0554/A/147

>  <Quatassemblies short tag>  (26) 
A1 - monomer

>  <Crystalforms short tag>  (26) 
F1 - A71_2A_open

>  <Centroid res>  (26) 
A71EV2A-x0554/A/58/A_v1

>  <Experiment code>  (26) 
A71EV2A-x0554

>  <Pose>  (26) 
A0554b

$$$$
A0554a
     RDKit          3D

 13 14  0  0  0  0  0  0  0  0999 V2000
   10.9670   13.8430   24.6240 O   0  0  0  0  0  0  0  0  0  0  0  0
   11.0770   13.5370   23.4490 C   0  0  0  0  0  0  0  0  0  0  0  0
   11.9730   14.2950   22.5090 C   0  0  0  0  0  0  0  0  0  0  0  0
   10.4350   12.4710   22.9060 N   0  0  0  0  0  0  0  0  0  0  0  0
    9.5150   11.5930   23.5110 C   0  0  0  0  0  0  0  0  0  0  0  0
    8.4980   12.0030   24.3880 C   0  0  0  0  0  0  0  0  0  0  0  0
    8.1670   13.2530   24.8500 N   0  0  0  0  0  0  0  0  0  0  0  0
    7.0570   13.1450   25.6510 C   0  0  0  0  0  0  0  0  0  0  0  0
    6.6630   11.8500   25.7280 C   0  0  0  0  0  0  0  0  0  0  0  0
    7.5640   11.0880   24.9210 C   0  0  0  0  0  0  0  0  0  0  0  0
    7.6590    9.7480   24.5500 C   0  0  0  0  0  0  0  0  0  0  0  0
    8.6790    9.3350   23.7130 C   0  0  0  0  0  0  0  0  0  0  0  0
    9.5850   10.2390   23.1970 C   0  0  0  0  0  0  0  0  0  0  0  0
  3  2  1  0
  2  1  2  0
  4  2  1  0
  5  4  1  0
  5 13  2  0
 13 12  1  0
 12 11  2  0
 11 10  1  0
 10  9  1  0
  9  8  2  0
  8  7  1  0
  7  6  1  0
  6  5  1  0
 10  6  2  0
M  END
>  <id>  (27) 
27

>  <inchikey>  (27) 
DCOHDTHCOCZQTO-UHFFFAOYSA-N

>  <alias>  (27) 
A0554a

>  <smiles>  (27) 
CC(=O)Nc1cccc2cc[nH]c12

>  <path>  (27) 
/opt/xchem-fragalysis-2/maxwin/BulkDock/TARGETS/A71EV2A/aligned_files/A0554a/A0554a.pdb

>  <distance_score>  (27) 
None

>  <energy_score>  (27) 
None

>  <compound>  (27) 
DCOHDTHCOCZQTO-UHFFFAOYSA-N

>  <compound_id>  (27) 
22

>  <target>  (27) 
A71EV2A

>  <tags>  (27) 
['[Other] Fragment Screen', 'GOOD count', 'MEDIOCRE count', '[Other] S1 site', 'hits', '[Other] Active site fragment', '[Other] upload_1 2024-12-06', 'Main status', '[Other] New', '[Other] upload_1 2025-02-12', 'BAD count']

>  <inspirations>  (27) 
None

>  <subsites>  (27) 
None

>  <reference>  (27) 


>  <observation_longname>  (27) 
A71EV2A-x0554_A_201_v1

>  <ConformerSites alias>  (27) 
1b - A0911/A/147

>  <CanonSites alias>  (27) 
1 - Active Site

>  <CrystalformSites alias>  (27) 
F1a - A0375/A/201

>  <Quatassemblies alias>  (27) 
A1 - monomer

>  <Crystalforms alias>  (27) 
F1 - A71_2A_open

>  <ConformerSites upload name>  (27) 
1b - A71EV2A-x0911/A/147

>  <CanonSites upload name>  (27) 
1 - A71EV2A-x0911/A/147/1

>  <CrystalformSites upload name>  (27) 
F1a - A71EV2A-x0375/A/201/1

>  <Quatassemblies upload name>  (27) 
A1 - monomer

>  <Crystalforms upload name>  (27) 
F1 - A71_2A_open

>  <ConformerSites short tag>  (27) 
1b - A0911/A/147

>  <CanonSites short tag>  (27) 
1 - A0911/A/147/1

>  <CrystalformSites short tag>  (27) 
F1a - A0375/A/201

>  <Quatassemblies short tag>  (27) 
A1 - monomer

>  <Crystalforms short tag>  (27) 
F1 - A71_2A_open

>  <Centroid res>  (27) 
A71EV2A-x0911/A/133/A_v1

>  <Experiment code>  (27) 
A71EV2A-x0554

>  <Pose>  (27) 
A0554a

$$$$
A0556a
     RDKit          3D

 14 15  0  0  0  0  0  0  0  0999 V2000
    5.5240   11.7430   26.3370 O   0  0  0  0  0  0  0  0  0  0  0  0
    6.1730   10.7380   26.2980 C   0  0  0  0  0  0  0  0  0  0  0  0
    7.2770   10.6190   25.3570 C   0  0  0  0  0  0  0  0  0  0  0  0
    7.7920   11.6780   24.8170 C   0  0  0  0  0  0  0  0  0  0  0  0
    7.3650   12.8900   25.1850 N   0  0  0  0  0  0  0  0  0  0  0  0
    8.7680   11.2510   23.9760 C   0  0  0  0  0  0  0  0  0  0  0  0
    7.8530    9.4780   24.9550 N   0  0  0  0  0  0  0  0  0  0  0  0
    8.7760    9.9200   24.0870 N   0  0  0  0  0  0  0  0  0  0  0  0
    9.6770    8.9740   23.4490 C   0  0  0  0  0  0  0  0  0  0  0  0
    6.0130    9.7270   27.1510 N   0  0  0  0  0  0  0  0  0  0  0  0
    4.7960    9.6060   27.9500 C   0  0  0  0  0  0  0  0  0  0  0  0
    3.4950    9.1580   27.2110 C   0  0  0  0  0  0  0  0  0  0  0  0
    3.1750    8.5750   28.5780 C   0  0  0  0  0  0  0  0  0  0  0  0
    4.6670    8.4600   28.7970 C   0  0  0  0  0  0  0  0  0  0  0  0
  9  8  1  0
  8  6  1  0
  6  4  2  0
  5  4  1  0
  4  3  1  0
  7  3  2  0
  8  7  1  0
  3  2  1  0
  2  1  2  0
 10  2  1  0
 11 10  1  0
 11 14  1  0
 14 13  1  0
 13 12  1  0
 12 11  1  0
M  END
>  <id>  (28) 
28

>  <inchikey>  (28) 
NILOPFIVQCAHIP-UHFFFAOYSA-N

>  <alias>  (28) 
A0556a

>  <smiles>  (28) 
Cn1cc(N)c(C(=O)NC2CCC2)n1

>  <path>  (28) 
/opt/xchem-fragalysis-2/maxwin/BulkDock/TARGETS/A71EV2A/aligned_files/A0556a/A0556a.pdb

>  <distance_score>  (28) 
None

>  <energy_score>  (28) 
None

>  <compound>  (28) 
NILOPFIVQCAHIP-UHFFFAOYSA-N

>  <compound_id>  (28) 
23

>  <target>  (28) 
A71EV2A

>  <tags>  (28) 
['[Other] Fragment Screen', 'GOOD count', 'MEDIOCRE count', '[Other] S1 site', 'hits', '[Other] Active site fragment', '[Other] upload_1 2024-12-06', 'Main status', '[Other] New', '[Other] upload_1 2025-02-12', 'BAD count']

>  <inspirations>  (28) 
None

>  <subsites>  (28) 
None

>  <reference>  (28) 


>  <observation_longname>  (28) 
A71EV2A-x0556_A_147_v1

>  <ConformerSites alias>  (28) 
1b - A0911/A/147

>  <CanonSites alias>  (28) 
1 - Active Site

>  <CrystalformSites alias>  (28) 
F1a - A0375/A/201

>  <Quatassemblies alias>  (28) 
A1 - monomer

>  <Crystalforms alias>  (28) 
F1 - A71_2A_open

>  <ConformerSites upload name>  (28) 
1b - A71EV2A-x0911/A/147

>  <CanonSites upload name>  (28) 
1 - A71EV2A-x0911/A/147/1

>  <CrystalformSites upload name>  (28) 
F1a - A71EV2A-x0375/A/201/1

>  <Quatassemblies upload name>  (28) 
A1 - monomer

>  <Crystalforms upload name>  (28) 
F1 - A71_2A_open

>  <ConformerSites short tag>  (28) 
1b - A0911/A/147

>  <CanonSites short tag>  (28) 
1 - A0911/A/147/1

>  <CrystalformSites short tag>  (28) 
F1a - A0375/A/201

>  <Quatassemblies short tag>  (28) 
A1 - monomer

>  <Crystalforms short tag>  (28) 
F1 - A71_2A_open

>  <Centroid res>  (28) 
A71EV2A-x0911/A/133/A_v1

>  <Experiment code>  (28) 
A71EV2A-x0556

>  <Pose>  (28) 
A0556a

$$$$
A0566a
     RDKit          3D

 13 14  0  0  0  0  0  0  0  0999 V2000
   12.1700   13.6410   24.3760 O   0  0  0  0  0  0  0  0  0  0  0  0
   11.1980   13.7110   23.6240 C   0  0  0  0  0  0  0  0  0  0  0  0
   11.1150   14.7190   22.7640 N   0  0  0  0  0  0  0  0  0  0  0  0
   12.3000   15.4000   22.2810 C   0  0  0  0  0  0  0  0  0  0  0  0
   10.1670   12.5890   23.5270 C   0  0  0  0  0  0  0  0  0  0  0  0
    8.9750   12.5120   24.3180 C   0  0  0  0  0  0  0  0  0  0  0  0
    8.2720   13.4950   24.9720 N   0  0  0  0  0  0  0  0  0  0  0  0
    7.1650   12.9350   25.5440 C   0  0  0  0  0  0  0  0  0  0  0  0
    7.1360   11.6020   25.2960 C   0  0  0  0  0  0  0  0  0  0  0  0
    8.2700   11.3000   24.4920 C   0  0  0  0  0  0  0  0  0  0  0  0
    8.7280   10.1570   23.8390 C   0  0  0  0  0  0  0  0  0  0  0  0
    9.8250   10.2340   23.0070 C   0  0  0  0  0  0  0  0  0  0  0  0
   10.5290   11.4370   22.8350 C   0  0  0  0  0  0  0  0  0  0  0  0
  4  3  1  0
  3  2  1  0
  2  1  2  0
  5  2  1  0
  5 13  2  0
 13 12  1  0
 12 11  2  0
 11 10  1  0
 10  9  1  0
  9  8  2  0
  8  7  1  0
  7  6  1  0
  6  5  1  0
 10  6  2  0
M  END
>  <id>  (29) 
29

>  <inchikey>  (29) 
OKVUYVXDTGOYRU-UHFFFAOYSA-N

>  <alias>  (29) 
A0566a

>  <smiles>  (29) 
CNC(=O)c1cccc2cc[nH]c12

>  <path>  (29) 
/opt/xchem-fragalysis-2/maxwin/BulkDock/TARGETS/A71EV2A/aligned_files/A0566a/A0566a.pdb

>  <distance_score>  (29) 
None

>  <energy_score>  (29) 
None

>  <compound>  (29) 
OKVUYVXDTGOYRU-UHFFFAOYSA-N

>  <compound_id>  (29) 
24

>  <target>  (29) 
A71EV2A

>  <tags>  (29) 
['[Other] Fragment Screen', 'GOOD count', 'MEDIOCRE count', '[Other] S1 site', 'hits', '[Other] Active site fragment', '[Other] S2 site', '[Other] upload_1 2024-12-06', 'Main status', '[Other] New', '[Other] upload_1 2025-02-12', 'BAD count']

>  <inspirations>  (29) 
None

>  <subsites>  (29) 
None

>  <reference>  (29) 


>  <observation_longname>  (29) 
A71EV2A-x0566_A_147_v1

>  <ConformerSites alias>  (29) 
1b - A0911/A/147

>  <CanonSites alias>  (29) 
1 - Active Site

>  <CrystalformSites alias>  (29) 
F1e - A0566/A/147

>  <Quatassemblies alias>  (29) 
A1 - monomer

>  <Crystalforms alias>  (29) 
F1 - A71_2A_open

>  <ConformerSites upload name>  (29) 
1b - A71EV2A-x0911/A/147

>  <CanonSites upload name>  (29) 
1 - A71EV2A-x0911/A/147/1

>  <CrystalformSites upload name>  (29) 
F1e - A71EV2A-x0566/A/147/1

>  <Quatassemblies upload name>  (29) 
A1 - monomer

>  <Crystalforms upload name>  (29) 
F1 - A71_2A_open

>  <ConformerSites short tag>  (29) 
1b - A0911/A/147

>  <CanonSites short tag>  (29) 
1 - A0911/A/147/1

>  <CrystalformSites short tag>  (29) 
F1e - A0566/A/147

>  <Quatassemblies short tag>  (29) 
A1 - monomer

>  <Crystalforms short tag>  (29) 
F1 - A71_2A_open

>  <Centroid res>  (29) 
A71EV2A-x0911/A/133/A_v1

>  <Experiment code>  (29) 
A71EV2A-x0566

>  <Pose>  (29) 
A0566a

$$$$
A0571a
     RDKit          3D

 11 11  0  0  0  0  0  0  0  0999 V2000
   33.3590   10.4070   15.0770 O   0  0  0  0  0  0  0  0  0  0  0  0
   34.5900   10.4610   14.9440 C   0  0  0  0  0  0  0  0  0  0  0  0
   35.4090   10.8630   15.9100 N   0  0  0  0  0  0  0  0  0  0  0  0
   35.2260   10.0800   13.6530 C   0  0  0  0  0  0  0  0  0  0  0  0
   36.5180   10.3870   13.1970 C   0  0  0  0  0  0  0  0  0  0  0  0
   34.5360    9.4000   12.7580 N   0  0  0  0  0  0  0  0  0  0  0  0
   35.4130    9.2650   11.6540 O   0  0  0  0  0  0  0  0  0  0  0  0
   36.5790    9.8710   11.9590 C   0  0  0  0  0  0  0  0  0  0  0  0
   37.6140    9.8550   10.8870 C   0  0  0  0  0  0  0  0  0  0  0  0
   38.6940    9.0060   11.2400 O   0  0  0  0  0  0  0  0  0  0  0  0
   39.6500    8.8470   10.1920 C   0  0  0  0  0  0  0  0  0  0  0  0
 11 10  1  0
 10  9  1  0
  9  8  1  0
  8  5  2  0
  5  4  1  0
  6  4  2  0
  7  6  1  0
  8  7  1  0
  4  2  1  0
  2  1  2  0
  3  2  1  0
M  END
>  <id>  (30) 
30

>  <inchikey>  (30) 
XJISISZPFKFZEU-UHFFFAOYSA-N

>  <alias>  (30) 
A0571a

>  <smiles>  (30) 
COCc1cc(C(N)=O)no1

>  <path>  (30) 
/opt/xchem-fragalysis-2/maxwin/BulkDock/TARGETS/A71EV2A/aligned_files/A0571a/A0571a.pdb

>  <distance_score>  (30) 
None

>  <energy_score>  (30) 
None

>  <compound>  (30) 
XJISISZPFKFZEU-UHFFFAOYSA-N

>  <compound_id>  (30) 
25

>  <target>  (30) 
A71EV2A

>  <tags>  (30) 
['[Other] Fragment Screen', 'GOOD count', 'MEDIOCRE count', 'hits', '[Other] upload_1 2024-12-06', 'Main status', '[Other] New', '[Other] upload_1 2025-02-12', 'BAD count']

>  <inspirations>  (30) 
None

>  <subsites>  (30) 
None

>  <reference>  (30) 


>  <observation_longname>  (30) 
A71EV2A-x0571_A_147_v1

>  <ConformerSites alias>  (30) 
8a - A0517/A/147

>  <CanonSites alias>  (30) 
8 - A0517/A/147/1

>  <CrystalformSites alias>  (30) 
F1ae - A0517/A/147

>  <Quatassemblies alias>  (30) 
A1 - monomer

>  <Crystalforms alias>  (30) 
F1 - A71_2A_open

>  <ConformerSites upload name>  (30) 
8a - A71EV2A-x0517/A/147

>  <CanonSites upload name>  (30) 
8 - A71EV2A-x0517/A/147/1

>  <CrystalformSites upload name>  (30) 
F1ae - A71EV2A-x0517/A/147/1

>  <Quatassemblies upload name>  (30) 
A1 - monomer

>  <Crystalforms upload name>  (30) 
F1 - A71_2A_open

>  <ConformerSites short tag>  (30) 
8a - A0517/A/147

>  <CanonSites short tag>  (30) 
8 - A0517/A/147/1

>  <CrystalformSites short tag>  (30) 
F1ae - A0517/A/147

>  <Quatassemblies short tag>  (30) 
A1 - monomer

>  <Crystalforms short tag>  (30) 
F1 - A71_2A_open

>  <Centroid res>  (30) 
A71EV2A-x0517/A/43/A_v1

>  <Experiment code>  (30) 
A71EV2A-x0571

>  <Pose>  (30) 
A0571a

$$$$
A0586a
     RDKit          3D

 15 16  0  0  0  0  0  0  0  0999 V2000
    6.7220   14.2200    6.5410 O   0  0  0  0  0  0  0  0  0  0  0  0
    6.8560   14.7880    5.2310 S   0  0  0  0  0  0  0  0  0  0  0  0
    7.7560   15.8870    5.0410 O   0  0  0  0  0  0  0  0  0  0  0  0
    5.4010   15.2910    4.7790 N   0  0  0  0  0  0  0  0  0  0  0  0
    7.3690   13.4940    4.1470 C   0  0  0  0  0  0  0  0  0  0  0  0
    7.2140   12.1700    4.5230 C   0  0  0  0  0  0  0  0  0  0  0  0
    7.5290   11.1710    3.6190 C   0  0  0  0  0  0  0  0  0  0  0  0
    7.8610   13.8270    2.8940 C   0  0  0  0  0  0  0  0  0  0  0  0
    8.1770   12.8160    1.9930 C   0  0  0  0  0  0  0  0  0  0  0  0
    8.6270   13.1670    0.7440 N   0  0  0  0  0  0  0  0  0  0  0  0
    9.9440   13.7810    0.6140 C   0  0  0  0  0  0  0  0  0  0  0  0
    8.0090   11.4730    2.3470 C   0  0  0  0  0  0  0  0  0  0  0  0
    8.3460   10.3870    1.3540 C   0  0  0  0  0  0  0  0  0  0  0  0
    8.5240   10.8530   -0.0970 C   0  0  0  0  0  0  0  0  0  0  0  0
    8.2120   12.3160   -0.3620 C   0  0  0  0  0  0  0  0  0  0  0  0
 11 10  1  0
 10 15  1  0
 15 14  1  0
 14 13  1  0
 13 12  1  0
 12  7  2  0
  7  6  1  0
  6  5  2  0
  8  5  1  0
  9  8  2  0
 10  9  1  0
 12  9  1  0
  5  2  1  0
  3  2  2  0
  2  1  2  0
  4  2  1  0
M  END
>  <id>  (31) 
31

>  <inchikey>  (31) 
OUJFDUTZTPBMDN-UHFFFAOYSA-N

>  <alias>  (31) 
A0586a

>  <smiles>  (31) 
CN1CCCc2ccc(S(N)(=O)=O)cc21

>  <path>  (31) 
/opt/xchem-fragalysis-2/maxwin/BulkDock/TARGETS/A71EV2A/aligned_files/A0586a/A0586a.pdb

>  <distance_score>  (31) 
None

>  <energy_score>  (31) 
None

>  <compound>  (31) 
OUJFDUTZTPBMDN-UHFFFAOYSA-N

>  <compound_id>  (31) 
26

>  <target>  (31) 
A71EV2A

>  <tags>  (31) 
['[Other] Fragment Screen', 'GOOD count', 'MEDIOCRE count', 'hits', '[Other] upload_1 2024-12-06', 'Main status', '[Other] New', '[Other] upload_1 2025-02-12', 'BAD count']

>  <inspirations>  (31) 
None

>  <subsites>  (31) 
None

>  <reference>  (31) 


>  <observation_longname>  (31) 
A71EV2A-x0586_A_147_v1

>  <ConformerSites alias>  (31) 
3a - A0541/A/147

>  <CanonSites alias>  (31) 
3 - A0541/A/147/1

>  <CrystalformSites alias>  (31) 
F1x - A0541/A/147

>  <Quatassemblies alias>  (31) 
A1 - monomer

>  <Crystalforms alias>  (31) 
F1 - A71_2A_open

>  <ConformerSites upload name>  (31) 
3a - A71EV2A-x0541/A/147

>  <CanonSites upload name>  (31) 
3 - A71EV2A-x0541/A/147/1

>  <CrystalformSites upload name>  (31) 
F1x - A71EV2A-x0541/A/147/1

>  <Quatassemblies upload name>  (31) 
A1 - monomer

>  <Crystalforms upload name>  (31) 
F1 - A71_2A_open

>  <ConformerSites short tag>  (31) 
3a - A0541/A/147

>  <CanonSites short tag>  (31) 
3 - A0541/A/147/1

>  <CrystalformSites short tag>  (31) 
F1x - A0541/A/147

>  <Quatassemblies short tag>  (31) 
A1 - monomer

>  <Crystalforms short tag>  (31) 
F1 - A71_2A_open

>  <Centroid res>  (31) 
A71EV2A-x0541/A/97/A_v1

>  <Experiment code>  (31) 
A71EV2A-x0586

>  <Pose>  (31) 
A0586a

$$$$
A0269a
     RDKit          3D

 15 16  0  0  0  0  0  0  0  0999 V2000
   17.8760   -3.2250   19.1950 O   0  0  0  0  0  0  0  0  0  0  0  0
   17.0190   -4.0340   19.4600 C   0  0  0  0  0  0  0  0  0  0  0  0
   15.9080   -4.4040   18.5280 C   0  0  0  0  0  0  0  0  0  0  0  0
   14.8620   -3.6830   17.9450 C   0  0  0  0  0  0  0  0  0  0  0  0
   13.8640   -4.3250   17.2670 C   0  0  0  0  0  0  0  0  0  0  0  0
   13.8710   -5.6460   17.1570 C   0  0  0  0  0  0  0  0  0  0  0  0
   14.8630   -6.3640   17.6780 C   0  0  0  0  0  0  0  0  0  0  0  0
   15.8920   -5.7690   18.3620 C   0  0  0  0  0  0  0  0  0  0  0  0
   16.7350   -4.4360   20.6750 N   0  0  0  0  0  0  0  0  0  0  0  0
   17.7120   -4.9240   21.5690 C   0  0  1  0  0  0  0  0  0  0  0  0
   18.4920   -3.6610   21.7900 C   0  0  0  0  0  0  0  0  0  0  0  0
   18.4880   -3.2310   23.1780 N   0  0  0  0  0  0  0  0  0  0  0  0
   18.9950   -4.2750   23.9950 C   0  0  0  0  0  0  0  0  0  0  0  0
   18.0030   -5.4890   23.9570 C   0  0  0  0  0  0  0  0  0  0  0  0
   16.9830   -5.3030   22.8370 C   0  0  0  0  0  0  0  0  0  0  0  0
  2  1  2  0
  9  2  1  0
 10  9  1  6
 10 15  1  0
 15 14  1  0
 14 13  1  0
 13 12  1  0
 12 11  1  0
 11 10  1  0
  3  2  1  0
  3  8  2  0
  8  7  1  0
  7  6  2  0
  6  5  1  0
  5  4  2  0
  4  3  1  0
M  END
>  <id>  (32) 
32

>  <inchikey>  (32) 
ZFLKDMGBVZHBAC-LLVKDONJSA-N

>  <alias>  (32) 
A0269a

>  <smiles>  (32) 
O=C(N[C@@H]1CCCNC1)c1ccccc1

>  <path>  (32) 
/opt/xchem-fragalysis-2/maxwin/BulkDock/TARGETS/A71EV2A/aligned_files/A0269a/A0269a.pdb

>  <distance_score>  (32) 
None

>  <energy_score>  (32) 
None

>  <compound>  (32) 
ZFLKDMGBVZHBAC-UHFFFAOYSA-N

>  <compound_id>  (32) 
27

>  <target>  (32) 
A71EV2A

>  <tags>  (32) 
['[Other] Fragment Screen', 'GOOD count', 'MEDIOCRE count', 'hits', '[Other] upload_1 2024-12-06', 'Main status', '[Other] New', '[Other] upload_1 2025-02-12', 'BAD count']

>  <inspirations>  (32) 
None

>  <subsites>  (32) 
None

>  <reference>  (32) 


>  <observation_longname>  (32) 
A71EV2A-x0269_A_147_v1

>  <ConformerSites alias>  (32) 
2a - A3977/A/202

>  <CanonSites alias>  (32) 
2 - A3977/A/202/1

>  <CrystalformSites alias>  (32) 
F1s - A0152/A/201

>  <Quatassemblies alias>  (32) 
A1 - monomer

>  <Crystalforms alias>  (32) 
F1 - A71_2A_open

>  <ConformerSites upload name>  (32) 
2a - A71EV2A-x3977/A/202

>  <CanonSites upload name>  (32) 
2 - A71EV2A-x3977/A/202/1

>  <CrystalformSites upload name>  (32) 
F1s - A71EV2A-x0152/A/201/1

>  <Quatassemblies upload name>  (32) 
A1 - monomer

>  <Crystalforms upload name>  (32) 
F1 - A71_2A_open

>  <ConformerSites short tag>  (32) 
2a - A3977/A/202

>  <CanonSites short tag>  (32) 
2 - A3977/A/202/1

>  <CrystalformSites short tag>  (32) 
F1s - A0152/A/201

>  <Quatassemblies short tag>  (32) 
A1 - monomer

>  <Crystalforms short tag>  (32) 
F1 - A71_2A_open

>  <Centroid res>  (32) 
A71EV2A-x3977/A/113/A_v1

>  <Experiment code>  (32) 
A71EV2A-x0269

>  <Pose>  (32) 
A0269a

$$$$
A0278a
     RDKit          3D

 15 16  0  0  0  0  0  0  0  0999 V2000
   13.2320   20.7660   25.2840 O   0  0  0  0  0  0  0  0  0  0  0  0
   13.1240   22.1420   24.9200 S   0  0  0  0  0  0  0  0  0  0  0  0
   13.3280   22.5420   23.5630 O   0  0  0  0  0  0  0  0  0  0  0  0
   11.6170   22.6220   25.3300 N   0  0  0  0  0  0  0  0  0  0  0  0
   11.0020   23.7810   24.6520 C   0  0  0  0  0  0  0  0  0  0  0  0
    9.6780   23.8490   25.3930 C   0  0  0  0  0  0  0  0  0  0  0  0
   10.6010   21.6330   25.7420 C   0  0  0  0  0  0  0  0  0  0  0  0
    9.2730   22.3810   25.5770 C   0  0  1  0  0  0  0  0  0  0  0  0
    8.3960   22.1290   26.7250 N   0  0  0  0  0  0  0  0  0  0  0  0
   14.2280   23.0530   25.9450 C   0  0  0  0  0  0  0  0  0  0  0  0
   14.4570   22.6310   27.2470 C   0  0  0  0  0  0  0  0  0  0  0  0
   15.2440   23.4090   28.0820 C   0  0  0  0  0  0  0  0  0  0  0  0
   15.7910   24.5870   27.6270 C   0  0  0  0  0  0  0  0  0  0  0  0
   15.5640   24.9960   26.3310 C   0  0  0  0  0  0  0  0  0  0  0  0
   14.7960   24.2250   25.4710 C   0  0  0  0  0  0  0  0  0  0  0  0
  8  9  1  1
  8  6  1  0
  6  5  1  0
  5  4  1  0
  7  4  1  0
  8  7  1  0
  4  2  1  0
  3  2  2  0
  2  1  2  0
 10  2  1  0
 10 15  2  0
 15 14  1  0
 14 13  2  0
 13 12  1  0
 12 11  2  0
 11 10  1  0
M  END
>  <id>  (33) 
33

>  <inchikey>  (33) 
ABNRKDROCBKFEH-VIFPVBQESA-N

>  <alias>  (33) 
A0278a

>  <smiles>  (33) 
N[C@H]1CCN(S(=O)(=O)c2ccccc2)C1

>  <path>  (33) 
/opt/xchem-fragalysis-2/maxwin/BulkDock/TARGETS/A71EV2A/aligned_files/A0278a/A0278a.pdb

>  <distance_score>  (33) 
None

>  <energy_score>  (33) 
None

>  <compound>  (33) 
ABNRKDROCBKFEH-UHFFFAOYSA-N

>  <compound_id>  (33) 
28

>  <target>  (33) 
A71EV2A

>  <tags>  (33) 
['[Other] Fragment Screen', 'GOOD count', 'MEDIOCRE count', 'hits', '[Other] upload_1 2024-12-06', 'Main status', '[Other] New', '[Other] upload_1 2025-02-12', 'BAD count']

>  <inspirations>  (33) 
None

>  <subsites>  (33) 
None

>  <reference>  (33) 


>  <observation_longname>  (33) 
A71EV2A-x0278_A_201_v1

>  <ConformerSites alias>  (33) 
4c - A0525/A/246

>  <CanonSites alias>  (33) 
4 - A0525/A/246/1

>  <CrystalformSites alias>  (33) 
F1z - A0525/A/246

>  <Quatassemblies alias>  (33) 
A1 - monomer

>  <Crystalforms alias>  (33) 
F1 - A71_2A_open

>  <ConformerSites upload name>  (33) 
4c - A71EV2A-x0525/A/246

>  <CanonSites upload name>  (33) 
4 - A71EV2A-x0525/A/246/1

>  <CrystalformSites upload name>  (33) 
F1z - A71EV2A-x0525/A/246/1

>  <Quatassemblies upload name>  (33) 
A1 - monomer

>  <Crystalforms upload name>  (33) 
F1 - A71_2A_open

>  <ConformerSites short tag>  (33) 
4c - A0525/A/246

>  <CanonSites short tag>  (33) 
4 - A0525/A/246/1

>  <CrystalformSites short tag>  (33) 
F1z - A0525/A/246

>  <Quatassemblies short tag>  (33) 
A1 - monomer

>  <Crystalforms short tag>  (33) 
F1 - A71_2A_open

>  <Centroid res>  (33) 
A71EV2A-x0525/A/90/A_v1

>  <Experiment code>  (33) 
A71EV2A-x0278

>  <Pose>  (33) 
A0278a

$$$$
A0278b
     RDKit          3D

 15 16  0  0  0  0  0  0  0  0999 V2000
    7.0200   14.1940    6.0040 O   0  0  0  0  0  0  0  0  0  0  0  0
    6.9320   13.2030    4.9760 S   0  0  0  0  0  0  0  0  0  0  0  0
    7.1990   11.8430    5.3070 O   0  0  0  0  0  0  0  0  0  0  0  0
    5.4080   13.2610    4.4000 N   0  0  0  0  0  0  0  0  0  0  0  0
    4.7670   14.5740    4.1510 C   0  0  0  0  0  0  0  0  0  0  0  0
    4.0280   14.3960    2.8290 C   0  0  0  0  0  0  0  0  0  0  0  0
    4.9780   12.2680    3.3930 C   0  0  0  0  0  0  0  0  0  0  0  0
    3.7200   12.9010    2.7850 C   0  0  1  0  0  0  0  0  0  0  0  0
    2.5290   12.4330    3.5080 N   0  0  0  0  0  0  0  0  0  0  0  0
    7.9870   13.6740    3.6440 C   0  0  0  0  0  0  0  0  0  0  0  0
    8.3800   12.7260    2.7160 C   0  0  0  0  0  0  0  0  0  0  0  0
    9.1450   13.1220    1.6310 C   0  0  0  0  0  0  0  0  0  0  0  0
    9.5190   14.4340    1.4880 C   0  0  0  0  0  0  0  0  0  0  0  0
    9.1350   15.3660    2.4120 C   0  0  0  0  0  0  0  0  0  0  0  0
    8.3710   14.9980    3.5080 C   0  0  0  0  0  0  0  0  0  0  0  0
  8  9  1  1
  8  6  1  0
  6  5  1  0
  5  4  1  0
  7  4  1  0
  8  7  1  0
  4  2  1  0
  3  2  2  0
  2  1  2  0
 10  2  1  0
 10 15  2  0
 15 14  1  0
 14 13  2  0
 13 12  1  0
 12 11  2  0
 11 10  1  0
M  END
>  <id>  (34) 
34

>  <inchikey>  (34) 
ABNRKDROCBKFEH-VIFPVBQESA-N

>  <alias>  (34) 
A0278b

>  <smiles>  (34) 
N[C@H]1CCN(S(=O)(=O)c2ccccc2)C1

>  <path>  (34) 
/opt/xchem-fragalysis-2/maxwin/BulkDock/TARGETS/A71EV2A/aligned_files/A0278b/A0278b.pdb

>  <distance_score>  (34) 
None

>  <energy_score>  (34) 
None

>  <compound>  (34) 
ABNRKDROCBKFEH-UHFFFAOYSA-N

>  <compound_id>  (34) 
28

>  <target>  (34) 
A71EV2A

>  <tags>  (34) 
['[Other] Fragment Screen', 'GOOD count', 'MEDIOCRE count', 'hits', '[Other] upload_1 2024-12-06', 'Main status', '[Other] New', '[Other] upload_1 2025-02-12', 'BAD count']

>  <inspirations>  (34) 
None

>  <subsites>  (34) 
None

>  <reference>  (34) 


>  <observation_longname>  (34) 
A71EV2A-x0278_A_147_v1

>  <ConformerSites alias>  (34) 
3a - A0541/A/147

>  <CanonSites alias>  (34) 
3 - A0541/A/147/1

>  <CrystalformSites alias>  (34) 
F1x - A0541/A/147

>  <Quatassemblies alias>  (34) 
A1 - monomer

>  <Crystalforms alias>  (34) 
F1 - A71_2A_open

>  <ConformerSites upload name>  (34) 
3a - A71EV2A-x0541/A/147

>  <CanonSites upload name>  (34) 
3 - A71EV2A-x0541/A/147/1

>  <CrystalformSites upload name>  (34) 
F1x - A71EV2A-x0541/A/147/1

>  <Quatassemblies upload name>  (34) 
A1 - monomer

>  <Crystalforms upload name>  (34) 
F1 - A71_2A_open

>  <ConformerSites short tag>  (34) 
3a - A0541/A/147

>  <CanonSites short tag>  (34) 
3 - A0541/A/147/1

>  <CrystalformSites short tag>  (34) 
F1x - A0541/A/147

>  <Quatassemblies short tag>  (34) 
A1 - monomer

>  <Crystalforms short tag>  (34) 
F1 - A71_2A_open

>  <Centroid res>  (34) 
A71EV2A-x0541/A/97/A_v1

>  <Experiment code>  (34) 
A71EV2A-x0278

>  <Pose>  (34) 
A0278b

$$$$
A0305a
     RDKit          3D

 13 13  0  0  0  0  0  0  0  0999 V2000
    8.0440   15.0580    2.6070 F   0  0  0  0  0  0  0  0  0  0  0  0
    8.0370   13.7480    2.9340 C   0  0  0  0  0  0  0  0  0  0  0  0
    8.4350   12.7550    1.9730 C   0  0  0  0  0  0  0  0  0  0  0  0
    9.3290   13.0550    0.8090 C   0  0  0  0  0  0  0  0  0  0  0  0
    8.1380   11.4680    2.2960 C   0  0  0  0  0  0  0  0  0  0  0  0
    7.5320   11.1680    3.4790 C   0  0  0  0  0  0  0  0  0  0  0  0
    7.2020   12.1520    4.4430 C   0  0  0  0  0  0  0  0  0  0  0  0
    7.4600   13.4420    4.1440 C   0  0  0  0  0  0  0  0  0  0  0  0
    7.0170   14.6990    5.2380 S   0  0  0  0  0  0  0  0  0  0  0  0
    8.0700   15.6190    5.1610 O   0  0  0  0  0  0  0  0  0  0  0  0
    6.5090   14.3440    6.5030 O   0  0  0  0  0  0  0  0  0  0  0  0
    5.7390   15.3910    4.5060 N   0  0  0  0  0  0  0  0  0  0  0  0
    5.5750   16.8360    4.4610 C   0  0  0  0  0  0  0  0  0  0  0  0
 13 12  1  0
 12  9  1  0
 10  9  2  0
 11  9  2  0
  9  8  1  0
  8  7  2  0
  7  6  1  0
  6  5  2  0
  5  3  1  0
  4  3  1  0
  3  2  2  0
  8  2  1  0
  2  1  1  0
M  END
>  <id>  (35) 
35

>  <inchikey>  (35) 
PXJRMCHXJXWNJG-UHFFFAOYSA-N

>  <alias>  (35) 
A0305a

>  <smiles>  (35) 
CNS(=O)(=O)c1cccc(C)c1F

>  <path>  (35) 
/opt/xchem-fragalysis-2/maxwin/BulkDock/TARGETS/A71EV2A/aligned_files/A0305a/A0305a.pdb

>  <distance_score>  (35) 
None

>  <energy_score>  (35) 
None

>  <compound>  (35) 
PXJRMCHXJXWNJG-UHFFFAOYSA-N

>  <compound_id>  (35) 
29

>  <target>  (35) 
A71EV2A

>  <tags>  (35) 
['[Other] Fragment Screen', 'GOOD count', 'MEDIOCRE count', 'hits', '[Other] upload_1 2024-12-06', 'Main status', '[Other] New', '[Other] upload_1 2025-02-12', 'BAD count']

>  <inspirations>  (35) 
None

>  <subsites>  (35) 
None

>  <reference>  (35) 


>  <observation_longname>  (35) 
A71EV2A-x0305_A_147_v1

>  <ConformerSites alias>  (35) 
3a - A0541/A/147

>  <CanonSites alias>  (35) 
3 - A0541/A/147/1

>  <CrystalformSites alias>  (35) 
F1x - A0541/A/147

>  <Quatassemblies alias>  (35) 
A1 - monomer

>  <Crystalforms alias>  (35) 
F1 - A71_2A_open

>  <ConformerSites upload name>  (35) 
3a - A71EV2A-x0541/A/147

>  <CanonSites upload name>  (35) 
3 - A71EV2A-x0541/A/147/1

>  <CrystalformSites upload name>  (35) 
F1x - A71EV2A-x0541/A/147/1

>  <Quatassemblies upload name>  (35) 
A1 - monomer

>  <Crystalforms upload name>  (35) 
F1 - A71_2A_open

>  <ConformerSites short tag>  (35) 
3a - A0541/A/147

>  <CanonSites short tag>  (35) 
3 - A0541/A/147/1

>  <CrystalformSites short tag>  (35) 
F1x - A0541/A/147

>  <Quatassemblies short tag>  (35) 
A1 - monomer

>  <Crystalforms short tag>  (35) 
F1 - A71_2A_open

>  <Centroid res>  (35) 
A71EV2A-x0541/A/97/A_v1

>  <Experiment code>  (35) 
A71EV2A-x0305

>  <Pose>  (35) 
A0305a

$$$$
A0309a
     RDKit          3D

 15 17  0  0  0  0  0  0  0  0999 V2000
   24.6680   16.7850    1.7360 C   0  0  0  0  0  0  0  0  0  0  0  0
   23.3230   16.2370    1.8190 N   0  0  0  0  0  0  0  0  0  0  0  0
   22.9290   14.9340    1.8640 C   0  0  0  0  0  0  0  0  0  0  0  0
   21.6130   14.8280    1.8480 N   0  0  0  0  0  0  0  0  0  0  0  0
   21.1500   16.1140    1.8600 C   0  0  0  0  0  0  0  0  0  0  0  0
   22.1780   16.9890    1.8530 C   0  0  0  0  0  0  0  0  0  0  0  0
   23.8240   13.8060    2.0540 C   0  0  0  0  0  0  0  0  0  0  0  0
   25.1790   13.8960    2.0470 N   0  0  0  0  0  0  0  0  0  0  0  0
   25.5410   12.6610    2.0590 C   0  0  0  0  0  0  0  0  0  0  0  0
   24.5110   11.8170    2.1620 O   0  0  0  0  0  0  0  0  0  0  0  0
   23.3570   12.6030    2.1470 N   0  0  0  0  0  0  0  0  0  0  0  0
   26.8570   12.0750    1.7440 C   0  0  0  0  0  0  0  0  0  0  0  0
   26.7380   10.5820    1.4640 C   0  0  0  0  0  0  0  0  0  0  0  0
   28.1000   10.4270    1.9070 C   0  0  0  0  0  0  0  0  0  0  0  0
   27.8130   11.5600    2.8010 C   0  0  0  0  0  0  0  0  0  0  0  0
  2  1  1  0
  2  6  1  0
  6  5  2  0
  5  4  1  0
  4  3  2  0
  3  2  1  0
  7  3  1  0
  7 11  2  0
 11 10  1  0
 10  9  1  0
  9  8  2  0
  8  7  1  0
 12  9  1  0
 12 15  1  0
 15 14  1  0
 14 13  1  0
 13 12  1  0
M  END
>  <id>  (36) 
36

>  <inchikey>  (36) 
OPUWQKONOBGDBJ-UHFFFAOYSA-N

>  <alias>  (36) 
A0309a

>  <smiles>  (36) 
Cn1ccnc1-c1noc(C2CCC2)n1

>  <path>  (36) 
/opt/xchem-fragalysis-2/maxwin/BulkDock/TARGETS/A71EV2A/aligned_files/A0309a/A0309a.pdb

>  <distance_score>  (36) 
None

>  <energy_score>  (36) 
None

>  <compound>  (36) 
OPUWQKONOBGDBJ-UHFFFAOYSA-N

>  <compound_id>  (36) 
30

>  <target>  (36) 
A71EV2A

>  <tags>  (36) 
['[Other] Fragment Screen', 'GOOD count', 'MEDIOCRE count', 'hits', '[Other] upload_1 2024-12-06', 'Main status', '[Other] New', '[Other] upload_1 2025-02-12', 'BAD count']

>  <inspirations>  (36) 
None

>  <subsites>  (36) 
None

>  <reference>  (36) 


>  <observation_longname>  (36) 
A71EV2A-x0309_A_147_v1

>  <ConformerSites alias>  (36) 
6a - A0486/A/147

>  <CanonSites alias>  (36) 
6 - A0486/A/147/1

>  <CrystalformSites alias>  (36) 
F1ac - A0486/A/147

>  <Quatassemblies alias>  (36) 
A1 - monomer

>  <Crystalforms alias>  (36) 
F1 - A71_2A_open

>  <ConformerSites upload name>  (36) 
6a - A71EV2A-x0486/A/147

>  <CanonSites upload name>  (36) 
6 - A71EV2A-x0486/A/147/1

>  <CrystalformSites upload name>  (36) 
F1ac - A71EV2A-x0486/A/147/1

>  <Quatassemblies upload name>  (36) 
A1 - monomer

>  <Crystalforms upload name>  (36) 
F1 - A71_2A_open

>  <ConformerSites short tag>  (36) 
6a - A0486/A/147

>  <CanonSites short tag>  (36) 
6 - A0486/A/147/1

>  <CrystalformSites short tag>  (36) 
F1ac - A0486/A/147

>  <Quatassemblies short tag>  (36) 
A1 - monomer

>  <Crystalforms short tag>  (36) 
F1 - A71_2A_open

>  <Centroid res>  (36) 
A71EV2A-x0486/A/143/A_v1

>  <Experiment code>  (36) 
A71EV2A-x0309

>  <Pose>  (36) 
A0309a

$$$$
A0310a
     RDKit          3D

 14 14  0  0  0  0  0  0  0  0999 V2000
   12.5790   15.9990   23.1660 N   0  0  0  0  0  0  0  0  0  0  0  0
   12.4570   14.9080   22.8710 C   0  0  0  0  0  0  0  0  0  0  0  0
   12.2040   13.5210   22.4900 C   0  0  0  0  0  0  0  0  0  0  0  0
   11.1410   12.9070   23.3800 C   0  0  0  0  0  0  0  0  0  0  0  0
   10.9590   13.2970   24.5190 O   0  0  0  0  0  0  0  0  0  0  0  0
   10.3850   11.9330   22.8190 N   0  0  0  0  0  0  0  0  0  0  0  0
    9.3930   11.2520   23.5150 C   0  0  0  0  0  0  0  0  0  0  0  0
    9.2380    9.8470   23.4690 C   0  0  0  0  0  0  0  0  0  0  0  0
   10.0440    8.8130   22.7540 C   0  0  0  0  0  0  0  0  0  0  0  0
    8.4130   11.7340   24.3270 C   0  0  0  0  0  0  0  0  0  0  0  0
    8.0890   13.1380   24.7140 C   0  0  0  0  0  0  0  0  0  0  0  0
    7.7320   10.6670   24.7440 N   0  0  0  0  0  0  0  0  0  0  0  0
    8.2100    9.5020   24.2230 N   0  0  0  0  0  0  0  0  0  0  0  0
    6.6430   10.6180   25.7080 C   0  0  0  0  0  0  0  0  0  0  0  0
  9  8  1  0
  8 13  2  0
 13 12  1  0
 14 12  1  0
 12 10  1  0
 11 10  1  0
 10  7  2  0
  8  7  1  0
  7  6  1  0
  6  4  1  0
  5  4  2  0
  4  3  1  0
  3  2  1  0
  2  1  3  0
M  END
>  <id>  (37) 
37

>  <inchikey>  (37) 
GCDMTIQQHYQVGI-UHFFFAOYSA-N

>  <alias>  (37) 
A0310a

>  <smiles>  (37) 
Cc1nn(C)c(C)c1NC(=O)CC#N

>  <path>  (37) 
/opt/xchem-fragalysis-2/maxwin/BulkDock/TARGETS/A71EV2A/aligned_files/A0310a/A0310a.pdb

>  <distance_score>  (37) 
None

>  <energy_score>  (37) 
None

>  <compound>  (37) 
GCDMTIQQHYQVGI-UHFFFAOYSA-N

>  <compound_id>  (37) 
31

>  <target>  (37) 
A71EV2A

>  <tags>  (37) 
['[Other] Fragment Screen', 'GOOD count', 'MEDIOCRE count', '[Other] S1 site', 'hits', '[Other] Active site fragment', '[Other] S2 site', '[Other] upload_1 2024-12-06', 'Main status', '[Other] New', '[Other] upload_1 2025-02-12', 'BAD count']

>  <inspirations>  (37) 
None

>  <subsites>  (37) 
None

>  <reference>  (37) 


>  <observation_longname>  (37) 
A71EV2A-x0310_A_147_v1

>  <ConformerSites alias>  (37) 
1b - A0911/A/147

>  <CanonSites alias>  (37) 
1 - Active Site

>  <CrystalformSites alias>  (37) 
F1a - A0375/A/201

>  <Quatassemblies alias>  (37) 
A1 - monomer

>  <Crystalforms alias>  (37) 
F1 - A71_2A_open

>  <ConformerSites upload name>  (37) 
1b - A71EV2A-x0911/A/147

>  <CanonSites upload name>  (37) 
1 - A71EV2A-x0911/A/147/1

>  <CrystalformSites upload name>  (37) 
F1a - A71EV2A-x0375/A/201/1

>  <Quatassemblies upload name>  (37) 
A1 - monomer

>  <Crystalforms upload name>  (37) 
F1 - A71_2A_open

>  <ConformerSites short tag>  (37) 
1b - A0911/A/147

>  <CanonSites short tag>  (37) 
1 - A0911/A/147/1

>  <CrystalformSites short tag>  (37) 
F1a - A0375/A/201

>  <Quatassemblies short tag>  (37) 
A1 - monomer

>  <Crystalforms short tag>  (37) 
F1 - A71_2A_open

>  <Centroid res>  (37) 
A71EV2A-x0911/A/133/A_v1

>  <Experiment code>  (37) 
A71EV2A-x0310

>  <Pose>  (37) 
A0310a

$$$$
A0608a
     RDKit          3D

 17 18  0  0  0  0  0  0  0  0999 V2000
   21.4860   11.7020    2.6450 O   0  0  0  0  0  0  0  0  0  0  0  0
   21.0130   12.7770    2.3220 C   0  0  0  0  0  0  0  0  0  0  0  0
   19.6280   13.1720    2.7820 C   0  0  0  0  0  0  0  0  0  0  0  0
   18.2910   13.0520    2.0900 C   0  0  0  0  0  0  0  0  0  0  0  0
   17.2910   13.9380    2.3960 C   0  0  0  0  0  0  0  0  0  0  0  0
   16.0320   13.8040    1.8680 C   0  0  0  0  0  0  0  0  0  0  0  0
   17.9890   12.0050    1.2430 C   0  0  0  0  0  0  0  0  0  0  0  0
   16.7300   11.8770    0.6920 C   0  0  0  0  0  0  0  0  0  0  0  0
   15.7170   12.7660    1.0130 C   0  0  0  0  0  0  0  0  0  0  0  0
   14.2920   12.5460    0.5520 C   0  0  0  0  0  0  0  0  0  0  0  0
   21.6830   13.7040    1.6400 N   0  0  0  0  0  0  0  0  0  0  0  0
   23.0870   14.0880    1.8710 C   0  0  0  0  0  0  0  0  0  0  0  0
   23.1830   15.5420    2.2590 C   0  0  1  0  0  0  0  0  0  0  0  0
   24.3180   16.1880    1.6670 O   0  0  0  0  0  0  0  0  0  0  0  0
   23.9450   17.4500    1.1550 C   0  0  0  0  0  0  0  0  0  0  0  0
   22.5190   17.7030    1.6180 C   0  0  0  0  0  0  0  0  0  0  0  0
   22.0170   16.3390    1.8540 C   0  0  0  0  0  0  0  0  0  0  0  0
 10  9  1  0
  9  6  1  0
  6  5  2  0
  5  4  1  0
  4  3  1  0
  3  2  1  0
  2  1  2  0
 11  2  1  0
 12 11  1  0
 13 12  1  6
 13 17  1  0
 17 16  1  0
 16 15  1  0
 15 14  1  0
 14 13  1  0
  7  4  2  0
  8  7  1  0
  9  8  2  0
M  END
>  <id>  (38) 
38

>  <inchikey>  (38) 
GNNODMPIMQHVQL-ZDUSSCGKSA-N

>  <alias>  (38) 
A0608a

>  <smiles>  (38) 
Cc1ccc(CC(=O)NC[C@@H]2CCCO2)cc1

>  <path>  (38) 
/opt/xchem-fragalysis-2/maxwin/BulkDock/TARGETS/A71EV2A/aligned_files/A0608a/A0608a.pdb

>  <distance_score>  (38) 
None

>  <energy_score>  (38) 
None

>  <compound>  (38) 
GNNODMPIMQHVQL-UHFFFAOYSA-N

>  <compound_id>  (38) 
32

>  <target>  (38) 
A71EV2A

>  <tags>  (38) 
['[Other] Fragment Screen', 'GOOD count', 'MEDIOCRE count', 'hits', '[Other] upload_1 2024-12-06', 'Main status', '[Other] New', '[Other] upload_1 2025-02-12', 'BAD count']

>  <inspirations>  (38) 
None

>  <subsites>  (38) 
None

>  <reference>  (38) 


>  <observation_longname>  (38) 
A71EV2A-x0608_A_147_v1

>  <ConformerSites alias>  (38) 
6a - A0486/A/147

>  <CanonSites alias>  (38) 
6 - A0486/A/147/1

>  <CrystalformSites alias>  (38) 
F1ac - A0486/A/147

>  <Quatassemblies alias>  (38) 
A1 - monomer

>  <Crystalforms alias>  (38) 
F1 - A71_2A_open

>  <ConformerSites upload name>  (38) 
6a - A71EV2A-x0486/A/147

>  <CanonSites upload name>  (38) 
6 - A71EV2A-x0486/A/147/1

>  <CrystalformSites upload name>  (38) 
F1ac - A71EV2A-x0486/A/147/1

>  <Quatassemblies upload name>  (38) 
A1 - monomer

>  <Crystalforms upload name>  (38) 
F1 - A71_2A_open

>  <ConformerSites short tag>  (38) 
6a - A0486/A/147

>  <CanonSites short tag>  (38) 
6 - A0486/A/147/1

>  <CrystalformSites short tag>  (38) 
F1ac - A0486/A/147

>  <Quatassemblies short tag>  (38) 
A1 - monomer

>  <Crystalforms short tag>  (38) 
F1 - A71_2A_open

>  <Centroid res>  (38) 
A71EV2A-x0486/A/143/A_v1

>  <Experiment code>  (38) 
A71EV2A-x0608

>  <Pose>  (38) 
A0608a

$$$$
A0691a
     RDKit          3D

 12 12  0  0  0  0  0  0  0  0999 V2000
    7.8450   10.7780    2.7230 O   0  0  0  0  0  0  0  0  0  0  0  0
    8.0510   12.1300    2.2830 S   0  0  0  0  0  0  0  0  0  0  0  0
    9.3270   12.5540    1.7760 O   0  0  0  0  0  0  0  0  0  0  0  0
    6.8310   12.4780    1.0860 C   0  0  0  0  0  0  0  0  0  0  0  0
    7.6570   13.1560    3.6420 C   0  0  0  0  0  0  0  0  0  0  0  0
    7.8100   14.5030    3.6270 C   0  0  0  0  0  0  0  0  0  0  0  0
    8.7050   14.9990    2.8000 N   0  0  0  0  0  0  0  0  0  0  0  0
    9.6530   15.9850    3.2350 C   0  0  0  0  0  0  0  0  0  0  0  0
    7.1740   12.5150    4.7500 C   0  0  0  0  0  0  0  0  0  0  0  0
    6.6110   13.2550    5.7070 C   0  0  0  0  0  0  0  0  0  0  0  0
    6.5670   14.5990    5.6020 C   0  0  0  0  0  0  0  0  0  0  0  0
    7.2630   15.2370    4.6350 C   0  0  0  0  0  0  0  0  0  0  0  0
  8  7  1  0
  7  6  1  0
  6 12  2  0
 12 11  1  0
 11 10  2  0
 10  9  1  0
  9  5  2  0
  6  5  1  0
  5  2  1  0
  3  2  2  0
  2  1  2  0
  4  2  1  0
M  END
>  <id>  (39) 
39

>  <inchikey>  (39) 
YLDKGNWSSXYUAH-UHFFFAOYSA-N

>  <alias>  (39) 
A0691a

>  <smiles>  (39) 
CNc1ccccc1S(C)(=O)=O

>  <path>  (39) 
/opt/xchem-fragalysis-2/maxwin/BulkDock/TARGETS/A71EV2A/aligned_files/A0691a/A0691a.pdb

>  <distance_score>  (39) 
None

>  <energy_score>  (39) 
None

>  <compound>  (39) 
YLDKGNWSSXYUAH-UHFFFAOYSA-N

>  <compound_id>  (39) 
33

>  <target>  (39) 
A71EV2A

>  <tags>  (39) 
['[Other] Fragment Screen', 'GOOD count', 'MEDIOCRE count', 'hits', '[Other] upload_1 2024-12-06', 'Main status', '[Other] New', '[Other] upload_1 2025-02-12', 'BAD count']

>  <inspirations>  (39) 
None

>  <subsites>  (39) 
None

>  <reference>  (39) 


>  <observation_longname>  (39) 
A71EV2A-x0691_A_201_v1

>  <ConformerSites alias>  (39) 
3a - A0541/A/147

>  <CanonSites alias>  (39) 
3 - A0541/A/147/1

>  <CrystalformSites alias>  (39) 
F1x - A0541/A/147

>  <Quatassemblies alias>  (39) 
A1 - monomer

>  <Crystalforms alias>  (39) 
F1 - A71_2A_open

>  <ConformerSites upload name>  (39) 
3a - A71EV2A-x0541/A/147

>  <CanonSites upload name>  (39) 
3 - A71EV2A-x0541/A/147/1

>  <CrystalformSites upload name>  (39) 
F1x - A71EV2A-x0541/A/147/1

>  <Quatassemblies upload name>  (39) 
A1 - monomer

>  <Crystalforms upload name>  (39) 
F1 - A71_2A_open

>  <ConformerSites short tag>  (39) 
3a - A0541/A/147

>  <CanonSites short tag>  (39) 
3 - A0541/A/147/1

>  <CrystalformSites short tag>  (39) 
F1x - A0541/A/147

>  <Quatassemblies short tag>  (39) 
A1 - monomer

>  <Crystalforms short tag>  (39) 
F1 - A71_2A_open

>  <Centroid res>  (39) 
A71EV2A-x0541/A/97/A_v1

>  <Experiment code>  (39) 
A71EV2A-x0691

>  <Pose>  (39) 
A0691a

$$$$
A0152a
     RDKit          3D

 17 18  0  0  0  0  0  0  0  0999 V2000
    8.6480   21.4220   31.7390 O   0  0  0  0  0  0  0  0  0  0  0  0
    8.4980   21.1160   30.5560 C   0  0  0  0  0  0  0  0  0  0  0  0
    7.9920   19.9750   30.1800 N   0  0  0  0  0  0  0  0  0  0  0  0
    7.1940   19.7870   28.9820 C   0  0  0  0  0  0  0  0  0  0  0  0
    7.9020   20.3870   27.7900 C   0  0  0  0  0  0  0  0  0  0  0  0
    8.5960   22.1680   29.5020 C   0  0  0  0  0  0  0  0  0  0  0  0
    8.5860   21.6530   28.1280 N   0  0  0  0  0  0  0  0  0  0  0  0
    9.3140   22.4130   27.2920 C   0  0  0  0  0  0  0  0  0  0  0  0
   10.1770   23.1680   27.6940 O   0  0  0  0  0  0  0  0  0  0  0  0
    9.0900   22.2650   25.8070 C   0  0  0  0  0  0  0  0  0  0  0  0
   10.1350   22.9050   25.0730 O   0  0  0  0  0  0  0  0  0  0  0  0
   11.3760   22.3700   25.1380 C   0  0  0  0  0  0  0  0  0  0  0  0
   12.0330   23.3270   24.4120 C   0  0  0  0  0  0  0  0  0  0  0  0
   13.4010   23.2680   24.3150 C   0  0  0  0  0  0  0  0  0  0  0  0
   14.0890   22.2510   24.8870 C   0  0  0  0  0  0  0  0  0  0  0  0
   13.4230   21.2690   25.5770 C   0  0  0  0  0  0  0  0  0  0  0  0
   12.0580   21.3260   25.7240 C   0  0  0  0  0  0  0  0  0  0  0  0
  9  8  2  0
 10  8  1  0
 11 10  1  0
 12 11  1  0
 12 17  2  0
 17 16  1  0
 16 15  2  0
 15 14  1  0
 14 13  2  0
 13 12  1  0
  8  7  1  0
  7  5  1  0
  5  4  1  0
  4  3  1  0
  3  2  1  0
  2  1  2  0
  6  2  1  0
  7  6  1  0
M  END
>  <id>  (40) 
40

>  <inchikey>  (40) 
VQOCCTAPSDVOOO-UHFFFAOYSA-N

>  <alias>  (40) 
A0152a

>  <smiles>  (40) 
O=C1CN(C(=O)COc2ccccc2)CCN1

>  <path>  (40) 
/opt/xchem-fragalysis-2/maxwin/BulkDock/TARGETS/A71EV2A/aligned_files/A0152a/A0152a.pdb

>  <distance_score>  (40) 
None

>  <energy_score>  (40) 
None

>  <compound>  (40) 
VQOCCTAPSDVOOO-UHFFFAOYSA-N

>  <compound_id>  (40) 
34

>  <target>  (40) 
A71EV2A

>  <tags>  (40) 
['[Other] Fragment Screen', 'GOOD count', 'MEDIOCRE count', 'hits', '[Other] upload_1 2024-12-06', 'Main status', '[Other] New', '[Other] upload_1 2025-02-12', 'BAD count']

>  <inspirations>  (40) 
None

>  <subsites>  (40) 
None

>  <reference>  (40) 


>  <observation_longname>  (40) 
A71EV2A-x0152_A_147_v1

>  <ConformerSites alias>  (40) 
4c - A0525/A/246

>  <CanonSites alias>  (40) 
4 - A0525/A/246/1

>  <CrystalformSites alias>  (40) 
F1z - A0525/A/246

>  <Quatassemblies alias>  (40) 
A1 - monomer

>  <Crystalforms alias>  (40) 
F1 - A71_2A_open

>  <ConformerSites upload name>  (40) 
4c - A71EV2A-x0525/A/246

>  <CanonSites upload name>  (40) 
4 - A71EV2A-x0525/A/246/1

>  <CrystalformSites upload name>  (40) 
F1z - A71EV2A-x0525/A/246/1

>  <Quatassemblies upload name>  (40) 
A1 - monomer

>  <Crystalforms upload name>  (40) 
F1 - A71_2A_open

>  <ConformerSites short tag>  (40) 
4c - A0525/A/246

>  <CanonSites short tag>  (40) 
4 - A0525/A/246/1

>  <CrystalformSites short tag>  (40) 
F1z - A0525/A/246

>  <Quatassemblies short tag>  (40) 
A1 - monomer

>  <Crystalforms short tag>  (40) 
F1 - A71_2A_open

>  <Centroid res>  (40) 
A71EV2A-x0525/A/90/A_v1

>  <Experiment code>  (40) 
A71EV2A-x0152

>  <Pose>  (40) 
A0152a

$$$$
A0152b
     RDKit          3D

 17 18  0  0  0  0  0  0  0  0999 V2000
   18.5650   -4.9670   22.6390 O   0  0  0  0  0  0  0  0  0  0  0  0
   17.7180   -4.3810   22.0130 C   0  0  0  0  0  0  0  0  0  0  0  0
   17.2150   -4.8900   20.9170 N   0  0  0  0  0  0  0  0  0  0  0  0
   17.5030   -4.3400   19.6100 C   0  0  0  0  0  0  0  0  0  0  0  0
   18.4480   -3.1610   19.8280 C   0  0  0  0  0  0  0  0  0  0  0  0
   17.5160   -2.9030   22.1860 C   0  0  0  0  0  0  0  0  0  0  0  0
   17.9730   -2.2990   20.9320 N   0  0  0  0  0  0  0  0  0  0  0  0
   17.9410   -0.9550   20.9450 C   0  0  0  0  0  0  0  0  0  0  0  0
   17.3110   -0.2940   20.1370 O   0  0  0  0  0  0  0  0  0  0  0  0
   18.6480   -0.3370   22.1250 C   0  0  0  0  0  0  0  0  0  0  0  0
   18.1580    0.9790   22.2520 O   0  0  0  0  0  0  0  0  0  0  0  0
   17.8240    1.5520   23.4580 C   0  0  0  0  0  0  0  0  0  0  0  0
   17.1580    2.7370   23.7180 C   0  0  0  0  0  0  0  0  0  0  0  0
   17.5430    3.4150   24.8520 C   0  0  0  0  0  0  0  0  0  0  0  0
   18.5590    2.9170   25.6930 C   0  0  0  0  0  0  0  0  0  0  0  0
   19.1400    1.7230   25.4370 C   0  0  0  0  0  0  0  0  0  0  0  0
   18.7110    1.0040   24.3620 C   0  0  0  0  0  0  0  0  0  0  0  0
  9  8  2  0
 10  8  1  0
 11 10  1  0
 12 11  1  0
 12 17  2  0
 17 16  1  0
 16 15  2  0
 15 14  1  0
 14 13  2  0
 13 12  1  0
  8  7  1  0
  7  5  1  0
  5  4  1  0
  4  3  1  0
  3  2  1  0
  2  1  2  0
  6  2  1  0
  7  6  1  0
M  END
>  <id>  (41) 
41

>  <inchikey>  (41) 
VQOCCTAPSDVOOO-UHFFFAOYSA-N

>  <alias>  (41) 
A0152b

>  <smiles>  (41) 
O=C1CN(C(=O)COc2ccccc2)CCN1

>  <path>  (41) 
/opt/xchem-fragalysis-2/maxwin/BulkDock/TARGETS/A71EV2A/aligned_files/A0152b/A0152b.pdb

>  <distance_score>  (41) 
None

>  <energy_score>  (41) 
None

>  <compound>  (41) 
VQOCCTAPSDVOOO-UHFFFAOYSA-N

>  <compound_id>  (41) 
34

>  <target>  (41) 
A71EV2A

>  <tags>  (41) 
['[Other] Fragment Screen', 'GOOD count', 'MEDIOCRE count', 'hits', '[Other] upload_1 2024-12-06', 'Main status', '[Other] New', '[Other] upload_1 2025-02-12', 'BAD count']

>  <inspirations>  (41) 
None

>  <subsites>  (41) 
None

>  <reference>  (41) 


>  <observation_longname>  (41) 
A71EV2A-x0152_A_201_v1

>  <ConformerSites alias>  (41) 
2a - A3977/A/202

>  <CanonSites alias>  (41) 
2 - A3977/A/202/1

>  <CrystalformSites alias>  (41) 
F1s - A0152/A/201

>  <Quatassemblies alias>  (41) 
A1 - monomer

>  <Crystalforms alias>  (41) 
F1 - A71_2A_open

>  <ConformerSites upload name>  (41) 
2a - A71EV2A-x3977/A/202

>  <CanonSites upload name>  (41) 
2 - A71EV2A-x3977/A/202/1

>  <CrystalformSites upload name>  (41) 
F1s - A71EV2A-x0152/A/201/1

>  <Quatassemblies upload name>  (41) 
A1 - monomer

>  <Crystalforms upload name>  (41) 
F1 - A71_2A_open

>  <ConformerSites short tag>  (41) 
2a - A3977/A/202

>  <CanonSites short tag>  (41) 
2 - A3977/A/202/1

>  <CrystalformSites short tag>  (41) 
F1s - A0152/A/201

>  <Quatassemblies short tag>  (41) 
A1 - monomer

>  <Crystalforms short tag>  (41) 
F1 - A71_2A_open

>  <Centroid res>  (41) 
A71EV2A-x3977/A/113/A_v1

>  <Experiment code>  (41) 
A71EV2A-x0152

>  <Pose>  (41) 
A0152b

$$$$
A0188a
     RDKit          3D

 14 14  0  0  0  0  0  0  0  0999 V2000
    8.1120   12.9400    3.6230 O   0  0  0  0  0  0  0  0  0  0  0  0
    7.1150   13.1000    4.7260 S   0  0  0  0  0  0  0  0  0  0  0  0
    7.1310   11.9530    5.4250 O   0  0  0  0  0  0  0  0  0  0  0  0
    7.5940   14.0960    5.4080 N   0  0  0  0  0  0  0  0  0  0  0  0
    6.9220   14.5840    6.5380 C   0  0  0  0  0  0  0  0  0  0  0  0
    7.9950   15.1290    4.5560 C   0  0  0  0  0  0  0  0  0  0  0  0
    5.5490   13.2890    4.1220 N   0  0  0  0  0  0  0  0  0  0  0  0
    5.2310   14.6140    3.6410 C   0  0  0  0  0  0  0  0  0  0  0  0
    4.9470   12.1880    3.3360 C   0  0  0  0  0  0  0  0  0  0  0  0
    3.4390   12.3520    3.1990 C   0  0  0  0  0  0  0  0  0  0  0  0
    3.0920   13.6840    2.8750 O   0  0  0  0  0  0  0  0  0  0  0  0
    3.6910   14.7550    3.5410 C   0  0  2  0  0  0  0  0  0  0  0  0
    2.8950   15.6610    3.2930 C   0  0  0  0  0  0  0  0  0  0  0  0
    1.6020   15.5670    2.1660 C   0  0  0  0  0  0  0  0  0  0  0  0
 14 13  1  0
 12 13  1  6
 12  8  1  0
  8  7  1  0
  9  7  1  0
 10  9  1  0
 11 10  1  0
 12 11  1  0
  7  2  1  0
  3  2  2  0
  2  1  2  0
  4  2  1  0
  6  4  1  0
  5  4  1  0
M  END
>  <id>  (42) 
42

>  <inchikey>  (42) 
YVFXOSQSQHCMKO-MRVPVSSYSA-N

>  <alias>  (42) 
A0188a

>  <smiles>  (42) 
CC[C@@H]1CN(S(=O)(=O)N(C)C)CCO1

>  <path>  (42) 
/opt/xchem-fragalysis-2/maxwin/BulkDock/TARGETS/A71EV2A/aligned_files/A0188a/A0188a.pdb

>  <distance_score>  (42) 
None

>  <energy_score>  (42) 
None

>  <compound>  (42) 
YVFXOSQSQHCMKO-UHFFFAOYSA-N

>  <compound_id>  (42) 
35

>  <target>  (42) 
A71EV2A

>  <tags>  (42) 
['[Other] Fragment Screen', 'GOOD count', 'MEDIOCRE count', 'hits', '[Other] upload_1 2024-12-06', 'Main status', '[Other] New', '[Other] upload_1 2025-02-12', 'BAD count']

>  <inspirations>  (42) 
None

>  <subsites>  (42) 
None

>  <reference>  (42) 


>  <observation_longname>  (42) 
A71EV2A-x0188_A_147_v1

>  <ConformerSites alias>  (42) 
3a - A0541/A/147

>  <CanonSites alias>  (42) 
3 - A0541/A/147/1

>  <CrystalformSites alias>  (42) 
F1x - A0541/A/147

>  <Quatassemblies alias>  (42) 
A1 - monomer

>  <Crystalforms alias>  (42) 
F1 - A71_2A_open

>  <ConformerSites upload name>  (42) 
3a - A71EV2A-x0541/A/147

>  <CanonSites upload name>  (42) 
3 - A71EV2A-x0541/A/147/1

>  <CrystalformSites upload name>  (42) 
F1x - A71EV2A-x0541/A/147/1

>  <Quatassemblies upload name>  (42) 
A1 - monomer

>  <Crystalforms upload name>  (42) 
F1 - A71_2A_open

>  <ConformerSites short tag>  (42) 
3a - A0541/A/147

>  <CanonSites short tag>  (42) 
3 - A0541/A/147/1

>  <CrystalformSites short tag>  (42) 
F1x - A0541/A/147

>  <Quatassemblies short tag>  (42) 
A1 - monomer

>  <Crystalforms short tag>  (42) 
F1 - A71_2A_open

>  <Centroid res>  (42) 
A71EV2A-x0541/A/97/A_v1

>  <Experiment code>  (42) 
A71EV2A-x0188

>  <Pose>  (42) 
A0188a

$$$$
A0194a
     RDKit          3D

 15 16  0  0  0  0  0  0  0  0999 V2000
   17.6470   -5.2070   23.0850 F   0  0  0  0  0  0  0  0  0  0  0  0
   18.3460   -4.1240   23.4880 C   0  0  0  0  0  0  0  0  0  0  0  0
   18.9760   -4.1800   24.7160 C   0  0  0  0  0  0  0  0  0  0  0  0
   19.6930   -3.0500   25.1080 C   0  0  0  0  0  0  0  0  0  0  0  0
   19.7720   -1.9360   24.2870 C   0  0  0  0  0  0  0  0  0  0  0  0
   19.1360   -1.9280   23.0670 C   0  0  0  0  0  0  0  0  0  0  0  0
   18.4110   -3.0340   22.6530 C   0  0  0  0  0  0  0  0  0  0  0  0
   18.9490   -5.4290   25.5620 C   0  0  0  0  0  0  0  0  0  0  0  0
   17.8870   -5.4410   26.5750 N   0  0  0  0  0  0  0  0  0  0  0  0
   18.3790   -5.8800   27.8930 C   0  0  0  0  0  0  0  0  0  0  0  0
   19.1650   -4.7430   28.5210 C   0  0  0  0  0  0  0  0  0  0  0  0
   18.4350   -4.1980   29.7210 C   0  0  0  0  0  0  0  0  0  0  0  0
   18.3030   -5.1860   30.7510 O   0  0  0  0  0  0  0  0  0  0  0  0
   17.9760   -6.4890   30.2280 C   0  0  0  0  0  0  0  0  0  0  0  0
   17.3390   -6.4020   28.8630 C   0  0  0  0  0  0  0  0  0  0  0  0
  2  1  1  0
  2  7  2  0
  7  6  1  0
  6  5  2  0
  5  4  1  0
  4  3  2  0
  3  2  1  0
  8  3  1  0
  9  8  1  0
 10  9  1  0
 10 15  1  0
 15 14  1  0
 14 13  1  0
 13 12  1  0
 12 11  1  0
 11 10  1  0
M  END
>  <id>  (43) 
43

>  <inchikey>  (43) 
VJDVDWXYFZNXLH-UHFFFAOYSA-N

>  <alias>  (43) 
A0194a

>  <smiles>  (43) 
Fc1ccccc1CNC1CCOCC1

>  <path>  (43) 
/opt/xchem-fragalysis-2/maxwin/BulkDock/TARGETS/A71EV2A/aligned_files/A0194a/A0194a.pdb

>  <distance_score>  (43) 
None

>  <energy_score>  (43) 
None

>  <compound>  (43) 
VJDVDWXYFZNXLH-UHFFFAOYSA-N

>  <compound_id>  (43) 
36

>  <target>  (43) 
A71EV2A

>  <tags>  (43) 
['[Other] Fragment Screen', 'GOOD count', 'MEDIOCRE count', 'hits', '[Other] upload_1 2024-12-06', 'Main status', '[Other] New', '[Other] upload_1 2025-02-12', 'BAD count']

>  <inspirations>  (43) 
None

>  <subsites>  (43) 
None

>  <reference>  (43) 


>  <observation_longname>  (43) 
A71EV2A-x0194_A_147_v1

>  <ConformerSites alias>  (43) 
2a - A3977/A/202

>  <CanonSites alias>  (43) 
2 - A3977/A/202/1

>  <CrystalformSites alias>  (43) 
F1s - A0152/A/201

>  <Quatassemblies alias>  (43) 
A1 - monomer

>  <Crystalforms alias>  (43) 
F1 - A71_2A_open

>  <ConformerSites upload name>  (43) 
2a - A71EV2A-x3977/A/202

>  <CanonSites upload name>  (43) 
2 - A71EV2A-x3977/A/202/1

>  <CrystalformSites upload name>  (43) 
F1s - A71EV2A-x0152/A/201/1

>  <Quatassemblies upload name>  (43) 
A1 - monomer

>  <Crystalforms upload name>  (43) 
F1 - A71_2A_open

>  <ConformerSites short tag>  (43) 
2a - A3977/A/202

>  <CanonSites short tag>  (43) 
2 - A3977/A/202/1

>  <CrystalformSites short tag>  (43) 
F1s - A0152/A/201

>  <Quatassemblies short tag>  (43) 
A1 - monomer

>  <Crystalforms short tag>  (43) 
F1 - A71_2A_open

>  <Centroid res>  (43) 
A71EV2A-x3977/A/113/A_v1

>  <Experiment code>  (43) 
A71EV2A-x0194

>  <Pose>  (43) 
A0194a

$$$$
A0202b
     RDKit          3D

 13 14  0  0  0  0  0  0  0  0999 V2000
   12.4510   -8.1940   32.1920 O   0  0  0  0  0  0  0  0  0  0  0  0
   12.0320   -7.1130   31.3630 S   0  0  0  0  0  0  0  0  0  0  0  0
   12.5750   -6.9360   30.0610 O   0  0  0  0  0  0  0  0  0  0  0  0
   10.4600   -7.1150   31.3010 N   0  0  0  0  0  0  0  0  0  0  0  0
   12.3580   -5.9720   32.6660 C   0  0  0  0  0  0  0  0  0  0  0  0
   13.5450   -5.7200   33.3300 N   0  0  0  0  0  0  0  0  0  0  0  0
   13.3280   -4.7340   34.2650 C   0  0  0  0  0  0  0  0  0  0  0  0
   12.0550   -4.3500   34.2780 N   0  0  0  0  0  0  0  0  0  0  0  0
   11.4480   -5.1000   33.3050 C   0  0  0  0  0  0  0  0  0  0  0  0
   14.7430   -6.3120   33.0610 N   0  0  0  0  0  0  0  0  0  0  0  0
   15.7520   -5.8560   33.7520 C   0  0  0  0  0  0  0  0  0  0  0  0
   15.6690   -4.8540   34.7290 C   0  0  0  0  0  0  0  0  0  0  0  0
   14.4490   -4.2950   34.9820 C   0  0  0  0  0  0  0  0  0  0  0  0
  4  2  1  0
  3  2  2  0
  2  1  2  0
  5  2  1  0
  5  9  2  0
  9  8  1  0
  8  7  2  0
  7 13  1  0
 13 12  2  0
 12 11  1  0
 11 10  2  0
 10  6  1  0
  6  5  1  0
  7  6  1  0
M  END
>  <id>  (44) 
44

>  <inchikey>  (44) 
BZFKHPWXOXGGCH-UHFFFAOYSA-N

>  <alias>  (44) 
A0202b

>  <smiles>  (44) 
NS(=O)(=O)c1cnc2cccnn12

>  <path>  (44) 
/opt/xchem-fragalysis-2/maxwin/BulkDock/TARGETS/A71EV2A/aligned_files/A0202b/A0202b.pdb

>  <distance_score>  (44) 
None

>  <energy_score>  (44) 
None

>  <compound>  (44) 
BZFKHPWXOXGGCH-UHFFFAOYSA-N

>  <compound_id>  (44) 
37

>  <target>  (44) 
A71EV2A

>  <tags>  (44) 
['GOOD count', 'MEDIOCRE count', 'hits', '[Other] upload_1 2024-12-06', 'Main status', '[Other] New', '[Other] upload_1 2025-02-12', 'BAD count']

>  <inspirations>  (44) 
None

>  <subsites>  (44) 
None

>  <reference>  (44) 


>  <observation_longname>  (44) 
A71EV2A-x0202_A_201_v1

>  <ConformerSites alias>  (44) 
7a - A0202/A/201

>  <CanonSites alias>  (44) 
7 - A0488/A/147/1

>  <CrystalformSites alias>  (44) 
F1ad - A0488/A/147

>  <Quatassemblies alias>  (44) 
A1 - monomer

>  <Crystalforms alias>  (44) 
F1 - A71_2A_open

>  <ConformerSites upload name>  (44) 
7a - A71EV2A-x0202/A/201

>  <CanonSites upload name>  (44) 
7 - A71EV2A-x0488/A/147/1

>  <CrystalformSites upload name>  (44) 
F1ad - A71EV2A-x0488/A/147/1

>  <Quatassemblies upload name>  (44) 
A1 - monomer

>  <Crystalforms upload name>  (44) 
F1 - A71_2A_open

>  <ConformerSites short tag>  (44) 
7a - A0202/A/201

>  <CanonSites short tag>  (44) 
7 - A0488/A/147/1

>  <CrystalformSites short tag>  (44) 
F1ad - A0488/A/147

>  <Quatassemblies short tag>  (44) 
A1 - monomer

>  <Crystalforms short tag>  (44) 
F1 - A71_2A_open

>  <Centroid res>  (44) 
A71EV2A-x0488/A/68/A_v1

>  <Experiment code>  (44) 
A71EV2A-x0202

>  <Pose>  (44) 
A0202b

$$$$
A0202a
     RDKit          3D

 13 14  0  0  0  0  0  0  0  0999 V2000
   17.6570   -2.9850   19.5570 O   0  0  0  0  0  0  0  0  0  0  0  0
   17.9410   -1.6700   20.2190 S   0  0  0  0  0  0  0  0  0  0  0  0
   19.2010   -1.1100   19.5960 O   0  0  0  0  0  0  0  0  0  0  0  0
   16.6170   -0.5940   19.9510 N   0  0  0  0  0  0  0  0  0  0  0  0
   18.2720   -1.8890   21.9180 C   0  0  0  0  0  0  0  0  0  0  0  0
   18.6090   -0.9110   22.7690 N   0  0  0  0  0  0  0  0  0  0  0  0
   18.7800   -1.4780   23.9690 C   0  0  0  0  0  0  0  0  0  0  0  0
   18.5490   -2.7970   23.8580 N   0  0  0  0  0  0  0  0  0  0  0  0
   18.2300   -3.0840   22.5860 C   0  0  0  0  0  0  0  0  0  0  0  0
   18.7790    0.4160   22.5960 N   0  0  0  0  0  0  0  0  0  0  0  0
   19.1250    1.2410   23.5980 C   0  0  0  0  0  0  0  0  0  0  0  0
   19.3110    0.7030   24.8530 C   0  0  0  0  0  0  0  0  0  0  0  0
   19.1380   -0.6510   25.0310 C   0  0  0  0  0  0  0  0  0  0  0  0
  4  2  1  0
  3  2  2  0
  2  1  2  0
  5  2  1  0
  5  9  2  0
  9  8  1  0
  8  7  2  0
  7 13  1  0
 13 12  2  0
 12 11  1  0
 11 10  2  0
 10  6  1  0
  6  5  1  0
  7  6  1  0
M  END
>  <id>  (45) 
45

>  <inchikey>  (45) 
BZFKHPWXOXGGCH-UHFFFAOYSA-N

>  <alias>  (45) 
A0202a

>  <smiles>  (45) 
NS(=O)(=O)c1cnc2cccnn12

>  <path>  (45) 
/opt/xchem-fragalysis-2/maxwin/BulkDock/TARGETS/A71EV2A/aligned_files/A0202a/A0202a.pdb

>  <distance_score>  (45) 
None

>  <energy_score>  (45) 
None

>  <compound>  (45) 
BZFKHPWXOXGGCH-UHFFFAOYSA-N

>  <compound_id>  (45) 
37

>  <target>  (45) 
A71EV2A

>  <tags>  (45) 
['[Other] Fragment Screen', 'GOOD count', 'MEDIOCRE count', 'hits', '[Other] upload_1 2024-12-06', 'Main status', '[Other] New', '[Other] upload_1 2025-02-12', 'BAD count']

>  <inspirations>  (45) 
None

>  <subsites>  (45) 
None

>  <reference>  (45) 


>  <observation_longname>  (45) 
A71EV2A-x0202_A_147_v1

>  <ConformerSites alias>  (45) 
2a - A3977/A/202

>  <CanonSites alias>  (45) 
2 - A3977/A/202/1

>  <CrystalformSites alias>  (45) 
F1s - A0152/A/201

>  <Quatassemblies alias>  (45) 
A1 - monomer

>  <Crystalforms alias>  (45) 
F1 - A71_2A_open

>  <ConformerSites upload name>  (45) 
2a - A71EV2A-x3977/A/202

>  <CanonSites upload name>  (45) 
2 - A71EV2A-x3977/A/202/1

>  <CrystalformSites upload name>  (45) 
F1s - A71EV2A-x0152/A/201/1

>  <Quatassemblies upload name>  (45) 
A1 - monomer

>  <Crystalforms upload name>  (45) 
F1 - A71_2A_open

>  <ConformerSites short tag>  (45) 
2a - A3977/A/202

>  <CanonSites short tag>  (45) 
2 - A3977/A/202/1

>  <CrystalformSites short tag>  (45) 
F1s - A0152/A/201

>  <Quatassemblies short tag>  (45) 
A1 - monomer

>  <Crystalforms short tag>  (45) 
F1 - A71_2A_open

>  <Centroid res>  (45) 
A71EV2A-x3977/A/113/A_v1

>  <Experiment code>  (45) 
A71EV2A-x0202

>  <Pose>  (45) 
A0202a

$$$$
A0207a
     RDKit          3D

 15 16  0  0  0  0  0  0  0  0999 V2000
    5.5450   10.7980   26.7400 O   0  0  0  0  0  0  0  0  0  0  0  0
    6.3180   11.5560   26.1560 C   0  0  0  0  0  0  0  0  0  0  0  0
    7.3140   11.0240   25.2230 C   0  0  0  0  0  0  0  0  0  0  0  0
    7.4900    9.7780   24.7220 C   0  0  0  0  0  0  0  0  0  0  0  0
    8.2250   11.8720   24.6890 O   0  0  0  0  0  0  0  0  0  0  0  0
    9.0300   11.1340   23.7770 N   0  0  0  0  0  0  0  0  0  0  0  0
    8.5710    9.8970   23.8310 C   0  0  0  0  0  0  0  0  0  0  0  0
    9.2040    8.8400   22.9830 C   0  0  0  0  0  0  0  0  0  0  0  0
    6.3210   12.8800   26.3250 N   0  0  0  0  0  0  0  0  0  0  0  0
    5.9710   13.4980   27.6000 C   0  0  0  0  0  0  0  0  0  0  0  0
    4.5710   14.0900   27.6020 C   0  0  2  0  0  0  0  0  0  0  0  0
    3.9540   14.2190   26.2190 C   0  0  0  0  0  0  0  0  0  0  0  0
    2.9030   15.1700   26.3780 O   0  0  0  0  0  0  0  0  0  0  0  0
    3.3850   16.1620   27.2890 C   0  0  0  0  0  0  0  0  0  0  0  0
    4.5320   15.5480   28.0800 C   0  0  0  0  0  0  0  0  0  0  0  0
  8  7  1  0
  7  4  1  0
  4  3  2  0
  5  3  1  0
  6  5  1  0
  7  6  2  0
  3  2  1  0
  2  1  2  0
  9  2  1  0
 10  9  1  0
 11 10  1  6
 11 15  1  0
 15 14  1  0
 14 13  1  0
 13 12  1  0
 12 11  1  0
M  END
>  <id>  (46) 
46

>  <inchikey>  (46) 
VMYFKAZPRAZUQC-MRVPVSSYSA-N

>  <alias>  (46) 
A0207a

>  <smiles>  (46) 
Cc1cc(C(=O)NC[C@H]2CCOC2)on1

>  <path>  (46) 
/opt/xchem-fragalysis-2/maxwin/BulkDock/TARGETS/A71EV2A/aligned_files/A0207a/A0207a.pdb

>  <distance_score>  (46) 
None

>  <energy_score>  (46) 
None

>  <compound>  (46) 
VMYFKAZPRAZUQC-UHFFFAOYSA-N

>  <compound_id>  (46) 
38

>  <target>  (46) 
A71EV2A

>  <tags>  (46) 
['[Other] Fragment Screen', 'GOOD count', 'MEDIOCRE count', '[Other] S1 site', 'hits', '[Other] Active site fragment', '[Other] upload_1 2024-12-06', 'Main status', '[Other] New', '[Other] upload_1 2025-02-12', 'BAD count']

>  <inspirations>  (46) 
None

>  <subsites>  (46) 
None

>  <reference>  (46) 


>  <observation_longname>  (46) 
A71EV2A-x0207_A_151_v1

>  <ConformerSites alias>  (46) 
1b - A0911/A/147

>  <CanonSites alias>  (46) 
1 - Active Site

>  <CrystalformSites alias>  (46) 
F3c - A0487/A/250

>  <Quatassemblies alias>  (46) 
A1 - monomer

>  <Crystalforms alias>  (46) 
F3 - A71_2A_open_long_cell

>  <ConformerSites upload name>  (46) 
1b - A71EV2A-x0911/A/147

>  <CanonSites upload name>  (46) 
1 - A71EV2A-x0911/A/147/1

>  <CrystalformSites upload name>  (46) 
F3c - A71EV2A-x0487/A/250/1

>  <Quatassemblies upload name>  (46) 
A1 - monomer

>  <Crystalforms upload name>  (46) 
F3 - A71_2A_open_long_cell

>  <ConformerSites short tag>  (46) 
1b - A0911/A/147

>  <CanonSites short tag>  (46) 
1 - A0911/A/147/1

>  <CrystalformSites short tag>  (46) 
F3c - A0487/A/250

>  <Quatassemblies short tag>  (46) 
A1 - monomer

>  <Crystalforms short tag>  (46) 
F3 - A71_2A_open_long_cell

>  <Centroid res>  (46) 
A71EV2A-x0911/A/133/A_v1

>  <Experiment code>  (46) 
A71EV2A-x0207

>  <Pose>  (46) 
A0207a

$$$$
A0228a
     RDKit          3D

 11 11  0  0  0  0  0  0  0  0999 V2000
   14.1200   21.2080   25.0410 O   0  0  0  0  0  0  0  0  0  0  0  0
   13.2750   22.2500   24.5580 S   0  0  0  0  0  0  0  0  0  0  0  0
   12.9310   22.2810   23.1770 O   0  0  0  0  0  0  0  0  0  0  0  0
   13.9720   23.7950   25.0020 C   0  0  0  0  0  0  0  0  0  0  0  0
   11.9000   22.0970   25.3470 N   0  0  0  0  0  0  0  0  0  0  0  0
   10.8630   23.0270   24.9240 C   0  0  0  0  0  0  0  0  0  0  0  0
    9.4840   22.5760   25.3640 C   0  0  0  0  0  0  0  0  0  0  0  0
    9.4420   22.2190   26.8290 C   0  0  0  0  0  0  0  0  0  0  0  0
    8.2340   21.4930   26.9790 O   0  0  0  0  0  0  0  0  0  0  0  0
   10.6330   21.3920   27.2950 C   0  0  0  0  0  0  0  0  0  0  0  0
   11.9620   21.9910   26.8160 C   0  0  0  0  0  0  0  0  0  0  0  0
  4  2  1  0
  3  2  2  0
  2  1  2  0
  5  2  1  0
  5 11  1  0
 11 10  1  0
 10  8  1  0
  9  8  1  0
  8  7  1  0
  7  6  1  0
  6  5  1  0
M  END
>  <id>  (47) 
47

>  <inchikey>  (47) 
UPEFDWJLNXWMOW-UHFFFAOYSA-N

>  <alias>  (47) 
A0228a

>  <smiles>  (47) 
CS(=O)(=O)N1CCC(O)CC1

>  <path>  (47) 
/opt/xchem-fragalysis-2/maxwin/BulkDock/TARGETS/A71EV2A/aligned_files/A0228a/A0228a.pdb

>  <distance_score>  (47) 
None

>  <energy_score>  (47) 
None

>  <compound>  (47) 
UPEFDWJLNXWMOW-UHFFFAOYSA-N

>  <compound_id>  (47) 
39

>  <target>  (47) 
A71EV2A

>  <tags>  (47) 
['[Other] Fragment Screen', 'GOOD count', 'MEDIOCRE count', 'hits', '[Other] upload_1 2024-12-06', 'Main status', '[Other] New', '[Other] upload_1 2025-02-12', 'BAD count']

>  <inspirations>  (47) 
None

>  <subsites>  (47) 
None

>  <reference>  (47) 


>  <observation_longname>  (47) 
A71EV2A-x0228_A_147_v1

>  <ConformerSites alias>  (47) 
4c - A0525/A/246

>  <CanonSites alias>  (47) 
4 - A0525/A/246/1

>  <CrystalformSites alias>  (47) 
F1z - A0525/A/246

>  <Quatassemblies alias>  (47) 
A1 - monomer

>  <Crystalforms alias>  (47) 
F1 - A71_2A_open

>  <ConformerSites upload name>  (47) 
4c - A71EV2A-x0525/A/246

>  <CanonSites upload name>  (47) 
4 - A71EV2A-x0525/A/246/1

>  <CrystalformSites upload name>  (47) 
F1z - A71EV2A-x0525/A/246/1

>  <Quatassemblies upload name>  (47) 
A1 - monomer

>  <Crystalforms upload name>  (47) 
F1 - A71_2A_open

>  <ConformerSites short tag>  (47) 
4c - A0525/A/246

>  <CanonSites short tag>  (47) 
4 - A0525/A/246/1

>  <CrystalformSites short tag>  (47) 
F1z - A0525/A/246

>  <Quatassemblies short tag>  (47) 
A1 - monomer

>  <Crystalforms short tag>  (47) 
F1 - A71_2A_open

>  <Centroid res>  (47) 
A71EV2A-x0525/A/90/A_v1

>  <Experiment code>  (47) 
A71EV2A-x0228

>  <Pose>  (47) 
A0228a

$$$$
A0229a
     RDKit          3D

 13 13  0  0  0  0  0  0  0  0999 V2000
    9.0730   21.6850   28.0410 O   0  0  0  0  0  0  0  0  0  0  0  0
    8.5410   22.4720   26.9850 S   0  0  0  0  0  0  0  0  0  0  0  0
    7.1650   22.3050   26.6700 O   0  0  0  0  0  0  0  0  0  0  0  0
    8.8760   24.1260   27.3890 C   0  0  0  0  0  0  0  0  0  0  0  0
    9.3820   22.0150   25.6550 N   0  0  0  0  0  0  0  0  0  0  0  0
   10.7460   22.2620   25.3920 C   0  0  0  0  0  0  0  0  0  0  0  0
   11.2250   23.3640   24.6740 C   0  0  0  0  0  0  0  0  0  0  0  0
   12.5810   23.5050   24.4590 C   0  0  0  0  0  0  0  0  0  0  0  0
   13.4860   22.6020   24.9600 C   0  0  0  0  0  0  0  0  0  0  0  0
   14.9660   22.7870   24.8390 C   0  0  0  0  0  0  0  0  0  0  0  0
   15.5610   23.3990   26.0350 N   0  0  0  0  0  0  0  0  0  0  0  0
   12.9980   21.4940   25.6730 C   0  0  0  0  0  0  0  0  0  0  0  0
   11.6430   21.3220   25.8660 C   0  0  0  0  0  0  0  0  0  0  0  0
  4  2  1  0
  3  2  2  0
  2  1  2  0
  5  2  1  0
  6  5  1  0
  6 13  2  0
 13 12  1  0
 12  9  2  0
 10  9  1  0
 11 10  1  0
  9  8  1  0
  8  7  2  0
  7  6  1  0
M  END
>  <id>  (48) 
48

>  <inchikey>  (48) 
IZJVPNBRAKIMBK-UHFFFAOYSA-N

>  <alias>  (48) 
A0229a

>  <smiles>  (48) 
CS(=O)(=O)Nc1ccc(CN)cc1

>  <path>  (48) 
/opt/xchem-fragalysis-2/maxwin/BulkDock/TARGETS/A71EV2A/aligned_files/A0229a/A0229a.pdb

>  <distance_score>  (48) 
None

>  <energy_score>  (48) 
None

>  <compound>  (48) 
IZJVPNBRAKIMBK-UHFFFAOYSA-N

>  <compound_id>  (48) 
40

>  <target>  (48) 
A71EV2A

>  <tags>  (48) 
['[Other] Fragment Screen', 'GOOD count', 'MEDIOCRE count', 'hits', '[Other] upload_1 2024-12-06', 'Main status', '[Other] New', '[Other] upload_1 2025-02-12', 'BAD count']

>  <inspirations>  (48) 
None

>  <subsites>  (48) 
None

>  <reference>  (48) 


>  <observation_longname>  (48) 
A71EV2A-x0229_A_147_v1

>  <ConformerSites alias>  (48) 
4c - A0525/A/246

>  <CanonSites alias>  (48) 
4 - A0525/A/246/1

>  <CrystalformSites alias>  (48) 
F1z - A0525/A/246

>  <Quatassemblies alias>  (48) 
A1 - monomer

>  <Crystalforms alias>  (48) 
F1 - A71_2A_open

>  <ConformerSites upload name>  (48) 
4c - A71EV2A-x0525/A/246

>  <CanonSites upload name>  (48) 
4 - A71EV2A-x0525/A/246/1

>  <CrystalformSites upload name>  (48) 
F1z - A71EV2A-x0525/A/246/1

>  <Quatassemblies upload name>  (48) 
A1 - monomer

>  <Crystalforms upload name>  (48) 
F1 - A71_2A_open

>  <ConformerSites short tag>  (48) 
4c - A0525/A/246

>  <CanonSites short tag>  (48) 
4 - A0525/A/246/1

>  <CrystalformSites short tag>  (48) 
F1z - A0525/A/246

>  <Quatassemblies short tag>  (48) 
A1 - monomer

>  <Crystalforms short tag>  (48) 
F1 - A71_2A_open

>  <Centroid res>  (48) 
A71EV2A-x0525/A/90/A_v1

>  <Experiment code>  (48) 
A71EV2A-x0229

>  <Pose>  (48) 
A0229a

$$$$
A0229b
     RDKit          3D

 13 13  0  0  0  0  0  0  0  0999 V2000
    6.4590   14.2200    6.5650 O   0  0  0  0  0  0  0  0  0  0  0  0
    6.6700   14.1140    5.1590 S   0  0  0  0  0  0  0  0  0  0  0  0
    7.7250   14.8390    4.5530 O   0  0  0  0  0  0  0  0  0  0  0  0
    5.1710   14.4140    4.2990 C   0  0  0  0  0  0  0  0  0  0  0  0
    7.1170   12.6180    4.7500 N   0  0  0  0  0  0  0  0  0  0  0  0
    7.5750   12.2790    3.4000 C   0  0  0  0  0  0  0  0  0  0  0  0
    7.3200   11.0110    2.9060 C   0  0  0  0  0  0  0  0  0  0  0  0
    7.8240   10.6270    1.6770 C   0  0  0  0  0  0  0  0  0  0  0  0
    8.6000   11.4800    0.9220 C   0  0  0  0  0  0  0  0  0  0  0  0
    9.4810   10.9580   -0.1880 C   0  0  0  0  0  0  0  0  0  0  0  0
    8.7320   10.1440   -1.1590 N   0  0  0  0  0  0  0  0  0  0  0  0
    8.7790   12.7660    1.3650 C   0  0  0  0  0  0  0  0  0  0  0  0
    8.2920   13.1730    2.5840 C   0  0  0  0  0  0  0  0  0  0  0  0
  4  2  1  0
  3  2  2  0
  2  1  2  0
  5  2  1  0
  6  5  1  0
  6 13  2  0
 13 12  1  0
 12  9  2  0
 10  9  1  0
 11 10  1  0
  9  8  1  0
  8  7  2  0
  7  6  1  0
M  END
>  <id>  (49) 
49

>  <inchikey>  (49) 
IZJVPNBRAKIMBK-UHFFFAOYSA-N

>  <alias>  (49) 
A0229b

>  <smiles>  (49) 
CS(=O)(=O)Nc1ccc(CN)cc1

>  <path>  (49) 
/opt/xchem-fragalysis-2/maxwin/BulkDock/TARGETS/A71EV2A/aligned_files/A0229b/A0229b.pdb

>  <distance_score>  (49) 
None

>  <energy_score>  (49) 
None

>  <compound>  (49) 
IZJVPNBRAKIMBK-UHFFFAOYSA-N

>  <compound_id>  (49) 
40

>  <target>  (49) 
A71EV2A

>  <tags>  (49) 
['[Other] Fragment Screen', 'GOOD count', 'MEDIOCRE count', 'hits', '[Other] upload_1 2024-12-06', 'Main status', '[Other] New', '[Other] upload_1 2025-02-12', 'BAD count']

>  <inspirations>  (49) 
None

>  <subsites>  (49) 
None

>  <reference>  (49) 


>  <observation_longname>  (49) 
A71EV2A-x0229_A_201_v1

>  <ConformerSites alias>  (49) 
3a - A0541/A/147

>  <CanonSites alias>  (49) 
3 - A0541/A/147/1

>  <CrystalformSites alias>  (49) 
F1x - A0541/A/147

>  <Quatassemblies alias>  (49) 
A1 - monomer

>  <Crystalforms alias>  (49) 
F1 - A71_2A_open

>  <ConformerSites upload name>  (49) 
3a - A71EV2A-x0541/A/147

>  <CanonSites upload name>  (49) 
3 - A71EV2A-x0541/A/147/1

>  <CrystalformSites upload name>  (49) 
F1x - A71EV2A-x0541/A/147/1

>  <Quatassemblies upload name>  (49) 
A1 - monomer

>  <Crystalforms upload name>  (49) 
F1 - A71_2A_open

>  <ConformerSites short tag>  (49) 
3a - A0541/A/147

>  <CanonSites short tag>  (49) 
3 - A0541/A/147/1

>  <CrystalformSites short tag>  (49) 
F1x - A0541/A/147

>  <Quatassemblies short tag>  (49) 
A1 - monomer

>  <Crystalforms short tag>  (49) 
F1 - A71_2A_open

>  <Centroid res>  (49) 
A71EV2A-x0541/A/97/A_v1

>  <Experiment code>  (49) 
A71EV2A-x0229

>  <Pose>  (49) 
A0229b

$$$$
A0237a
     RDKit          3D

 15 16  0  0  0  0  0  0  0  0999 V2000
    6.7120   12.7210   29.0980 O   0  0  0  0  0  0  0  0  0  0  0  0
    6.0670   11.7720   28.6550 C   0  0  0  0  0  0  0  0  0  0  0  0
    6.1020   10.4100   29.2970 C   0  0  0  0  0  0  0  0  0  0  0  0
    6.9920   10.2450   30.5280 C   0  0  0  0  0  0  0  0  0  0  0  0
    5.7240   10.0130   31.3880 C   0  0  0  0  0  0  0  0  0  0  0  0
    4.8660    9.9730   30.0970 C   0  0  0  0  0  0  0  0  0  0  0  0
    5.3130   11.8700   27.5640 N   0  0  0  0  0  0  0  0  0  0  0  0
    5.8310   12.3940   26.3140 C   0  0  0  0  0  0  0  0  0  0  0  0
    6.8900   11.5260   25.6770 C   0  0  0  0  0  0  0  0  0  0  0  0
    8.0380   12.0810   25.1500 C   0  0  0  0  0  0  0  0  0  0  0  0
    8.9000   11.3140   24.3960 C   0  0  0  0  0  0  0  0  0  0  0  0
    6.6870   10.1770   25.4450 C   0  0  0  0  0  0  0  0  0  0  0  0
    7.4970    9.4100   24.6940 N   0  0  0  0  0  0  0  0  0  0  0  0
    8.5970    9.9750   24.1630 C   0  0  0  0  0  0  0  0  0  0  0  0
    9.4770    9.1180   23.3050 C   0  0  0  0  0  0  0  0  0  0  0  0
 15 14  1  0
 14 11  1  0
 11 10  2  0
 10  9  1  0
  9  8  1  0
  8  7  1  0
  7  2  1  0
  2  1  2  0
  3  2  1  0
  3  6  1  0
  6  5  1  0
  5  4  1  0
  4  3  1  0
 12  9  2  0
 13 12  1  0
 14 13  2  0
M  END
>  <id>  (50) 
50

>  <inchikey>  (50) 
SQKAEGRLXBUQKF-UHFFFAOYSA-N

>  <alias>  (50) 
A0237a

>  <smiles>  (50) 
Cc1ccc(CNC(=O)C2CCC2)cn1

>  <path>  (50) 
/opt/xchem-fragalysis-2/maxwin/BulkDock/TARGETS/A71EV2A/aligned_files/A0237a/A0237a.pdb

>  <distance_score>  (50) 
None

>  <energy_score>  (50) 
None

>  <compound>  (50) 
SQKAEGRLXBUQKF-UHFFFAOYSA-N

>  <compound_id>  (50) 
41

>  <target>  (50) 
A71EV2A

>  <tags>  (50) 
['[Other] Fragment Screen', 'GOOD count', 'MEDIOCRE count', '[Other] S1 site', 'hits', '[Other] Active site fragment', '[Other] upload_1 2024-12-06', 'Main status', '[Other] New', '[Other] upload_1 2025-02-12', 'BAD count']

>  <inspirations>  (50) 
None

>  <subsites>  (50) 
None

>  <reference>  (50) 


>  <observation_longname>  (50) 
A71EV2A-x0237_A_151_v1

>  <ConformerSites alias>  (50) 
1b - A0911/A/147

>  <CanonSites alias>  (50) 
1 - Active Site

>  <CrystalformSites alias>  (50) 
F3c - A0487/A/250

>  <Quatassemblies alias>  (50) 
A1 - monomer

>  <Crystalforms alias>  (50) 
F3 - A71_2A_open_long_cell

>  <ConformerSites upload name>  (50) 
1b - A71EV2A-x0911/A/147

>  <CanonSites upload name>  (50) 
1 - A71EV2A-x0911/A/147/1

>  <CrystalformSites upload name>  (50) 
F3c - A71EV2A-x0487/A/250/1

>  <Quatassemblies upload name>  (50) 
A1 - monomer

>  <Crystalforms upload name>  (50) 
F3 - A71_2A_open_long_cell

>  <ConformerSites short tag>  (50) 
1b - A0911/A/147

>  <CanonSites short tag>  (50) 
1 - A0911/A/147/1

>  <CrystalformSites short tag>  (50) 
F3c - A0487/A/250

>  <Quatassemblies short tag>  (50) 
A1 - monomer

>  <Crystalforms short tag>  (50) 
F3 - A71_2A_open_long_cell

>  <Centroid res>  (50) 
A71EV2A-x0911/A/133/A_v1

>  <Experiment code>  (50) 
A71EV2A-x0237

>  <Pose>  (50) 
A0237a

$$$$
A0239a
     RDKit          3D

 15 16  0  0  0  0  0  0  0  0999 V2000
   19.9820   12.9770    2.5010 O   0  0  0  0  0  0  0  0  0  0  0  0
   19.9430   14.1570    2.5430 C   0  0  0  0  0  0  0  0  0  0  0  0
   18.6710   14.9180    2.2660 C   0  0  0  0  0  0  0  0  0  0  0  0
   18.6490   16.2620    2.6300 C   0  0  0  0  0  0  0  0  0  0  0  0
   21.0600   14.8590    2.7900 N   0  0  0  0  0  0  0  0  0  0  0  0
   22.2450   14.0810    3.0890 C   0  0  0  0  0  0  0  0  0  0  0  0
   22.8280   13.6390    1.7860 C   0  0  0  0  0  0  0  0  0  0  0  0
   23.8810   12.8320    1.5920 N   0  0  0  0  0  0  0  0  0  0  0  0
   23.8770   12.5710    0.3060 C   0  0  0  0  0  0  0  0  0  0  0  0
   22.9640   13.2240   -0.3220 N   0  0  0  0  0  0  0  0  0  0  0  0
   22.3030   13.9500    0.6200 N   0  0  0  0  0  0  0  0  0  0  0  0
   25.0100   12.4710    2.4390 C   0  0  0  0  0  0  0  0  0  0  0  0
   26.0680   11.7520    1.6890 C   0  0  0  0  0  0  0  0  0  0  0  0
   26.0620   12.1600    0.2840 C   0  0  0  0  0  0  0  0  0  0  0  0
   24.8560   11.6260   -0.2460 C   0  0  0  0  0  0  0  0  0  0  0  0
  4  3  1  0
  3  2  1  0
  2  1  2  0
  5  2  1  0
  6  5  1  0
  7  6  1  0
  7 11  2  0
 11 10  1  0
 10  9  2  0
  9 15  1  0
 15 14  1  0
 14 13  1  0
 13 12  1  0
 12  8  1  0
  8  7  1  0
  9  8  1  0
M  END
>  <id>  (51) 
51

>  <inchikey>  (51) 
IOOTXFHTMOUUHM-UHFFFAOYSA-N

>  <alias>  (51) 
A0239a

>  <smiles>  (51) 
CCC(=O)NCc1nnc2n1CCCC2

>  <path>  (51) 
/opt/xchem-fragalysis-2/maxwin/BulkDock/TARGETS/A71EV2A/aligned_files/A0239a/A0239a.pdb

>  <distance_score>  (51) 
None

>  <energy_score>  (51) 
None

>  <compound>  (51) 
IOOTXFHTMOUUHM-UHFFFAOYSA-N

>  <compound_id>  (51) 
42

>  <target>  (51) 
A71EV2A

>  <tags>  (51) 
['[Other] Fragment Screen', 'GOOD count', 'MEDIOCRE count', 'hits', '[Other] upload_1 2024-12-06', 'Main status', '[Other] New', '[Other] upload_1 2025-02-12', 'BAD count']

>  <inspirations>  (51) 
None

>  <subsites>  (51) 
None

>  <reference>  (51) 


>  <observation_longname>  (51) 
A71EV2A-x0239_A_147_v1

>  <ConformerSites alias>  (51) 
6a - A0486/A/147

>  <CanonSites alias>  (51) 
6 - A0486/A/147/1

>  <CrystalformSites alias>  (51) 
F1ac - A0486/A/147

>  <Quatassemblies alias>  (51) 
A1 - monomer

>  <Crystalforms alias>  (51) 
F1 - A71_2A_open

>  <ConformerSites upload name>  (51) 
6a - A71EV2A-x0486/A/147

>  <CanonSites upload name>  (51) 
6 - A71EV2A-x0486/A/147/1

>  <CrystalformSites upload name>  (51) 
F1ac - A71EV2A-x0486/A/147/1

>  <Quatassemblies upload name>  (51) 
A1 - monomer

>  <Crystalforms upload name>  (51) 
F1 - A71_2A_open

>  <ConformerSites short tag>  (51) 
6a - A0486/A/147

>  <CanonSites short tag>  (51) 
6 - A0486/A/147/1

>  <CrystalformSites short tag>  (51) 
F1ac - A0486/A/147

>  <Quatassemblies short tag>  (51) 
A1 - monomer

>  <Crystalforms short tag>  (51) 
F1 - A71_2A_open

>  <Centroid res>  (51) 
A71EV2A-x0486/A/143/A_v1

>  <Experiment code>  (51) 
A71EV2A-x0239

>  <Pose>  (51) 
A0239a

$$$$
A0332a
     RDKit          3D

 12 12  0  0  0  0  0  0  0  0999 V2000
    7.6260   11.3270    3.1490 Cl  0  0  0  0  0  0  0  0  0  0  0  0
    8.1640   12.9690    2.8600 C   0  0  0  0  0  0  0  0  0  0  0  0
    8.9960   13.2090    1.7880 C   0  0  0  0  0  0  0  0  0  0  0  0
    9.4930   14.4740    1.5820 C   0  0  0  0  0  0  0  0  0  0  0  0
    9.1530   15.4970    2.4240 C   0  0  0  0  0  0  0  0  0  0  0  0
    8.3220   15.2750    3.4890 C   0  0  0  0  0  0  0  0  0  0  0  0
    7.8260   14.0070    3.7190 C   0  0  0  0  0  0  0  0  0  0  0  0
    6.8230   13.7850    5.1260 S   0  0  0  0  0  0  0  0  0  0  0  0
    5.5120   14.0980    4.6530 O   0  0  0  0  0  0  0  0  0  0  0  0
    7.1040   12.4650    5.5770 O   0  0  0  0  0  0  0  0  0  0  0  0
    7.1660   14.8550    6.2280 N   0  0  0  0  0  0  0  0  0  0  0  0
    6.2060   15.1480    7.2840 C   0  0  0  0  0  0  0  0  0  0  0  0
 12 11  1  0
 11  8  1  0
  9  8  2  0
 10  8  2  0
  8  7  1  0
  7  6  2  0
  6  5  1  0
  5  4  2  0
  4  3  1  0
  3  2  2  0
  7  2  1  0
  2  1  1  0
M  END
>  <id>  (52) 
52

>  <inchikey>  (52) 
OSFAUZAAZLLTSW-UHFFFAOYSA-N

>  <alias>  (52) 
A0332a

>  <smiles>  (52) 
CNS(=O)(=O)c1ccccc1Cl

>  <path>  (52) 
/opt/xchem-fragalysis-2/maxwin/BulkDock/TARGETS/A71EV2A/aligned_files/A0332a/A0332a.pdb

>  <distance_score>  (52) 
None

>  <energy_score>  (52) 
None

>  <compound>  (52) 
OSFAUZAAZLLTSW-UHFFFAOYSA-N

>  <compound_id>  (52) 
43

>  <target>  (52) 
A71EV2A

>  <tags>  (52) 
['[Other] Fragment Screen', 'GOOD count', 'MEDIOCRE count', 'hits', '[Other] upload_1 2024-12-06', 'Main status', '[Other] New', '[Other] upload_1 2025-02-12', 'BAD count']

>  <inspirations>  (52) 
None

>  <subsites>  (52) 
None

>  <reference>  (52) 


>  <observation_longname>  (52) 
A71EV2A-x0332_A_147_v1

>  <ConformerSites alias>  (52) 
3a - A0541/A/147

>  <CanonSites alias>  (52) 
3 - A0541/A/147/1

>  <CrystalformSites alias>  (52) 
F1x - A0541/A/147

>  <Quatassemblies alias>  (52) 
A1 - monomer

>  <Crystalforms alias>  (52) 
F1 - A71_2A_open

>  <ConformerSites upload name>  (52) 
3a - A71EV2A-x0541/A/147

>  <CanonSites upload name>  (52) 
3 - A71EV2A-x0541/A/147/1

>  <CrystalformSites upload name>  (52) 
F1x - A71EV2A-x0541/A/147/1

>  <Quatassemblies upload name>  (52) 
A1 - monomer

>  <Crystalforms upload name>  (52) 
F1 - A71_2A_open

>  <ConformerSites short tag>  (52) 
3a - A0541/A/147

>  <CanonSites short tag>  (52) 
3 - A0541/A/147/1

>  <CrystalformSites short tag>  (52) 
F1x - A0541/A/147

>  <Quatassemblies short tag>  (52) 
A1 - monomer

>  <Crystalforms short tag>  (52) 
F1 - A71_2A_open

>  <Centroid res>  (52) 
A71EV2A-x0541/A/97/A_v1

>  <Experiment code>  (52) 
A71EV2A-x0332

>  <Pose>  (52) 
A0332a

$$$$
A0333a
     RDKit          3D

 13 13  0  0  0  0  0  0  0  0999 V2000
   20.5330   20.1920   19.8180 O   0  0  0  0  0  0  0  0  0  0  0  0
   20.4550   21.5730   19.4470 S   0  0  0  0  0  0  0  0  0  0  0  0
   20.8110   21.9460   18.1150 O   0  0  0  0  0  0  0  0  0  0  0  0
   18.8240   22.1220   19.7610 C   0  0  0  0  0  0  0  0  0  0  0  0
   21.4310   22.3840   20.4430 N   0  0  0  0  0  0  0  0  0  0  0  0
   22.8600   22.1270   20.3920 C   0  0  0  0  0  0  0  0  0  0  0  0
   23.2830   21.2250   21.5120 C   0  0  0  0  0  0  0  0  0  0  0  0
   24.7850   21.1730   21.5760 C   0  0  0  0  0  0  0  0  0  0  0  0
   25.4780   21.8260   22.5820 C   0  0  0  0  0  0  0  0  0  0  0  0
   26.8600   21.9110   22.5470 C   0  0  0  0  0  0  0  0  0  0  0  0
   27.5640   21.3370   21.5090 C   0  0  0  0  0  0  0  0  0  0  0  0
   26.8890   20.6620   20.5210 C   0  0  0  0  0  0  0  0  0  0  0  0
   25.5080   20.5770   20.5570 C   0  0  0  0  0  0  0  0  0  0  0  0
  4  2  1  0
  3  2  2  0
  2  1  2  0
  5  2  1  0
  6  5  1  0
  7  6  1  0
  8  7  1  0
  8 13  2  0
 13 12  1  0
 12 11  2  0
 11 10  1  0
 10  9  2  0
  9  8  1  0
M  END
>  <id>  (53) 
53

>  <inchikey>  (53) 
JGDDFCYMSLNOGJ-UHFFFAOYSA-N

>  <alias>  (53) 
A0333a

>  <smiles>  (53) 
CS(=O)(=O)NCCc1ccccc1

>  <path>  (53) 
/opt/xchem-fragalysis-2/maxwin/BulkDock/TARGETS/A71EV2A/aligned_files/A0333a/A0333a.pdb

>  <distance_score>  (53) 
None

>  <energy_score>  (53) 
None

>  <compound>  (53) 
JGDDFCYMSLNOGJ-UHFFFAOYSA-N

>  <compound_id>  (53) 
44

>  <target>  (53) 
A71EV2A

>  <tags>  (53) 
['[Other] Fragment Screen', 'GOOD count', 'MEDIOCRE count', 'hits', '[Other] upload_1 2024-12-06', 'Main status', '[Other] New', '[Other] upload_1 2025-02-12', 'BAD count']

>  <inspirations>  (53) 
None

>  <subsites>  (53) 
None

>  <reference>  (53) 


>  <observation_longname>  (53) 
A71EV2A-x0333_A_201_v1

>  <ConformerSites alias>  (53) 
5a - A3181/A/202

>  <CanonSites alias>  (53) 
5 - A3181/A/202/1

>  <CrystalformSites alias>  (53) 
F2aa - A0528/A/201

>  <Quatassemblies alias>  (53) 
A1 - monomer

>  <Crystalforms alias>  (53) 
F2 - A71_2A_open_small_cell

>  <ConformerSites upload name>  (53) 
5a - A71EV2A-x3181/A/202

>  <CanonSites upload name>  (53) 
5 - A71EV2A-x3181/A/202/1

>  <CrystalformSites upload name>  (53) 
F2aa - A71EV2A-x0528/A/201/1

>  <Quatassemblies upload name>  (53) 
A1 - monomer

>  <Crystalforms upload name>  (53) 
F2 - A71_2A_open_small_cell

>  <ConformerSites short tag>  (53) 
5a - A3181/A/202

>  <CanonSites short tag>  (53) 
5 - A3181/A/202/1

>  <CrystalformSites short tag>  (53) 
F2aa - A0528/A/201

>  <Quatassemblies short tag>  (53) 
A1 - monomer

>  <Crystalforms short tag>  (53) 
F2 - A71_2A_open_small_cell

>  <Centroid res>  (53) 
A71EV2A-x3181/A/20/A_v1

>  <Experiment code>  (53) 
A71EV2A-x0333

>  <Pose>  (53) 
A0333a

$$$$
A0341a
     RDKit          3D

 13 14  0  0  0  0  0  0  0  0999 V2000
   16.4100   -4.4650   21.4330 O   0  0  0  0  0  0  0  0  0  0  0  0
   17.2190   -3.9090   20.6390 C   0  0  0  0  0  0  0  0  0  0  0  0
   18.4560   -3.1400   20.9260 C   0  0  0  0  0  0  0  0  0  0  0  0
   18.9180   -2.7710   19.5660 C   0  0  0  0  0  0  0  0  0  0  0  0
   20.1560   -1.9740   19.3110 C   0  0  0  0  0  0  0  0  0  0  0  0
   17.0540   -3.9350   19.2240 N   0  0  0  0  0  0  0  0  0  0  0  0
   18.1180   -3.2280   18.6560 N   0  0  0  0  0  0  0  0  0  0  0  0
   15.9850   -4.5720   18.5340 C   0  0  0  0  0  0  0  0  0  0  0  0
   14.9970   -3.8220   17.9100 C   0  0  0  0  0  0  0  0  0  0  0  0
   13.9420   -4.3930   17.2340 C   0  0  0  0  0  0  0  0  0  0  0  0
   13.8540   -5.7700   17.1680 C   0  0  0  0  0  0  0  0  0  0  0  0
   14.8310   -6.5260   17.7870 C   0  0  0  0  0  0  0  0  0  0  0  0
   15.8930   -5.9430   18.4660 C   0  0  0  0  0  0  0  0  0  0  0  0
  5  4  1  0
  4  7  2  0
  7  6  1  0
  6  2  1  0
  2  1  2  0
  3  2  1  0
  4  3  1  0
  8  6  1  0
  8 13  2  0
 13 12  1  0
 12 11  2  0
 11 10  1  0
 10  9  2  0
  9  8  1  0
M  END
>  <id>  (54) 
54

>  <inchikey>  (54) 
QELUYTUMUWHWMC-UHFFFAOYSA-N

>  <alias>  (54) 
A0341a

>  <smiles>  (54) 
CC1=NN(c2ccccc2)C(=O)C1

>  <path>  (54) 
/opt/xchem-fragalysis-2/maxwin/BulkDock/TARGETS/A71EV2A/aligned_files/A0341a/A0341a.pdb

>  <distance_score>  (54) 
None

>  <energy_score>  (54) 
None

>  <compound>  (54) 
QELUYTUMUWHWMC-UHFFFAOYSA-N

>  <compound_id>  (54) 
45

>  <target>  (54) 
A71EV2A

>  <tags>  (54) 
['[Other] Fragment Screen', 'GOOD count', 'MEDIOCRE count', 'hits', '[Other] upload_1 2024-12-06', 'Main status', '[Other] New', '[Other] upload_1 2025-02-12', 'BAD count']

>  <inspirations>  (54) 
None

>  <subsites>  (54) 
None

>  <reference>  (54) 


>  <observation_longname>  (54) 
A71EV2A-x0341_A_147_v1

>  <ConformerSites alias>  (54) 
2a - A3977/A/202

>  <CanonSites alias>  (54) 
2 - A3977/A/202/1

>  <CrystalformSites alias>  (54) 
F1s - A0152/A/201

>  <Quatassemblies alias>  (54) 
A1 - monomer

>  <Crystalforms alias>  (54) 
F1 - A71_2A_open

>  <ConformerSites upload name>  (54) 
2a - A71EV2A-x3977/A/202

>  <CanonSites upload name>  (54) 
2 - A71EV2A-x3977/A/202/1

>  <CrystalformSites upload name>  (54) 
F1s - A71EV2A-x0152/A/201/1

>  <Quatassemblies upload name>  (54) 
A1 - monomer

>  <Crystalforms upload name>  (54) 
F1 - A71_2A_open

>  <ConformerSites short tag>  (54) 
2a - A3977/A/202

>  <CanonSites short tag>  (54) 
2 - A3977/A/202/1

>  <CrystalformSites short tag>  (54) 
F1s - A0152/A/201

>  <Quatassemblies short tag>  (54) 
A1 - monomer

>  <Crystalforms short tag>  (54) 
F1 - A71_2A_open

>  <Centroid res>  (54) 
A71EV2A-x3977/A/113/A_v1

>  <Experiment code>  (54) 
A71EV2A-x0341

>  <Pose>  (54) 
A0341a

$$$$
A0351c
     RDKit          3D

 16 17  0  0  0  0  0  0  0  0999 V2000
   -2.4670   -6.5170   17.2920 O   0  0  0  0  0  0  0  0  0  0  0  0
   -2.3090   -6.4310   18.7120 S   0  0  0  0  0  0  0  0  0  0  0  0
   -2.6230   -5.2040   19.3800 O   0  0  0  0  0  0  0  0  0  0  0  0
   -3.2830   -7.7160   19.4580 C   0  0  0  0  0  0  0  0  0  0  0  0
   -3.2210   -9.0080   18.6760 C   0  0  0  0  0  0  0  0  0  0  0  0
   -0.7280   -6.7600   19.0310 N   0  0  0  0  0  0  0  0  0  0  0  0
    0.3550   -5.9120   18.5070 C   0  0  0  0  0  0  0  0  0  0  0  0
    0.8670   -6.3330   17.1490 C   0  0  0  0  0  0  0  0  0  0  0  0
    1.2370   -7.6550   16.9150 C   0  0  0  0  0  0  0  0  0  0  0  0
    1.7430   -7.9860   15.6770 C   0  0  0  0  0  0  0  0  0  0  0  0
    2.3140   -9.1700   15.2750 O   0  0  0  0  0  0  0  0  0  0  0  0
    2.3970   -9.0580   13.8560 C   0  0  0  0  0  0  0  0  0  0  0  0
    2.2740   -7.6710   13.5130 O   0  0  0  0  0  0  0  0  0  0  0  0
    1.8370   -7.0610   14.6660 C   0  0  0  0  0  0  0  0  0  0  0  0
    1.4790   -5.7460   14.8660 C   0  0  0  0  0  0  0  0  0  0  0  0
    1.0010   -5.3960   16.1190 C   0  0  0  0  0  0  0  0  0  0  0  0
  5  4  1  0
  4  2  1  0
  3  2  2  0
  2  1  2  0
  6  2  1  0
  7  6  1  0
  8  7  1  0
  8 16  2  0
 16 15  1  0
 15 14  2  0
 14 13  1  0
 13 12  1  0
 12 11  1  0
 11 10  1  0
 14 10  1  0
 10  9  2  0
  9  8  1  0
M  END
>  <id>  (55) 
55

>  <inchikey>  (55) 
UKPLBUIFSDRLEZ-UHFFFAOYSA-N

>  <alias>  (55) 
A0351c

>  <smiles>  (55) 
CCS(=O)(=O)NCc1ccc2c(c1)OCO2

>  <path>  (55) 
/opt/xchem-fragalysis-2/maxwin/BulkDock/TARGETS/A71EV2A/aligned_files/A0351c/A0351c.pdb

>  <distance_score>  (55) 
None

>  <energy_score>  (55) 
None

>  <compound>  (55) 
UKPLBUIFSDRLEZ-UHFFFAOYSA-N

>  <compound_id>  (55) 
46

>  <target>  (55) 
A71EV2A

>  <tags>  (55) 
['[Other] Fragment Screen', 'GOOD count', 'MEDIOCRE count', 'hits', '[Other] upload_1 2024-12-06', 'Main status', '[Other] New', '[Other] upload_1 2025-02-12', 'BAD count']

>  <inspirations>  (55) 
None

>  <subsites>  (55) 
None

>  <reference>  (55) 


>  <observation_longname>  (55) 
A71EV2A-x0351_A_201_v1

>  <ConformerSites alias>  (55) 
9a - A0432/A/147

>  <CanonSites alias>  (55) 
9 - A0432/A/147/1

>  <CrystalformSites alias>  (55) 
F2ag - A0351/A/201

>  <Quatassemblies alias>  (55) 
A1 - monomer

>  <Crystalforms alias>  (55) 
F2 - A71_2A_open_small_cell

>  <ConformerSites upload name>  (55) 
9a - A71EV2A-x0432/A/147

>  <CanonSites upload name>  (55) 
9 - A71EV2A-x0432/A/147/1

>  <CrystalformSites upload name>  (55) 
F2ag - A71EV2A-x0351/A/201/1

>  <Quatassemblies upload name>  (55) 
A1 - monomer

>  <Crystalforms upload name>  (55) 
F2 - A71_2A_open_small_cell

>  <ConformerSites short tag>  (55) 
9a - A0432/A/147

>  <CanonSites short tag>  (55) 
9 - A0432/A/147/1

>  <CrystalformSites short tag>  (55) 
F2ag - A0351/A/201

>  <Quatassemblies short tag>  (55) 
A1 - monomer

>  <Crystalforms short tag>  (55) 
F2 - A71_2A_open_small_cell

>  <Centroid res>  (55) 
A71EV2A-x0432/A/61/A_v1

>  <Experiment code>  (55) 
A71EV2A-x0351

>  <Pose>  (55) 
A0351c

$$$$
A0351a
     RDKit          3D

 16 17  0  0  0  0  0  0  0  0999 V2000
    8.6870   14.9890   28.3390 O   0  0  0  0  0  0  0  0  0  0  0  0
    7.6490   15.6850   27.6380 S   0  0  0  0  0  0  0  0  0  0  0  0
    7.6190   17.1170   27.6670 O   0  0  0  0  0  0  0  0  0  0  0  0
    6.0810   15.1190   28.2650 C   0  0  0  0  0  0  0  0  0  0  0  0
    4.9330   15.9920   27.8170 C   0  0  0  0  0  0  0  0  0  0  0  0
    7.7710   15.2460   26.0690 N   0  0  0  0  0  0  0  0  0  0  0  0
    6.8270   14.3670   25.3680 C   0  0  0  0  0  0  0  0  0  0  0  0
    7.4020   12.9880   25.1590 C   0  0  0  0  0  0  0  0  0  0  0  0
    8.5050   12.8050   24.3270 C   0  0  0  0  0  0  0  0  0  0  0  0
    8.8960   11.5200   24.0170 C   0  0  0  0  0  0  0  0  0  0  0  0
    9.9020   11.1090   23.1700 O   0  0  0  0  0  0  0  0  0  0  0  0
    9.9100    9.6810   23.2550 C   0  0  0  0  0  0  0  0  0  0  0  0
    8.7660    9.2740   24.0040 O   0  0  0  0  0  0  0  0  0  0  0  0
    8.2440   10.4330   24.5360 C   0  0  0  0  0  0  0  0  0  0  0  0
    7.1860   10.5850   25.4110 C   0  0  0  0  0  0  0  0  0  0  0  0
    6.7730   11.8730   25.7100 C   0  0  0  0  0  0  0  0  0  0  0  0
  5  4  1  0
  4  2  1  0
  3  2  2  0
  2  1  2  0
  6  2  1  0
  7  6  1  0
  8  7  1  0
  8 16  2  0
 16 15  1  0
 15 14  2  0
 14 13  1  0
 13 12  1  0
 12 11  1  0
 11 10  1  0
 14 10  1  0
 10  9  2  0
  9  8  1  0
M  END
>  <id>  (56) 
56

>  <inchikey>  (56) 
UKPLBUIFSDRLEZ-UHFFFAOYSA-N

>  <alias>  (56) 
A0351a

>  <smiles>  (56) 
CCS(=O)(=O)NCc1ccc2c(c1)OCO2

>  <path>  (56) 
/opt/xchem-fragalysis-2/maxwin/BulkDock/TARGETS/A71EV2A/aligned_files/A0351a/A0351a.pdb

>  <distance_score>  (56) 
None

>  <energy_score>  (56) 
None

>  <compound>  (56) 
UKPLBUIFSDRLEZ-UHFFFAOYSA-N

>  <compound_id>  (56) 
46

>  <target>  (56) 
A71EV2A

>  <tags>  (56) 
['[Other] Fragment Screen', 'GOOD count', 'MEDIOCRE count', '[Other] S1 site', 'hits', '[Other] Active site fragment', '[Other] upload_1 2024-12-06', 'Main status', '[Other] New', '[Other] upload_1 2025-02-12', 'BAD count']

>  <inspirations>  (56) 
None

>  <subsites>  (56) 
None

>  <reference>  (56) 


>  <observation_longname>  (56) 
A71EV2A-x0351_A_301_v1

>  <ConformerSites alias>  (56) 
1b - A0911/A/147

>  <CanonSites alias>  (56) 
1 - Active Site

>  <CrystalformSites alias>  (56) 
F2b - A0450/A/201

>  <Quatassemblies alias>  (56) 
A1 - monomer

>  <Crystalforms alias>  (56) 
F2 - A71_2A_open_small_cell

>  <ConformerSites upload name>  (56) 
1b - A71EV2A-x0911/A/147

>  <CanonSites upload name>  (56) 
1 - A71EV2A-x0911/A/147/1

>  <CrystalformSites upload name>  (56) 
F2b - A71EV2A-x0450/A/201/1

>  <Quatassemblies upload name>  (56) 
A1 - monomer

>  <Crystalforms upload name>  (56) 
F2 - A71_2A_open_small_cell

>  <ConformerSites short tag>  (56) 
1b - A0911/A/147

>  <CanonSites short tag>  (56) 
1 - A0911/A/147/1

>  <CrystalformSites short tag>  (56) 
F2b - A0450/A/201

>  <Quatassemblies short tag>  (56) 
A1 - monomer

>  <Crystalforms short tag>  (56) 
F2 - A71_2A_open_small_cell

>  <Centroid res>  (56) 
A71EV2A-x0911/A/133/A_v1

>  <Experiment code>  (56) 
A71EV2A-x0351

>  <Pose>  (56) 
A0351a

$$$$
A0351b
     RDKit          3D

 16 17  0  0  0  0  0  0  0  0999 V2000
   24.8980   18.4910   25.7100 O   0  0  0  0  0  0  0  0  0  0  0  0
   24.6300   17.2940   24.9680 S   0  0  0  0  0  0  0  0  0  0  0  0
   25.5120   16.1710   25.1030 O   0  0  0  0  0  0  0  0  0  0  0  0
   22.9750   16.7730   25.3650 C   0  0  0  0  0  0  0  0  0  0  0  0
   22.3380   15.9770   24.2520 C   0  0  0  0  0  0  0  0  0  0  0  0
   24.6410   17.7100   23.3820 N   0  0  0  0  0  0  0  0  0  0  0  0
   23.8950   18.8770   22.8910 C   0  0  0  0  0  0  0  0  0  0  0  0
   24.7560   19.9220   22.2230 C   0  0  0  0  0  0  0  0  0  0  0  0
   25.7740   19.5640   21.3380 C   0  0  0  0  0  0  0  0  0  0  0  0
   26.4910   20.5630   20.7140 C   0  0  0  0  0  0  0  0  0  0  0  0
   27.4860   20.4510   19.7660 O   0  0  0  0  0  0  0  0  0  0  0  0
   27.6570   21.7720   19.2580 C   0  0  0  0  0  0  0  0  0  0  0  0
   27.0690   22.6680   20.1970 O   0  0  0  0  0  0  0  0  0  0  0  0
   26.2380   21.8830   20.9630 C   0  0  0  0  0  0  0  0  0  0  0  0
   25.2550   22.2670   21.8480 C   0  0  0  0  0  0  0  0  0  0  0  0
   24.5130   21.2740   22.4650 C   0  0  0  0  0  0  0  0  0  0  0  0
  5  4  1  0
  4  2  1  0
  3  2  2  0
  2  1  2  0
  6  2  1  0
  7  6  1  0
  8  7  1  0
  8 16  2  0
 16 15  1  0
 15 14  2  0
 14 13  1  0
 13 12  1  0
 12 11  1  0
 11 10  1  0
 14 10  1  0
 10  9  2  0
  9  8  1  0
M  END
>  <id>  (57) 
57

>  <inchikey>  (57) 
UKPLBUIFSDRLEZ-UHFFFAOYSA-N

>  <alias>  (57) 
A0351b

>  <smiles>  (57) 
CCS(=O)(=O)NCc1ccc2c(c1)OCO2

>  <path>  (57) 
/opt/xchem-fragalysis-2/maxwin/BulkDock/TARGETS/A71EV2A/aligned_files/A0351b/A0351b.pdb

>  <distance_score>  (57) 
None

>  <energy_score>  (57) 
None

>  <compound>  (57) 
UKPLBUIFSDRLEZ-UHFFFAOYSA-N

>  <compound_id>  (57) 
46

>  <target>  (57) 
A71EV2A

>  <tags>  (57) 
['[Other] Fragment Screen', 'GOOD count', 'MEDIOCRE count', 'hits', '[Other] upload_1 2024-12-06', 'Main status', '[Other] New', '[Other] upload_1 2025-02-12', 'BAD count']

>  <inspirations>  (57) 
None

>  <subsites>  (57) 
None

>  <reference>  (57) 


>  <observation_longname>  (57) 
A71EV2A-x0351_A_302_v1

>  <ConformerSites alias>  (57) 
5a - A3181/A/202

>  <CanonSites alias>  (57) 
5 - A3181/A/202/1

>  <CrystalformSites alias>  (57) 
F2aa - A0528/A/201

>  <Quatassemblies alias>  (57) 
A1 - monomer

>  <Crystalforms alias>  (57) 
F2 - A71_2A_open_small_cell

>  <ConformerSites upload name>  (57) 
5a - A71EV2A-x3181/A/202

>  <CanonSites upload name>  (57) 
5 - A71EV2A-x3181/A/202/1

>  <CrystalformSites upload name>  (57) 
F2aa - A71EV2A-x0528/A/201/1

>  <Quatassemblies upload name>  (57) 
A1 - monomer

>  <Crystalforms upload name>  (57) 
F2 - A71_2A_open_small_cell

>  <ConformerSites short tag>  (57) 
5a - A3181/A/202

>  <CanonSites short tag>  (57) 
5 - A3181/A/202/1

>  <CrystalformSites short tag>  (57) 
F2aa - A0528/A/201

>  <Quatassemblies short tag>  (57) 
A1 - monomer

>  <Crystalforms short tag>  (57) 
F2 - A71_2A_open_small_cell

>  <Centroid res>  (57) 
A71EV2A-x3181/A/20/A_v1

>  <Experiment code>  (57) 
A71EV2A-x0351

>  <Pose>  (57) 
A0351b

$$$$
A0354a
     RDKit          3D

 14 15  0  0  0  0  0  0  0  0999 V2000
    2.9350   13.2850    2.5670 O   0  0  0  0  0  0  0  0  0  0  0  0
    3.3350   14.4230    2.4720 C   0  0  0  0  0  0  0  0  0  0  0  0
    2.3590   15.6440    2.6040 C   0  0  0  0  0  0  0  0  0  0  0  0
    2.8470   17.0120    2.1390 C   0  0  0  0  0  0  0  0  0  0  0  0
    2.7050   16.7420    3.6050 C   0  0  0  0  0  0  0  0  0  0  0  0
    4.6090   14.6790    2.2320 N   0  0  0  0  0  0  0  0  0  0  0  0
    5.7550   13.9380    2.7640 C   0  0  2  0  0  0  0  0  0  0  0  0
    6.4140   13.1850    1.6210 C   0  0  0  0  0  0  0  0  0  0  0  0
    5.5450   13.0160    3.9760 C   0  0  0  0  0  0  0  0  0  0  0  0
    7.0190   13.2160    4.9150 S   0  0  0  0  0  0  0  0  0  0  0  0
    6.6370   13.9090    6.0770 O   0  0  0  0  0  0  0  0  0  0  0  0
    7.7890   12.0310    4.9850 O   0  0  0  0  0  0  0  0  0  0  0  0
    7.7370   14.2650    3.9210 C   0  0  0  0  0  0  0  0  0  0  0  0
    6.6210   15.0640    3.2590 C   0  0  0  0  0  0  0  0  0  0  0  0
  7  8  1  6
  7 14  1  0
 14 13  1  0
 13 10  1  0
 11 10  2  0
 12 10  2  0
 10  9  1  0
  9  7  1  0
  7  6  1  0
  6  2  1  0
  2  1  2  0
  3  2  1  0
  3  5  1  0
  5  4  1  0
  4  3  1  0
M  END
>  <id>  (58) 
58

>  <inchikey>  (58) 
LMUYJJAKMZKBHS-VIFPVBQESA-N

>  <alias>  (58) 
A0354a

>  <smiles>  (58) 
C[C@]1(NC(=O)C2CC2)CCS(=O)(=O)C1

>  <path>  (58) 
/opt/xchem-fragalysis-2/maxwin/BulkDock/TARGETS/A71EV2A/aligned_files/A0354a/A0354a.pdb

>  <distance_score>  (58) 
None

>  <energy_score>  (58) 
None

>  <compound>  (58) 
LMUYJJAKMZKBHS-UHFFFAOYSA-N

>  <compound_id>  (58) 
47

>  <target>  (58) 
A71EV2A

>  <tags>  (58) 
['[Other] Fragment Screen', 'GOOD count', 'MEDIOCRE count', 'hits', '[Other] upload_1 2024-12-06', 'Main status', '[Other] New', '[Other] upload_1 2025-02-12', 'BAD count']

>  <inspirations>  (58) 
None

>  <subsites>  (58) 
None

>  <reference>  (58) 


>  <observation_longname>  (58) 
A71EV2A-x0354_A_147_v1

>  <ConformerSites alias>  (58) 
3a - A0541/A/147

>  <CanonSites alias>  (58) 
3 - A0541/A/147/1

>  <CrystalformSites alias>  (58) 
F1x - A0541/A/147

>  <Quatassemblies alias>  (58) 
A1 - monomer

>  <Crystalforms alias>  (58) 
F1 - A71_2A_open

>  <ConformerSites upload name>  (58) 
3a - A71EV2A-x0541/A/147

>  <CanonSites upload name>  (58) 
3 - A71EV2A-x0541/A/147/1

>  <CrystalformSites upload name>  (58) 
F1x - A71EV2A-x0541/A/147/1

>  <Quatassemblies upload name>  (58) 
A1 - monomer

>  <Crystalforms upload name>  (58) 
F1 - A71_2A_open

>  <ConformerSites short tag>  (58) 
3a - A0541/A/147

>  <CanonSites short tag>  (58) 
3 - A0541/A/147/1

>  <CrystalformSites short tag>  (58) 
F1x - A0541/A/147

>  <Quatassemblies short tag>  (58) 
A1 - monomer

>  <Crystalforms short tag>  (58) 
F1 - A71_2A_open

>  <Centroid res>  (58) 
A71EV2A-x0541/A/97/A_v1

>  <Experiment code>  (58) 
A71EV2A-x0354

>  <Pose>  (58) 
A0354a

$$$$
A0359a
     RDKit          3D

 12 12  0  0  0  0  0  0  0  0999 V2000
   14.6750   22.7500   23.3190 N   0  0  0  0  0  0  0  0  0  0  0  0
   13.7660   22.5520   23.9360 C   0  0  0  0  0  0  0  0  0  0  0  0
   12.5680   22.3560   24.6680 C   0  0  0  0  0  0  0  0  0  0  0  0
   12.3690   21.2810   25.4800 C   0  0  0  0  0  0  0  0  0  0  0  0
   11.1370   21.1120   26.0990 C   0  0  0  0  0  0  0  0  0  0  0  0
   11.5460   23.2490   24.4860 C   0  0  0  0  0  0  0  0  0  0  0  0
   10.3460   23.1310   25.1460 C   0  0  0  0  0  0  0  0  0  0  0  0
   10.1170   22.0550   25.9680 C   0  0  0  0  0  0  0  0  0  0  0  0
    8.8540   21.9600   26.7800 C   0  0  0  0  0  0  0  0  0  0  0  0
    9.0460   22.3240   28.2110 N   0  0  0  0  0  0  0  0  0  0  0  0
    8.7490   23.7340   28.4180 C   0  0  0  0  0  0  0  0  0  0  0  0
   10.3810   22.0640   28.6450 C   0  0  0  0  0  0  0  0  0  0  0  0
 12 10  1  0
 11 10  1  0
 10  9  1  0
  9  8  1  0
  8  5  2  0
  5  4  1  0
  4  3  2  0
  3  2  1  0
  2  1  3  0
  6  3  1  0
  7  6  2  0
  8  7  1  0
M  END
>  <id>  (59) 
59

>  <inchikey>  (59) 
QCSOEUMGZOKXPJ-UHFFFAOYSA-N

>  <alias>  (59) 
A0359a

>  <smiles>  (59) 
CN(C)Cc1ccc(C#N)cc1

>  <path>  (59) 
/opt/xchem-fragalysis-2/maxwin/BulkDock/TARGETS/A71EV2A/aligned_files/A0359a/A0359a.pdb

>  <distance_score>  (59) 
None

>  <energy_score>  (59) 
None

>  <compound>  (59) 
QCSOEUMGZOKXPJ-UHFFFAOYSA-N

>  <compound_id>  (59) 
48

>  <target>  (59) 
A71EV2A

>  <tags>  (59) 
['[Other] Fragment Screen', 'GOOD count', 'MEDIOCRE count', 'hits', '[Other] upload_1 2024-12-06', 'Main status', '[Other] New', '[Other] upload_1 2025-02-12', 'BAD count']

>  <inspirations>  (59) 
None

>  <subsites>  (59) 
None

>  <reference>  (59) 


>  <observation_longname>  (59) 
A71EV2A-x0359_A_147_v1

>  <ConformerSites alias>  (59) 
4a - A0359/A/147

>  <CanonSites alias>  (59) 
4 - A0525/A/246/1

>  <CrystalformSites alias>  (59) 
F1z - A0525/A/246

>  <Quatassemblies alias>  (59) 
A1 - monomer

>  <Crystalforms alias>  (59) 
F1 - A71_2A_open

>  <ConformerSites upload name>  (59) 
4a - A71EV2A-x0359/A/147

>  <CanonSites upload name>  (59) 
4 - A71EV2A-x0525/A/246/1

>  <CrystalformSites upload name>  (59) 
F1z - A71EV2A-x0525/A/246/1

>  <Quatassemblies upload name>  (59) 
A1 - monomer

>  <Crystalforms upload name>  (59) 
F1 - A71_2A_open

>  <ConformerSites short tag>  (59) 
4a - A0359/A/147

>  <CanonSites short tag>  (59) 
4 - A0525/A/246/1

>  <CrystalformSites short tag>  (59) 
F1z - A0525/A/246

>  <Quatassemblies short tag>  (59) 
A1 - monomer

>  <Crystalforms short tag>  (59) 
F1 - A71_2A_open

>  <Centroid res>  (59) 
A71EV2A-x0525/A/90/A_v1

>  <Experiment code>  (59) 
A71EV2A-x0359

>  <Pose>  (59) 
A0359a

$$$$
A0365a
     RDKit          3D

 14 15  0  0  0  0  0  0  0  0999 V2000
    9.6240    8.8680   22.9410 C   0  0  0  0  0  0  0  0  0  0  0  0
    8.8410    9.6040   23.9210 N   0  0  0  0  0  0  0  0  0  0  0  0
    7.8610    8.9680   24.5800 N   0  0  0  0  0  0  0  0  0  0  0  0
    7.2800    9.9620   25.2950 C   0  0  0  0  0  0  0  0  0  0  0  0
    7.9230   11.2500   25.0910 C   0  0  0  0  0  0  0  0  0  0  0  0
    8.9310   10.9710   24.2270 C   0  0  0  0  0  0  0  0  0  0  0  0
    6.2290    9.7980   26.1090 N   0  0  0  0  0  0  0  0  0  0  0  0
    5.6040   10.9370   26.7530 C   0  0  0  0  0  0  0  0  0  0  0  0
    6.2580   11.1970   28.0840 C   0  0  0  0  0  0  0  0  0  0  0  0
    6.9330   12.3850   28.3520 C   0  0  0  0  0  0  0  0  0  0  0  0
    7.5530   12.5900   29.5760 C   0  0  0  0  0  0  0  0  0  0  0  0
    7.5260   11.6000   30.5390 C   0  0  0  0  0  0  0  0  0  0  0  0
    6.8530   10.4100   30.2840 C   0  0  0  0  0  0  0  0  0  0  0  0
    6.2220   10.2150   29.0640 C   0  0  0  0  0  0  0  0  0  0  0  0
  2  1  1  0
  2  6  1  0
  6  5  2  0
  5  4  1  0
  7  4  1  0
  8  7  1  0
  9  8  1  0
  9 14  2  0
 14 13  1  0
 13 12  2  0
 12 11  1  0
 11 10  2  0
 10  9  1  0
  4  3  2  0
  3  2  1  0
M  END
>  <id>  (60) 
60

>  <inchikey>  (60) 
SNURKZHBZPONJX-UHFFFAOYSA-N

>  <alias>  (60) 
A0365a

>  <smiles>  (60) 
Cn1ccc(NCc2ccccc2)n1

>  <path>  (60) 
/opt/xchem-fragalysis-2/maxwin/BulkDock/TARGETS/A71EV2A/aligned_files/A0365a/A0365a.pdb

>  <distance_score>  (60) 
None

>  <energy_score>  (60) 
None

>  <compound>  (60) 
SNURKZHBZPONJX-UHFFFAOYSA-N

>  <compound_id>  (60) 
49

>  <target>  (60) 
A71EV2A

>  <tags>  (60) 
['[Other] Fragment Screen', 'GOOD count', 'MEDIOCRE count', '[Other] S1 site', 'hits', '[Other] Active site fragment', '[Other] upload_1 2024-12-06', 'Main status', '[Other] New', '[Other] upload_1 2025-02-12', 'BAD count']

>  <inspirations>  (60) 
None

>  <subsites>  (60) 
None

>  <reference>  (60) 


>  <observation_longname>  (60) 
A71EV2A-x0365_A_201_v1

>  <ConformerSites alias>  (60) 
1b - A0911/A/147

>  <CanonSites alias>  (60) 
1 - Active Site

>  <CrystalformSites alias>  (60) 
F2b - A0450/A/201

>  <Quatassemblies alias>  (60) 
A1 - monomer

>  <Crystalforms alias>  (60) 
F2 - A71_2A_open_small_cell

>  <ConformerSites upload name>  (60) 
1b - A71EV2A-x0911/A/147

>  <CanonSites upload name>  (60) 
1 - A71EV2A-x0911/A/147/1

>  <CrystalformSites upload name>  (60) 
F2b - A71EV2A-x0450/A/201/1

>  <Quatassemblies upload name>  (60) 
A1 - monomer

>  <Crystalforms upload name>  (60) 
F2 - A71_2A_open_small_cell

>  <ConformerSites short tag>  (60) 
1b - A0911/A/147

>  <CanonSites short tag>  (60) 
1 - A0911/A/147/1

>  <CrystalformSites short tag>  (60) 
F2b - A0450/A/201

>  <Quatassemblies short tag>  (60) 
A1 - monomer

>  <Crystalforms short tag>  (60) 
F2 - A71_2A_open_small_cell

>  <Centroid res>  (60) 
A71EV2A-x0911/A/133/A_v1

>  <Experiment code>  (60) 
A71EV2A-x0365

>  <Pose>  (60) 
A0365a

$$$$
A0375a
     RDKit          3D

 12 12  0  0  0  0  0  0  0  0999 V2000
    3.2370    7.0960   26.1170 S   0  0  0  0  0  0  0  0  0  0  0  0
    3.4350    8.1840   27.4040 C   0  0  0  0  0  0  0  0  0  0  0  0
    2.4110    8.7400   28.0280 N   0  0  0  0  0  0  0  0  0  0  0  0
    4.6700    8.5720   27.7740 N   0  0  0  0  0  0  0  0  0  0  0  0
    5.0860    9.5940   28.6670 C   0  0  0  0  0  0  0  0  0  0  0  0
    5.2100    9.2960   30.0400 C   0  0  0  0  0  0  0  0  0  0  0  0
    4.7410    8.0690   30.4070 O   0  0  0  0  0  0  0  0  0  0  0  0
    3.4870    8.0240   31.0850 C   0  0  0  0  0  0  0  0  0  0  0  0
    5.4450   10.8630   28.2180 C   0  0  0  0  0  0  0  0  0  0  0  0
    5.9550   11.7930   29.1080 C   0  0  0  0  0  0  0  0  0  0  0  0
    6.0960   11.4820   30.4450 C   0  0  0  0  0  0  0  0  0  0  0  0
    5.7200   10.2350   30.9210 C   0  0  0  0  0  0  0  0  0  0  0  0
  8  7  1  0
  7  6  1  0
  6 12  2  0
 12 11  1  0
 11 10  2  0
 10  9  1  0
  9  5  2  0
  6  5  1  0
  5  4  1  0
  4  2  1  0
  2  1  2  0
  3  2  1  0
M  END
>  <id>  (61) 
61

>  <inchikey>  (61) 
HXCHZMHFZXNFIX-UHFFFAOYSA-N

>  <alias>  (61) 
A0375a

>  <smiles>  (61) 
COc1ccccc1NC(N)=S

>  <path>  (61) 
/opt/xchem-fragalysis-2/maxwin/BulkDock/TARGETS/A71EV2A/aligned_files/A0375a/A0375a.pdb

>  <distance_score>  (61) 
None

>  <energy_score>  (61) 
None

>  <compound>  (61) 
HXCHZMHFZXNFIX-UHFFFAOYSA-N

>  <compound_id>  (61) 
50

>  <target>  (61) 
A71EV2A

>  <tags>  (61) 
['[Other] Fragment Screen', 'GOOD count', 'MEDIOCRE count', 'hits', '[Other] upload_1 2024-12-06', 'Main status', '[Other] New', '[Other] upload_1 2025-02-12', 'BAD count']

>  <inspirations>  (61) 
None

>  <subsites>  (61) 
None

>  <reference>  (61) 


>  <observation_longname>  (61) 
A71EV2A-x0375_A_201_v1

>  <ConformerSites alias>  (61) 
1b - A0911/A/147

>  <CanonSites alias>  (61) 
1 - Active Site

>  <CrystalformSites alias>  (61) 
F1a - A0375/A/201

>  <Quatassemblies alias>  (61) 
A1 - monomer

>  <Crystalforms alias>  (61) 
F1 - A71_2A_open

>  <ConformerSites upload name>  (61) 
1b - A71EV2A-x0911/A/147

>  <CanonSites upload name>  (61) 
1 - A71EV2A-x0911/A/147/1

>  <CrystalformSites upload name>  (61) 
F1a - A71EV2A-x0375/A/201/1

>  <Quatassemblies upload name>  (61) 
A1 - monomer

>  <Crystalforms upload name>  (61) 
F1 - A71_2A_open

>  <ConformerSites short tag>  (61) 
1b - A0911/A/147

>  <CanonSites short tag>  (61) 
1 - A0911/A/147/1

>  <CrystalformSites short tag>  (61) 
F1a - A0375/A/201

>  <Quatassemblies short tag>  (61) 
A1 - monomer

>  <Crystalforms short tag>  (61) 
F1 - A71_2A_open

>  <Centroid res>  (61) 
A71EV2A-x0911/A/133/A_v1

>  <Experiment code>  (61) 
A71EV2A-x0375

>  <Pose>  (61) 
A0375a

$$$$
A0375b
     RDKit          3D

 12 12  0  0  0  0  0  0  0  0999 V2000
   11.9100   12.7410   25.3030 S   0  0  0  0  0  0  0  0  0  0  0  0
   11.4960   13.2920   23.7630 C   0  0  0  0  0  0  0  0  0  0  0  0
   12.3720   13.8490   22.9560 N   0  0  0  0  0  0  0  0  0  0  0  0
   10.2390   13.1620   23.3100 N   0  0  0  0  0  0  0  0  0  0  0  0
    9.1360   12.6010   23.9950 C   0  0  0  0  0  0  0  0  0  0  0  0
    9.1190   11.2080   24.1760 C   0  0  0  0  0  0  0  0  0  0  0  0
   10.1610   10.5420   23.5920 O   0  0  0  0  0  0  0  0  0  0  0  0
    9.9220    9.2220   23.1100 C   0  0  0  0  0  0  0  0  0  0  0  0
    8.0970   13.3690   24.5170 C   0  0  0  0  0  0  0  0  0  0  0  0
    7.0680   12.7520   25.2080 C   0  0  0  0  0  0  0  0  0  0  0  0
    7.0630   11.3810   25.3840 C   0  0  0  0  0  0  0  0  0  0  0  0
    8.0940   10.6020   24.8830 C   0  0  0  0  0  0  0  0  0  0  0  0
  8  7  1  0
  7  6  1  0
  6 12  2  0
 12 11  1  0
 11 10  2  0
 10  9  1  0
  9  5  2  0
  6  5  1  0
  5  4  1  0
  4  2  1  0
  2  1  2  0
  3  2  1  0
M  END
>  <id>  (62) 
62

>  <inchikey>  (62) 
HXCHZMHFZXNFIX-UHFFFAOYSA-N

>  <alias>  (62) 
A0375b

>  <smiles>  (62) 
COc1ccccc1NC(N)=S

>  <path>  (62) 
/opt/xchem-fragalysis-2/maxwin/BulkDock/TARGETS/A71EV2A/aligned_files/A0375b/A0375b.pdb

>  <distance_score>  (62) 
None

>  <energy_score>  (62) 
None

>  <compound>  (62) 
HXCHZMHFZXNFIX-UHFFFAOYSA-N

>  <compound_id>  (62) 
50

>  <target>  (62) 
A71EV2A

>  <tags>  (62) 
['[Other] Fragment Screen', 'GOOD count', "[Other] S1' site", 'MEDIOCRE count', '[Other] S1 site', 'hits', '[Other] Active site fragment', '[Other] upload_1 2024-12-06', 'Main status', '[Other] New', '[Other] upload_1 2025-02-12', 'BAD count']

>  <inspirations>  (62) 
None

>  <subsites>  (62) 
None

>  <reference>  (62) 


>  <observation_longname>  (62) 
A71EV2A-x0375_A_301_v1

>  <ConformerSites alias>  (62) 
1b - A0911/A/147

>  <CanonSites alias>  (62) 
1 - Active Site

>  <CrystalformSites alias>  (62) 
F1a - A0375/A/201

>  <Quatassemblies alias>  (62) 
A1 - monomer

>  <Crystalforms alias>  (62) 
F1 - A71_2A_open

>  <ConformerSites upload name>  (62) 
1b - A71EV2A-x0911/A/147

>  <CanonSites upload name>  (62) 
1 - A71EV2A-x0911/A/147/1

>  <CrystalformSites upload name>  (62) 
F1a - A71EV2A-x0375/A/201/1

>  <Quatassemblies upload name>  (62) 
A1 - monomer

>  <Crystalforms upload name>  (62) 
F1 - A71_2A_open

>  <ConformerSites short tag>  (62) 
1b - A0911/A/147

>  <CanonSites short tag>  (62) 
1 - A0911/A/147/1

>  <CrystalformSites short tag>  (62) 
F1a - A0375/A/201

>  <Quatassemblies short tag>  (62) 
A1 - monomer

>  <Crystalforms short tag>  (62) 
F1 - A71_2A_open

>  <Centroid res>  (62) 
A71EV2A-x0911/A/133/A_v1

>  <Experiment code>  (62) 
A71EV2A-x0375

>  <Pose>  (62) 
A0375a

$$$$
A0375c
     RDKit          3D

 12 12  0  0  0  0  0  0  0  0999 V2000
   17.2880   -5.3120   11.5740 S   0  0  0  0  0  0  0  0  0  0  0  0
   16.7910   -6.9160   11.3780 C   0  0  0  0  0  0  0  0  0  0  0  0
   17.4980   -7.9560   11.8200 N   0  0  0  0  0  0  0  0  0  0  0  0
   15.6400   -7.1790   10.7440 N   0  0  0  0  0  0  0  0  0  0  0  0
   15.0870   -8.4430   10.4690 C   0  0  0  0  0  0  0  0  0  0  0  0
   13.8290   -8.7390   11.0050 C   0  0  0  0  0  0  0  0  0  0  0  0
   13.3360   -7.8000   11.8710 O   0  0  0  0  0  0  0  0  0  0  0  0
   11.9570   -7.8890   12.2360 C   0  0  0  0  0  0  0  0  0  0  0  0
   15.7030   -9.3630    9.6240 C   0  0  0  0  0  0  0  0  0  0  0  0
   15.0540  -10.5440    9.3010 C   0  0  0  0  0  0  0  0  0  0  0  0
   13.8020  -10.8130    9.8100 C   0  0  0  0  0  0  0  0  0  0  0  0
   13.1850   -9.9170   10.6690 C   0  0  0  0  0  0  0  0  0  0  0  0
  8  7  1  0
  7  6  1  0
  6 12  2  0
 12 11  1  0
 11 10  2  0
 10  9  1  0
  9  5  2  0
  6  5  1  0
  5  4  1  0
  4  2  1  0
  2  1  2  0
  3  2  1  0
M  END
>  <id>  (63) 
63

>  <inchikey>  (63) 
HXCHZMHFZXNFIX-UHFFFAOYSA-N

>  <alias>  (63) 
A0375c

>  <smiles>  (63) 
COc1ccccc1NC(N)=S

>  <path>  (63) 
/opt/xchem-fragalysis-2/maxwin/BulkDock/TARGETS/A71EV2A/aligned_files/A0375c/A0375c.pdb

>  <distance_score>  (63) 
None

>  <energy_score>  (63) 
None

>  <compound>  (63) 
HXCHZMHFZXNFIX-UHFFFAOYSA-N

>  <compound_id>  (63) 
50

>  <target>  (63) 
A71EV2A

>  <tags>  (63) 
['[Other] Fragment Screen', 'GOOD count', 'MEDIOCRE count', 'hits', '[Other] upload_1 2024-12-06', 'Main status', '[Other] New', '[Other] upload_1 2025-02-12', 'BAD count']

>  <inspirations>  (63) 
None

>  <subsites>  (63) 
None

>  <reference>  (63) 


>  <observation_longname>  (63) 
A71EV2A-x0375_A_147_v1

>  <ConformerSites alias>  (63) 
2a - A3977/A/202

>  <CanonSites alias>  (63) 
2 - A3977/A/202/1

>  <CrystalformSites alias>  (63) 
F1s - A0152/A/201

>  <Quatassemblies alias>  (63) 
A1 - monomer

>  <Crystalforms alias>  (63) 
F1 - A71_2A_open

>  <ConformerSites upload name>  (63) 
2a - A71EV2A-x3977/A/202

>  <CanonSites upload name>  (63) 
2 - A71EV2A-x3977/A/202/1

>  <CrystalformSites upload name>  (63) 
F1s - A71EV2A-x0152/A/201/1

>  <Quatassemblies upload name>  (63) 
A1 - monomer

>  <Crystalforms upload name>  (63) 
F1 - A71_2A_open

>  <ConformerSites short tag>  (63) 
2a - A3977/A/202

>  <CanonSites short tag>  (63) 
2 - A3977/A/202/1

>  <CrystalformSites short tag>  (63) 
F1s - A0152/A/201

>  <Quatassemblies short tag>  (63) 
A1 - monomer

>  <Crystalforms short tag>  (63) 
F1 - A71_2A_open

>  <Centroid res>  (63) 
A71EV2A-x3977/A/113/A_v1

>  <Experiment code>  (63) 
A71EV2A-x0375

>  <Pose>  (63) 
A0375c

$$$$
A0379a
     RDKit          3D

 13 13  0  0  0  0  0  0  0  0999 V2000
   12.6440   20.2900    5.6810 F   0  0  0  0  0  0  0  0  0  0  0  0
   12.2790   21.2350    6.5530 C   0  0  0  0  0  0  0  0  0  0  0  0
   11.1540   20.7970    7.1120 F   0  0  0  0  0  0  0  0  0  0  0  0
   11.9350   22.3020    5.8270 F   0  0  0  0  0  0  0  0  0  0  0  0
   13.3380   21.5410    7.5670 C   0  0  0  0  0  0  0  0  0  0  0  0
   13.0040   22.1110    8.7910 C   0  0  0  0  0  0  0  0  0  0  0  0
   13.9810   22.4270    9.7160 C   0  0  0  0  0  0  0  0  0  0  0  0
   14.6790   21.2880    7.3050 C   0  0  0  0  0  0  0  0  0  0  0  0
   15.6550   21.6160    8.2310 C   0  0  0  0  0  0  0  0  0  0  0  0
   15.3210   22.1980    9.4460 C   0  0  0  0  0  0  0  0  0  0  0  0
   16.3860   22.6580   10.4130 C   0  0  0  0  0  0  0  0  0  0  0  0
   17.4800   21.7010   10.5940 N   0  0  0  0  0  0  0  0  0  0  0  0
   18.5450   22.2560   11.4320 C   0  0  0  0  0  0  0  0  0  0  0  0
 13 12  1  0
 12 11  1  0
 11 10  1  0
 10  7  2  0
  7  6  1  0
  6  5  2  0
  8  5  1  0
  9  8  2  0
 10  9  1  0
  5  2  1  0
  3  2  1  0
  4  2  1  0
  2  1  1  0
M  END
>  <id>  (64) 
64

>  <inchikey>  (64) 
YMSMEZAYZIYFGA-UHFFFAOYSA-N

>  <alias>  (64) 
A0379a

>  <smiles>  (64) 
CNCc1ccc(C(F)(F)F)cc1

>  <path>  (64) 
/opt/xchem-fragalysis-2/maxwin/BulkDock/TARGETS/A71EV2A/aligned_files/A0379a/A0379a.pdb

>  <distance_score>  (64) 
None

>  <energy_score>  (64) 
None

>  <compound>  (64) 
YMSMEZAYZIYFGA-UHFFFAOYSA-N

>  <compound_id>  (64) 
51

>  <target>  (64) 
A71EV2A

>  <tags>  (64) 
['[Other] Fragment Screen', 'GOOD count', 'MEDIOCRE count', 'hits', '[Other] upload_1 2024-12-06', 'Main status', '[Other] New', '[Other] upload_1 2025-02-12', 'BAD count']

>  <inspirations>  (64) 
None

>  <subsites>  (64) 
None

>  <reference>  (64) 


>  <observation_longname>  (64) 
A71EV2A-x0379_A_147_v1

>  <ConformerSites alias>  (64) 
11a - A0379/A/147

>  <CanonSites alias>  (64) 
11 - A0379/A/147/1

>  <CrystalformSites alias>  (64) 
F1ai - A0379/A/147

>  <Quatassemblies alias>  (64) 
A1 - monomer

>  <Crystalforms alias>  (64) 
F1 - A71_2A_open

>  <ConformerSites upload name>  (64) 
11a - A71EV2A-x0379/A/147

>  <CanonSites upload name>  (64) 
11 - A71EV2A-x0379/A/147/1

>  <CrystalformSites upload name>  (64) 
F1ai - A71EV2A-x0379/A/147/1

>  <Quatassemblies upload name>  (64) 
A1 - monomer

>  <Crystalforms upload name>  (64) 
F1 - A71_2A_open

>  <ConformerSites short tag>  (64) 
11a - A0379/A/147

>  <CanonSites short tag>  (64) 
11 - A0379/A/147/1

>  <CrystalformSites short tag>  (64) 
F1ai - A0379/A/147

>  <Quatassemblies short tag>  (64) 
A1 - monomer

>  <Crystalforms short tag>  (64) 
F1 - A71_2A_open

>  <Centroid res>  (64) 
A71EV2A-x0379/A/38/A_v1

>  <Experiment code>  (64) 
A71EV2A-x0379

>  <Pose>  (64) 
A0379a

$$$$
A0387a
     RDKit          3D

 15 15  0  0  0  0  0  0  0  0999 V2000
    8.7790   14.4980   26.1390 O   0  0  0  0  0  0  0  0  0  0  0  0
    7.6530   14.5170   25.6580 C   0  0  0  0  0  0  0  0  0  0  0  0
    6.7870   15.7580   25.7630 C   0  0  0  0  0  0  0  0  0  0  0  0
    6.7250   16.2660   27.0880 O   0  0  0  0  0  0  0  0  0  0  0  0
    7.9850   16.5240   27.6890 C   0  0  0  0  0  0  0  0  0  0  0  0
    7.1230   13.4910   24.9700 N   0  0  0  0  0  0  0  0  0  0  0  0
    7.8350   12.2950   24.6610 C   0  0  0  0  0  0  0  0  0  0  0  0
    8.9280   12.3520   23.7870 C   0  0  0  0  0  0  0  0  0  0  0  0
    9.4530   13.6530   23.2300 C   0  0  0  0  0  0  0  0  0  0  0  0
    9.4860   11.1550   23.3540 C   0  0  0  0  0  0  0  0  0  0  0  0
    8.9850    9.9240   23.7410 C   0  0  0  0  0  0  0  0  0  0  0  0
    9.5500    8.6480   23.1680 C   0  0  0  0  0  0  0  0  0  0  0  0
    7.9160    9.9020   24.6270 C   0  0  0  0  0  0  0  0  0  0  0  0
    7.3340   11.0700   25.1160 C   0  0  0  0  0  0  0  0  0  0  0  0
    6.1880   10.9870   26.0910 C   0  0  0  0  0  0  0  0  0  0  0  0
  5  4  1  0
  4  3  1  0
  3  2  1  0
  2  1  2  0
  6  2  1  0
  7  6  1  0
  7 14  2  0
 15 14  1  0
 14 13  1  0
 13 11  2  0
 12 11  1  0
 11 10  1  0
 10  8  2  0
  8  7  1  0
  9  8  1  0
M  END
>  <id>  (65) 
65

>  <inchikey>  (65) 
XZMRSYKEMFCZKR-UHFFFAOYSA-N

>  <alias>  (65) 
A0387a

>  <smiles>  (65) 
COCC(=O)Nc1c(C)cc(C)cc1C

>  <path>  (65) 
/opt/xchem-fragalysis-2/maxwin/BulkDock/TARGETS/A71EV2A/aligned_files/A0387a/A0387a.pdb

>  <distance_score>  (65) 
None

>  <energy_score>  (65) 
None

>  <compound>  (65) 
XZMRSYKEMFCZKR-UHFFFAOYSA-N

>  <compound_id>  (65) 
52

>  <target>  (65) 
A71EV2A

>  <tags>  (65) 
['[Other] Fragment Screen', 'GOOD count', 'MEDIOCRE count', '[Other] S1 site', 'hits', '[Other] Active site fragment', '[Other] upload_1 2024-12-06', 'Main status', '[Other] New', '[Other] upload_1 2025-02-12', 'BAD count']

>  <inspirations>  (65) 
None

>  <subsites>  (65) 
None

>  <reference>  (65) 


>  <observation_longname>  (65) 
A71EV2A-x0387_A_151_v1

>  <ConformerSites alias>  (65) 
1b - A0911/A/147

>  <CanonSites alias>  (65) 
1 - Active Site

>  <CrystalformSites alias>  (65) 
F3c - A0487/A/250

>  <Quatassemblies alias>  (65) 
A1 - monomer

>  <Crystalforms alias>  (65) 
F3 - A71_2A_open_long_cell

>  <ConformerSites upload name>  (65) 
1b - A71EV2A-x0911/A/147

>  <CanonSites upload name>  (65) 
1 - A71EV2A-x0911/A/147/1

>  <CrystalformSites upload name>  (65) 
F3c - A71EV2A-x0487/A/250/1

>  <Quatassemblies upload name>  (65) 
A1 - monomer

>  <Crystalforms upload name>  (65) 
F3 - A71_2A_open_long_cell

>  <ConformerSites short tag>  (65) 
1b - A0911/A/147

>  <CanonSites short tag>  (65) 
1 - A0911/A/147/1

>  <CrystalformSites short tag>  (65) 
F3c - A0487/A/250

>  <Quatassemblies short tag>  (65) 
A1 - monomer

>  <Crystalforms short tag>  (65) 
F3 - A71_2A_open_long_cell

>  <Centroid res>  (65) 
A71EV2A-x0911/A/133/A_v1

>  <Experiment code>  (65) 
A71EV2A-x0387

>  <Pose>  (65) 
A0387a

$$$$
A0395a
     RDKit          3D

 16 16  0  0  0  0  0  0  0  0999 V2000
   10.3390   -9.3160   10.5310 O   0  0  0  0  0  0  0  0  0  0  0  0
    9.9570   -8.4670   11.3340 C   0  0  0  0  0  0  0  0  0  0  0  0
    8.7380   -7.8660   11.2650 N   0  0  0  0  0  0  0  0  0  0  0  0
    7.7040   -8.0860   10.2360 C   0  0  0  0  0  0  0  0  0  0  0  0
    8.1500   -9.0330    9.1250 C   0  0  0  0  0  0  0  0  0  0  0  0
    9.0050   -8.3210    8.2410 O   0  0  0  0  0  0  0  0  0  0  0  0
    7.3850   -6.7350    9.6090 C   0  0  0  0  0  0  0  0  0  0  0  0
    7.3190   -6.7580    8.1890 O   0  0  0  0  0  0  0  0  0  0  0  0
    6.4510   -8.6190   10.9170 C   0  0  0  0  0  0  0  0  0  0  0  0
   10.7080   -8.0740   12.4090 N   0  0  0  0  0  0  0  0  0  0  0  0
   12.0190   -8.5010   12.7380 C   0  0  0  0  0  0  0  0  0  0  0  0
   12.6950   -7.8140   13.7400 C   0  0  0  0  0  0  0  0  0  0  0  0
   14.0130   -8.1240   14.0240 C   0  0  0  0  0  0  0  0  0  0  0  0
   14.6630   -9.1190   13.3250 C   0  0  0  0  0  0  0  0  0  0  0  0
   13.9920   -9.8210   12.3480 C   0  0  0  0  0  0  0  0  0  0  0  0
   12.6730   -9.5210   12.0510 C   0  0  0  0  0  0  0  0  0  0  0  0
  9  4  1  0
  5  4  1  0
  6  5  1  0
  7  4  1  0
  8  7  1  0
  4  3  1  0
  3  2  1  0
  2  1  2  0
 10  2  1  0
 11 10  1  0
 11 16  2  0
 16 15  1  0
 15 14  2  0
 14 13  1  0
 13 12  2  0
 12 11  1  0
M  END
>  <id>  (66) 
66

>  <inchikey>  (66) 
NLGYHTMGWVQQIL-UHFFFAOYSA-N

>  <alias>  (66) 
A0395a

>  <smiles>  (66) 
CC(CO)(CO)NC(=O)Nc1ccccc1

>  <path>  (66) 
/opt/xchem-fragalysis-2/maxwin/BulkDock/TARGETS/A71EV2A/aligned_files/A0395a/A0395a.pdb

>  <distance_score>  (66) 
None

>  <energy_score>  (66) 
None

>  <compound>  (66) 
NLGYHTMGWVQQIL-UHFFFAOYSA-N

>  <compound_id>  (66) 
53

>  <target>  (66) 
A71EV2A

>  <tags>  (66) 
['GOOD count', 'MEDIOCRE count', 'hits', '[Other] upload_1 2025-02-12', 'Main status', 'BAD count']

>  <inspirations>  (66) 
None

>  <subsites>  (66) 
None

>  <reference>  (66) 


>  <observation_longname>  (66) 
A71EV2A-x0395_A_147_v1

>  <ConformerSites alias>  (66) 
2a - A3977/A/202

>  <CanonSites alias>  (66) 
2 - A3977/A/202/1

>  <CrystalformSites alias>  (66) 
F1t - A0395/A/147

>  <Quatassemblies alias>  (66) 
A1 - monomer

>  <Crystalforms alias>  (66) 
F1 - A71_2A_open

>  <ConformerSites upload name>  (66) 
2a - A71EV2A-x3977/A/202

>  <CanonSites upload name>  (66) 
2 - A71EV2A-x3977/A/202/1

>  <CrystalformSites upload name>  (66) 
F1t - A71EV2A-x0395/A/147/1

>  <Quatassemblies upload name>  (66) 
A1 - monomer

>  <Crystalforms upload name>  (66) 
F1 - A71_2A_open

>  <ConformerSites short tag>  (66) 
2a - A3977/A/202

>  <CanonSites short tag>  (66) 
2 - A3977/A/202/1

>  <CrystalformSites short tag>  (66) 
F1t - A0395/A/147

>  <Quatassemblies short tag>  (66) 
A1 - monomer

>  <Crystalforms short tag>  (66) 
F1 - A71_2A_open

>  <Centroid res>  (66) 
A71EV2A-x3977/A/113/A_v1

>  <Experiment code>  (66) 
A71EV2A-x0395

>  <Pose>  (66) 
A0395a

$$$$
A0395b
     RDKit          3D

 16 16  0  0  0  0  0  0  0  0999 V2000
   17.7030   -5.5510   20.5950 O   0  0  0  0  0  0  0  0  0  0  0  0
   17.4060   -4.3620   20.6050 C   0  0  0  0  0  0  0  0  0  0  0  0
   17.9570   -3.4750   21.4660 N   0  0  0  0  0  0  0  0  0  0  0  0
   18.9410   -3.7600   22.5310 C   0  0  0  0  0  0  0  0  0  0  0  0
   19.8420   -2.5320   22.6370 C   0  0  0  0  0  0  0  0  0  0  0  0
   20.3420   -2.3010   23.9500 O   0  0  0  0  0  0  0  0  0  0  0  0
   18.1600   -3.9720   23.8250 C   0  0  0  0  0  0  0  0  0  0  0  0
   17.2420   -5.0490   23.7330 O   0  0  0  0  0  0  0  0  0  0  0  0
   19.7950   -4.9920   22.2570 C   0  0  0  0  0  0  0  0  0  0  0  0
   16.5040   -3.8020   19.7310 N   0  0  0  0  0  0  0  0  0  0  0  0
   15.7170   -4.4480   18.7400 C   0  0  0  0  0  0  0  0  0  0  0  0
   14.5920   -3.7660   18.2980 C   0  0  0  0  0  0  0  0  0  0  0  0
   13.7130   -4.3770   17.4190 C   0  0  0  0  0  0  0  0  0  0  0  0
   13.9460   -5.6650   16.9800 C   0  0  0  0  0  0  0  0  0  0  0  0
   15.0700   -6.3340   17.3950 C   0  0  0  0  0  0  0  0  0  0  0  0
   15.9630   -5.7330   18.2660 C   0  0  0  0  0  0  0  0  0  0  0  0
  9  4  1  0
  5  4  1  0
  6  5  1  0
  7  4  1  0
  8  7  1  0
  4  3  1  0
  3  2  1  0
  2  1  2  0
 10  2  1  0
 11 10  1  0
 11 16  2  0
 16 15  1  0
 15 14  2  0
 14 13  1  0
 13 12  2  0
 12 11  1  0
M  END
>  <id>  (67) 
67

>  <inchikey>  (67) 
NLGYHTMGWVQQIL-UHFFFAOYSA-N

>  <alias>  (67) 
A0395b

>  <smiles>  (67) 
CC(CO)(CO)NC(=O)Nc1ccccc1

>  <path>  (67) 
/opt/xchem-fragalysis-2/maxwin/BulkDock/TARGETS/A71EV2A/aligned_files/A0395b/A0395b.pdb

>  <distance_score>  (67) 
None

>  <energy_score>  (67) 
None

>  <compound>  (67) 
NLGYHTMGWVQQIL-UHFFFAOYSA-N

>  <compound_id>  (67) 
53

>  <target>  (67) 
A71EV2A

>  <tags>  (67) 
['[Other] Fragment Screen', 'GOOD count', 'MEDIOCRE count', 'hits', '[Other] upload_1 2024-12-06', 'Main status', '[Other] New', '[Other] upload_1 2025-02-12', 'BAD count']

>  <inspirations>  (67) 
None

>  <subsites>  (67) 
None

>  <reference>  (67) 


>  <observation_longname>  (67) 
A71EV2A-x0395_A_148_v1

>  <ConformerSites alias>  (67) 
2a - A3977/A/202

>  <CanonSites alias>  (67) 
2 - A3977/A/202/1

>  <CrystalformSites alias>  (67) 
F1s - A0152/A/201

>  <Quatassemblies alias>  (67) 
A1 - monomer

>  <Crystalforms alias>  (67) 
F1 - A71_2A_open

>  <ConformerSites upload name>  (67) 
2a - A71EV2A-x3977/A/202

>  <CanonSites upload name>  (67) 
2 - A71EV2A-x3977/A/202/1

>  <CrystalformSites upload name>  (67) 
F1s - A71EV2A-x0152/A/201/1

>  <Quatassemblies upload name>  (67) 
A1 - monomer

>  <Crystalforms upload name>  (67) 
F1 - A71_2A_open

>  <ConformerSites short tag>  (67) 
2a - A3977/A/202

>  <CanonSites short tag>  (67) 
2 - A3977/A/202/1

>  <CrystalformSites short tag>  (67) 
F1s - A0152/A/201

>  <Quatassemblies short tag>  (67) 
A1 - monomer

>  <Crystalforms short tag>  (67) 
F1 - A71_2A_open

>  <Centroid res>  (67) 
A71EV2A-x3977/A/113/A_v1

>  <Experiment code>  (67) 
A71EV2A-x0395

>  <Pose>  (67) 
A0395a

$$$$
A0396a
     RDKit          3D

  9  9  0  0  0  0  0  0  0  0999 V2000
   30.9940   17.6780    7.8350 N   0  0  0  0  0  0  0  0  0  0  0  0
   29.8970   18.4240    7.6570 C   0  0  0  0  0  0  0  0  0  0  0  0
   29.7420   19.6300    8.1490 N   0  0  0  0  0  0  0  0  0  0  0  0
   28.4870   20.1700    7.8350 N   0  0  0  0  0  0  0  0  0  0  0  0
   28.5150   17.8520    6.7600 S   0  0  0  0  0  0  0  0  0  0  0  0
   27.7510   19.3810    7.1270 C   0  0  0  0  0  0  0  0  0  0  0  0
   26.3810   19.7080    6.6370 C   0  0  0  0  0  0  0  0  0  0  0  0
   26.0330   20.9700    7.1940 O   0  0  0  0  0  0  0  0  0  0  0  0
   25.0960   21.6830    6.3930 C   0  0  0  0  0  0  0  0  0  0  0  0
  9  8  1  0
  8  7  1  0
  7  6  1  0
  6  4  2  0
  4  3  1  0
  3  2  2  0
  2  1  1  0
  5  2  1  0
  6  5  1  0
M  END
>  <id>  (68) 
68

>  <inchikey>  (68) 
ZLDOCTTXAVVDHG-UHFFFAOYSA-N

>  <alias>  (68) 
A0396a

>  <smiles>  (68) 
COCc1nnc(N)s1

>  <path>  (68) 
/opt/xchem-fragalysis-2/maxwin/BulkDock/TARGETS/A71EV2A/aligned_files/A0396a/A0396a.pdb

>  <distance_score>  (68) 
None

>  <energy_score>  (68) 
None

>  <compound>  (68) 
ZLDOCTTXAVVDHG-UHFFFAOYSA-N

>  <compound_id>  (68) 
54

>  <target>  (68) 
A71EV2A

>  <tags>  (68) 
['[Other] Fragment Screen', 'GOOD count', 'MEDIOCRE count', 'hits', '[Other] upload_1 2024-12-06', 'Main status', '[Other] New', '[Other] upload_1 2025-02-12', 'BAD count']

>  <inspirations>  (68) 
None

>  <subsites>  (68) 
None

>  <reference>  (68) 


>  <observation_longname>  (68) 
A71EV2A-x0396_A_147_v1

>  <ConformerSites alias>  (68) 
12a - A0396/A/147

>  <CanonSites alias>  (68) 
12 - A0396/A/147/1

>  <CrystalformSites alias>  (68) 
F1aj - A0396/A/147

>  <Quatassemblies alias>  (68) 
A1 - monomer

>  <Crystalforms alias>  (68) 
F1 - A71_2A_open

>  <ConformerSites upload name>  (68) 
12a - A71EV2A-x0396/A/147

>  <CanonSites upload name>  (68) 
12 - A71EV2A-x0396/A/147/1

>  <CrystalformSites upload name>  (68) 
F1aj - A71EV2A-x0396/A/147/1

>  <Quatassemblies upload name>  (68) 
A1 - monomer

>  <Crystalforms upload name>  (68) 
F1 - A71_2A_open

>  <ConformerSites short tag>  (68) 
12a - A0396/A/147

>  <CanonSites short tag>  (68) 
12 - A0396/A/147/1

>  <CrystalformSites short tag>  (68) 
F1aj - A0396/A/147

>  <Quatassemblies short tag>  (68) 
A1 - monomer

>  <Crystalforms short tag>  (68) 
F1 - A71_2A_open

>  <Centroid res>  (68) 
A71EV2A-x0396/A/31/A_v1

>  <Experiment code>  (68) 
A71EV2A-x0396

>  <Pose>  (68) 
A0396a

$$$$
A0412a
     RDKit          3D

 15 16  0  0  0  0  0  0  0  0999 V2000
   17.3750   -9.9500   12.7890 O   0  0  0  0  0  0  0  0  0  0  0  0
   18.3880   -9.2810   12.6030 C   0  0  0  0  0  0  0  0  0  0  0  0
   18.9460   -8.3630   13.6500 C   0  0  0  0  0  0  0  0  0  0  0  0
   19.0710   -9.3330   11.4240 N   0  0  0  0  0  0  0  0  0  0  0  0
   18.6490  -10.1360   10.3790 C   0  0  0  0  0  0  0  0  0  0  0  0
   17.7790  -11.1190   10.4630 N   0  0  0  0  0  0  0  0  0  0  0  0
   17.7590  -11.6800    9.1810 C   0  0  0  0  0  0  0  0  0  0  0  0
   18.6370  -10.9990    8.3430 C   0  0  0  0  0  0  0  0  0  0  0  0
   19.1870   -9.9920    9.1270 N   0  0  0  0  0  0  0  0  0  0  0  0
   20.0950   -8.9260    8.6810 C   0  0  0  0  0  0  0  0  0  0  0  0
   19.5670   -7.5530    9.0310 C   0  0  0  0  0  0  0  0  0  0  0  0
   18.8370  -11.3730    7.0180 C   0  0  0  0  0  0  0  0  0  0  0  0
   18.1310  -12.4710    6.5480 C   0  0  0  0  0  0  0  0  0  0  0  0
   17.2500  -13.1670    7.3760 C   0  0  0  0  0  0  0  0  0  0  0  0
   17.0400  -12.7710    8.6920 C   0  0  0  0  0  0  0  0  0  0  0  0
 11 10  1  0
 10  9  1  0
  9  5  1  0
  5  4  1  0
  4  2  1  0
  2  1  2  0
  3  2  1  0
  6  5  2  0
  7  6  1  0
  7 15  2  0
 15 14  1  0
 14 13  2  0
 13 12  1  0
 12  8  2  0
  9  8  1  0
  8  7  1  0
M  END
>  <id>  (69) 
69

>  <inchikey>  (69) 
CTAOPYAHPUKQBH-UHFFFAOYSA-N

>  <alias>  (69) 
A0412a

>  <smiles>  (69) 
CCn1c(NC(C)=O)nc2ccccc21

>  <path>  (69) 
/opt/xchem-fragalysis-2/maxwin/BulkDock/TARGETS/A71EV2A/aligned_files/A0412a/A0412a.pdb

>  <distance_score>  (69) 
None

>  <energy_score>  (69) 
None

>  <compound>  (69) 
CTAOPYAHPUKQBH-UHFFFAOYSA-N

>  <compound_id>  (69) 
55

>  <target>  (69) 
A71EV2A

>  <tags>  (69) 
['[Other] Fragment Screen', 'GOOD count', 'MEDIOCRE count', 'hits', '[Other] upload_1 2024-12-06', 'Main status', '[Other] New', '[Other] upload_1 2025-02-12', 'BAD count']

>  <inspirations>  (69) 
None

>  <subsites>  (69) 
None

>  <reference>  (69) 


>  <observation_longname>  (69) 
A71EV2A-x0412_A_147_v1

>  <ConformerSites alias>  (69) 
13a - A0412/A/147

>  <CanonSites alias>  (69) 
13 - A0412/A/147/1

>  <CrystalformSites alias>  (69) 
F1ak - A0412/A/147

>  <Quatassemblies alias>  (69) 
A1 - monomer

>  <Crystalforms alias>  (69) 
F1 - A71_2A_open

>  <ConformerSites upload name>  (69) 
13a - A71EV2A-x0412/A/147

>  <CanonSites upload name>  (69) 
13 - A71EV2A-x0412/A/147/1

>  <CrystalformSites upload name>  (69) 
F1ak - A71EV2A-x0412/A/147/1

>  <Quatassemblies upload name>  (69) 
A1 - monomer

>  <Crystalforms upload name>  (69) 
F1 - A71_2A_open

>  <ConformerSites short tag>  (69) 
13a - A0412/A/147

>  <CanonSites short tag>  (69) 
13 - A0412/A/147/1

>  <CrystalformSites short tag>  (69) 
F1ak - A0412/A/147

>  <Quatassemblies short tag>  (69) 
A1 - monomer

>  <Crystalforms short tag>  (69) 
F1 - A71_2A_open

>  <Centroid res>  (69) 
A71EV2A-x0412/A/119/A_v1

>  <Experiment code>  (69) 
A71EV2A-x0412

>  <Pose>  (69) 
A0412a

$$$$
A0416a
     RDKit          3D

 15 16  0  0  0  0  0  0  0  0999 V2000
    7.9050   14.6420   24.9030 O   0  0  0  0  0  0  0  0  0  0  0  0
    7.7740   14.1690   26.0280 C   0  0  0  0  0  0  0  0  0  0  0  0
    7.4290   15.0760   27.2030 C   0  0  1  0  0  0  0  0  0  0  0  0
    6.6220   14.3910   28.1790 O   0  0  0  0  0  0  0  0  0  0  0  0
    6.8870   14.9720   29.4640 C   0  0  0  0  0  0  0  0  0  0  0  0
    8.0360   15.9440   29.2980 C   0  0  0  0  0  0  0  0  0  0  0  0
    8.6470   15.5400   27.9720 C   0  0  0  0  0  0  0  0  0  0  0  0
    7.8950   12.8540   26.3220 N   0  0  0  0  0  0  0  0  0  0  0  0
    8.2210   11.8030   25.4520 C   0  0  0  0  0  0  0  0  0  0  0  0
    9.1390   11.9570   24.4060 C   0  0  0  0  0  0  0  0  0  0  0  0
    9.4710   10.8380   23.6670 C   0  0  0  0  0  0  0  0  0  0  0  0
    7.6490   10.6220   25.7370 N   0  0  0  0  0  0  0  0  0  0  0  0
    8.0030    9.5620   24.9940 C   0  0  0  0  0  0  0  0  0  0  0  0
    8.9150    9.6040   23.9500 C   0  0  0  0  0  0  0  0  0  0  0  0
    9.2960    8.3690   23.1720 C   0  0  0  0  0  0  0  0  0  0  0  0
 15 14  1  0
 14 11  1  0
 11 10  2  0
 10  9  1  0
  9  8  1  0
  8  2  1  0
  2  1  2  0
  3  2  1  6
  3  7  1  0
  7  6  1  0
  6  5  1  0
  5  4  1  0
  4  3  1  0
 12  9  2  0
 13 12  1  0
 14 13  2  0
M  END
>  <id>  (70) 
70

>  <inchikey>  (70) 
BFRXGCPOQMOBHK-VIFPVBQESA-N

>  <alias>  (70) 
A0416a

>  <smiles>  (70) 
Cc1ccc(NC(=O)[C@@H]2CCCO2)nc1

>  <path>  (70) 
/opt/xchem-fragalysis-2/maxwin/BulkDock/TARGETS/A71EV2A/aligned_files/A0416a/A0416a.pdb

>  <distance_score>  (70) 
None

>  <energy_score>  (70) 
None

>  <compound>  (70) 
BFRXGCPOQMOBHK-UHFFFAOYSA-N

>  <compound_id>  (70) 
56

>  <target>  (70) 
A71EV2A

>  <tags>  (70) 
['[Other] Fragment Screen', 'GOOD count', 'MEDIOCRE count', '[Other] S1 site', 'hits', '[Other] Active site fragment', '[Other] upload_1 2024-12-06', 'Main status', '[Other] New', '[Other] upload_1 2025-02-12', 'BAD count']

>  <inspirations>  (70) 
None

>  <subsites>  (70) 
None

>  <reference>  (70) 


>  <observation_longname>  (70) 
A71EV2A-x0416_A_147_v1

>  <ConformerSites alias>  (70) 
1b - A0911/A/147

>  <CanonSites alias>  (70) 
1 - Active Site

>  <CrystalformSites alias>  (70) 
F1a - A0375/A/201

>  <Quatassemblies alias>  (70) 
A1 - monomer

>  <Crystalforms alias>  (70) 
F1 - A71_2A_open

>  <ConformerSites upload name>  (70) 
1b - A71EV2A-x0911/A/147

>  <CanonSites upload name>  (70) 
1 - A71EV2A-x0911/A/147/1

>  <CrystalformSites upload name>  (70) 
F1a - A71EV2A-x0375/A/201/1

>  <Quatassemblies upload name>  (70) 
A1 - monomer

>  <Crystalforms upload name>  (70) 
F1 - A71_2A_open

>  <ConformerSites short tag>  (70) 
1b - A0911/A/147

>  <CanonSites short tag>  (70) 
1 - A0911/A/147/1

>  <CrystalformSites short tag>  (70) 
F1a - A0375/A/201

>  <Quatassemblies short tag>  (70) 
A1 - monomer

>  <Crystalforms short tag>  (70) 
F1 - A71_2A_open

>  <Centroid res>  (70) 
A71EV2A-x0911/A/133/A_v1

>  <Experiment code>  (70) 
A71EV2A-x0416

>  <Pose>  (70) 
A0416a

$$$$
A0428a
     RDKit          3D

 12 12  0  0  0  0  0  0  0  0999 V2000
    7.2460   11.8440    5.2740 O   0  0  0  0  0  0  0  0  0  0  0  0
    7.0290   13.1910    4.9030 S   0  0  0  0  0  0  0  0  0  0  0  0
    7.1570   14.2170    5.8560 O   0  0  0  0  0  0  0  0  0  0  0  0
    5.5130   13.3010    4.3430 N   0  0  0  0  0  0  0  0  0  0  0  0
    5.0740   12.3030    3.3700 C   0  0  0  0  0  0  0  0  0  0  0  0
    4.9220   14.6330    4.2350 C   0  0  0  0  0  0  0  0  0  0  0  0
    8.0330   13.5250    3.5100 C   0  0  0  0  0  0  0  0  0  0  0  0
    8.5390   14.7840    3.2900 C   0  0  0  0  0  0  0  0  0  0  0  0
    9.3200   15.0760    2.2480 N   0  0  0  0  0  0  0  0  0  0  0  0
    9.5970   14.0980    1.3940 C   0  0  0  0  0  0  0  0  0  0  0  0
    9.1220   12.8200    1.5230 C   0  0  0  0  0  0  0  0  0  0  0  0
    8.3220   12.5200    2.6100 C   0  0  0  0  0  0  0  0  0  0  0  0
  6  4  1  0
  5  4  1  0
  4  2  1  0
  3  2  2  0
  2  1  2  0
  7  2  1  0
  7 12  2  0
 12 11  1  0
 11 10  2  0
 10  9  1  0
  9  8  2  0
  8  7  1  0
M  END
>  <id>  (71) 
71

>  <inchikey>  (71) 
HGZULNNLLFYOFI-UHFFFAOYSA-N

>  <alias>  (71) 
A0428a

>  <smiles>  (71) 
CN(C)S(=O)(=O)c1cccnc1

>  <path>  (71) 
/opt/xchem-fragalysis-2/maxwin/BulkDock/TARGETS/A71EV2A/aligned_files/A0428a/A0428a.pdb

>  <distance_score>  (71) 
None

>  <energy_score>  (71) 
None

>  <compound>  (71) 
HGZULNNLLFYOFI-UHFFFAOYSA-N

>  <compound_id>  (71) 
57

>  <target>  (71) 
A71EV2A

>  <tags>  (71) 
['[Other] Fragment Screen', 'GOOD count', 'MEDIOCRE count', 'hits', '[Other] upload_1 2024-12-06', 'Main status', '[Other] New', '[Other] upload_1 2025-02-12', 'BAD count']

>  <inspirations>  (71) 
None

>  <subsites>  (71) 
None

>  <reference>  (71) 


>  <observation_longname>  (71) 
A71EV2A-x0428_A_147_v1

>  <ConformerSites alias>  (71) 
3a - A0541/A/147

>  <CanonSites alias>  (71) 
3 - A0541/A/147/1

>  <CrystalformSites alias>  (71) 
F1x - A0541/A/147

>  <Quatassemblies alias>  (71) 
A1 - monomer

>  <Crystalforms alias>  (71) 
F1 - A71_2A_open

>  <ConformerSites upload name>  (71) 
3a - A71EV2A-x0541/A/147

>  <CanonSites upload name>  (71) 
3 - A71EV2A-x0541/A/147/1

>  <CrystalformSites upload name>  (71) 
F1x - A71EV2A-x0541/A/147/1

>  <Quatassemblies upload name>  (71) 
A1 - monomer

>  <Crystalforms upload name>  (71) 
F1 - A71_2A_open

>  <ConformerSites short tag>  (71) 
3a - A0541/A/147

>  <CanonSites short tag>  (71) 
3 - A0541/A/147/1

>  <CrystalformSites short tag>  (71) 
F1x - A0541/A/147

>  <Quatassemblies short tag>  (71) 
A1 - monomer

>  <Crystalforms short tag>  (71) 
F1 - A71_2A_open

>  <Centroid res>  (71) 
A71EV2A-x0541/A/97/A_v1

>  <Experiment code>  (71) 
A71EV2A-x0428

>  <Pose>  (71) 
A0428a

$$$$
A0432a
     RDKit          3D

 12 13  0  0  0  0  0  0  0  0999 V2000
   -0.2280   -6.6890   15.5350 N   0  0  0  0  0  0  0  0  0  0  0  0
    1.0320   -7.0170   15.0910 C   0  0  0  0  0  0  0  0  0  0  0  0
    1.4820   -8.3410   15.1330 C   0  0  0  0  0  0  0  0  0  0  0  0
    2.7500   -8.6720   14.6990 C   0  0  0  0  0  0  0  0  0  0  0  0
    3.6150   -7.6940   14.2160 C   0  0  0  0  0  0  0  0  0  0  0  0
    3.1820   -6.3700   14.1980 C   0  0  0  0  0  0  0  0  0  0  0  0
    1.9060   -6.0370   14.6050 C   0  0  0  0  0  0  0  0  0  0  0  0
    4.9520   -8.0460   13.7680 C   0  0  0  0  0  0  0  0  0  0  0  0
    5.7280   -7.0760   13.2630 O   0  0  0  0  0  0  0  0  0  0  0  0
    6.9690   -7.6860   12.9780 N   0  0  0  0  0  0  0  0  0  0  0  0
    6.7800   -8.9450   13.3280 C   0  0  0  0  0  0  0  0  0  0  0  0
    5.5370   -9.1990   13.8100 N   0  0  0  0  0  0  0  0  0  0  0  0
  2  1  1  0
  2  7  2  0
  7  6  1  0
  6  5  2  0
  5  4  1  0
  4  3  2  0
  3  2  1  0
  8  5  1  0
  8 12  2  0
 12 11  1  0
 11 10  2  0
 10  9  1  0
  9  8  1  0
M  END
>  <id>  (72) 
72

>  <inchikey>  (72) 
LKIGQRFSSGGKQW-UHFFFAOYSA-N

>  <alias>  (72) 
A0432a

>  <smiles>  (72) 
Nc1ccc(-c2ncno2)cc1

>  <path>  (72) 
/opt/xchem-fragalysis-2/maxwin/BulkDock/TARGETS/A71EV2A/aligned_files/A0432a/A0432a.pdb

>  <distance_score>  (72) 
None

>  <energy_score>  (72) 
None

>  <compound>  (72) 
LKIGQRFSSGGKQW-UHFFFAOYSA-N

>  <compound_id>  (72) 
58

>  <target>  (72) 
A71EV2A

>  <tags>  (72) 
['[Other] Fragment Screen', 'GOOD count', 'MEDIOCRE count', 'hits', '[Other] upload_1 2024-12-06', 'Main status', '[Other] New', '[Other] upload_1 2025-02-12', 'BAD count']

>  <inspirations>  (72) 
None

>  <subsites>  (72) 
None

>  <reference>  (72) 


>  <observation_longname>  (72) 
A71EV2A-x0432_A_147_v1

>  <ConformerSites alias>  (72) 
9a - A0432/A/147

>  <CanonSites alias>  (72) 
9 - A0432/A/147/1

>  <CrystalformSites alias>  (72) 
F2ag - A0351/A/201

>  <Quatassemblies alias>  (72) 
A1 - monomer

>  <Crystalforms alias>  (72) 
F2 - A71_2A_open_small_cell

>  <ConformerSites upload name>  (72) 
9a - A71EV2A-x0432/A/147

>  <CanonSites upload name>  (72) 
9 - A71EV2A-x0432/A/147/1

>  <CrystalformSites upload name>  (72) 
F2ag - A71EV2A-x0351/A/201/1

>  <Quatassemblies upload name>  (72) 
A1 - monomer

>  <Crystalforms upload name>  (72) 
F2 - A71_2A_open_small_cell

>  <ConformerSites short tag>  (72) 
9a - A0432/A/147

>  <CanonSites short tag>  (72) 
9 - A0432/A/147/1

>  <CrystalformSites short tag>  (72) 
F2ag - A0351/A/201

>  <Quatassemblies short tag>  (72) 
A1 - monomer

>  <Crystalforms short tag>  (72) 
F2 - A71_2A_open_small_cell

>  <Centroid res>  (72) 
A71EV2A-x0432/A/61/A_v1

>  <Experiment code>  (72) 
A71EV2A-x0432

>  <Pose>  (72) 
A0432a

$$$$
A0437a
     RDKit          3D

 10 10  0  0  0  0  0  0  0  0999 V2000
    5.4750   13.1660   28.2910 C   0  0  0  0  0  0  0  0  0  0  0  0
    5.9980   12.1280   27.3450 C   0  0  0  0  0  0  0  0  0  0  0  0
    5.3780   10.8980   27.1920 C   0  0  0  0  0  0  0  0  0  0  0  0
    5.9300    9.9790   26.3250 C   0  0  0  0  0  0  0  0  0  0  0  0
    7.1010   12.4460   26.6680 N   0  0  0  0  0  0  0  0  0  0  0  0
    7.6550   11.5490   25.8050 N   0  0  0  0  0  0  0  0  0  0  0  0
    7.0980   10.3510   25.6530 C   0  0  0  0  0  0  0  0  0  0  0  0
    7.7490    9.4840   24.8300 N   0  0  0  0  0  0  0  0  0  0  0  0
    8.9160    9.8930   24.0340 C   0  0  0  0  0  0  0  0  0  0  0  0
    9.4670    8.8080   23.1570 C   0  0  0  0  0  0  0  0  0  0  0  0
 10  9  1  0
  9  8  1  0
  8  7  1  0
  7  4  2  0
  4  3  1  0
  3  2  2  0
  2  1  1  0
  5  2  1  0
  6  5  2  0
  7  6  1  0
M  END
>  <id>  (73) 
73

>  <inchikey>  (73) 
RNOJUWVVUNEZSV-UHFFFAOYSA-N

>  <alias>  (73) 
A0437a

>  <smiles>  (73) 
CCNc1ccc(C)nn1

>  <path>  (73) 
/opt/xchem-fragalysis-2/maxwin/BulkDock/TARGETS/A71EV2A/aligned_files/A0437a/A0437a.pdb

>  <distance_score>  (73) 
None

>  <energy_score>  (73) 
None

>  <compound>  (73) 
RNOJUWVVUNEZSV-UHFFFAOYSA-N

>  <compound_id>  (73) 
59

>  <target>  (73) 
A71EV2A

>  <tags>  (73) 
['[Other] Fragment Screen', 'GOOD count', 'MEDIOCRE count', '[Other] S1 site', 'hits', '[Other] Active site fragment', '[Other] upload_1 2024-12-06', 'Main status', '[Other] New', '[Other] upload_1 2025-02-12', 'BAD count']

>  <inspirations>  (73) 
None

>  <subsites>  (73) 
None

>  <reference>  (73) 


>  <observation_longname>  (73) 
A71EV2A-x0437_A_250_v1

>  <ConformerSites alias>  (73) 
1b - A0911/A/147

>  <CanonSites alias>  (73) 
1 - Active Site

>  <CrystalformSites alias>  (73) 
F3c - A0487/A/250

>  <Quatassemblies alias>  (73) 
A1 - monomer

>  <Crystalforms alias>  (73) 
F3 - A71_2A_open_long_cell

>  <ConformerSites upload name>  (73) 
1b - A71EV2A-x0911/A/147

>  <CanonSites upload name>  (73) 
1 - A71EV2A-x0911/A/147/1

>  <CrystalformSites upload name>  (73) 
F3c - A71EV2A-x0487/A/250/1

>  <Quatassemblies upload name>  (73) 
A1 - monomer

>  <Crystalforms upload name>  (73) 
F3 - A71_2A_open_long_cell

>  <ConformerSites short tag>  (73) 
1b - A0911/A/147

>  <CanonSites short tag>  (73) 
1 - A0911/A/147/1

>  <CrystalformSites short tag>  (73) 
F3c - A0487/A/250

>  <Quatassemblies short tag>  (73) 
A1 - monomer

>  <Crystalforms short tag>  (73) 
F3 - A71_2A_open_long_cell

>  <Centroid res>  (73) 
A71EV2A-x0911/A/133/A_v1

>  <Experiment code>  (73) 
A71EV2A-x0437

>  <Pose>  (73) 
A0437a

$$$$
A0443a
     RDKit          3D

 10 11  0  0  0  0  0  0  0  0999 V2000
    9.4580    8.9420   23.2190 C   0  0  0  0  0  0  0  0  0  0  0  0
    8.6420    9.8260   24.1070 C   0  0  0  0  0  0  0  0  0  0  0  0
    7.5770    9.2980   24.8190 N   0  0  0  0  0  0  0  0  0  0  0  0
    7.0740   10.3050   25.5180 C   0  0  0  0  0  0  0  0  0  0  0  0
    7.7820   11.4750   25.2610 N   0  0  0  0  0  0  0  0  0  0  0  0
    8.7800   11.1550   24.3700 C   0  0  0  0  0  0  0  0  0  0  0  0
    6.0160   10.3550   26.4620 C   0  0  0  0  0  0  0  0  0  0  0  0
    5.7190   11.5400   27.0670 C   0  0  0  0  0  0  0  0  0  0  0  0
    6.4480   12.7190   26.7620 C   0  0  0  0  0  0  0  0  0  0  0  0
    7.4680   12.6800   25.8760 C   0  0  0  0  0  0  0  0  0  0  0  0
  2  1  1  0
  2  6  2  0
  6  5  1  0
  5 10  1  0
 10  9  2  0
  9  8  1  0
  8  7  2  0
  7  4  1  0
  5  4  1  0
  4  3  2  0
  3  2  1  0
M  END
>  <id>  (74) 
74

>  <inchikey>  (74) 
BZACBBRLMWHCNM-UHFFFAOYSA-N

>  <alias>  (74) 
A0443a

>  <smiles>  (74) 
Cc1cn2ccccc2n1

>  <path>  (74) 
/opt/xchem-fragalysis-2/maxwin/BulkDock/TARGETS/A71EV2A/aligned_files/A0443a/A0443a.pdb

>  <distance_score>  (74) 
None

>  <energy_score>  (74) 
None

>  <compound>  (74) 
BZACBBRLMWHCNM-UHFFFAOYSA-N

>  <compound_id>  (74) 
60

>  <target>  (74) 
A71EV2A

>  <tags>  (74) 
['[Other] Fragment Screen', 'GOOD count', 'MEDIOCRE count', '[Other] S1 site', 'hits', '[Other] Active site fragment', '[Other] upload_1 2024-12-06', 'Main status', '[Other] New', '[Other] upload_1 2025-02-12', 'BAD count']

>  <inspirations>  (74) 
None

>  <subsites>  (74) 
None

>  <reference>  (74) 


>  <observation_longname>  (74) 
A71EV2A-x0443_A_250_v1

>  <ConformerSites alias>  (74) 
1b - A0911/A/147

>  <CanonSites alias>  (74) 
1 - Active Site

>  <CrystalformSites alias>  (74) 
F3c - A0487/A/250

>  <Quatassemblies alias>  (74) 
A1 - monomer

>  <Crystalforms alias>  (74) 
F3 - A71_2A_open_long_cell

>  <ConformerSites upload name>  (74) 
1b - A71EV2A-x0911/A/147

>  <CanonSites upload name>  (74) 
1 - A71EV2A-x0911/A/147/1

>  <CrystalformSites upload name>  (74) 
F3c - A71EV2A-x0487/A/250/1

>  <Quatassemblies upload name>  (74) 
A1 - monomer

>  <Crystalforms upload name>  (74) 
F3 - A71_2A_open_long_cell

>  <ConformerSites short tag>  (74) 
1b - A0911/A/147

>  <CanonSites short tag>  (74) 
1 - A0911/A/147/1

>  <CrystalformSites short tag>  (74) 
F3c - A0487/A/250

>  <Quatassemblies short tag>  (74) 
A1 - monomer

>  <Crystalforms short tag>  (74) 
F3 - A71_2A_open_long_cell

>  <Centroid res>  (74) 
A71EV2A-x0911/A/133/A_v1

>  <Experiment code>  (74) 
A71EV2A-x0443

>  <Pose>  (74) 
A0443a

$$$$
A0446a
     RDKit          3D

 10 10  0  0  0  0  0  0  0  0999 V2000
    9.7410   11.2930   24.7970 O   0  0  0  0  0  0  0  0  0  0  0  0
    8.7470   10.6230   24.5350 C   0  0  0  0  0  0  0  0  0  0  0  0
    8.7800    9.5430   23.7620 N   0  0  0  0  0  0  0  0  0  0  0  0
    9.9110    9.2370   22.9080 C   0  0  0  0  0  0  0  0  0  0  0  0
    7.4400   10.9870   25.1120 C   0  0  0  0  0  0  0  0  0  0  0  0
    7.2740   12.6390   25.6060 S   0  0  0  0  0  0  0  0  0  0  0  0
    5.6810   12.2790   26.1940 C   0  0  0  0  0  0  0  0  0  0  0  0
    4.8390   13.3200   26.8490 C   0  0  0  0  0  0  0  0  0  0  0  0
    5.3000   11.0460   26.0290 N   0  0  0  0  0  0  0  0  0  0  0  0
    6.2960   10.3220   25.4160 C   0  0  0  0  0  0  0  0  0  0  0  0
  4  3  1  0
  3  2  1  0
  2  1  2  0
  5  2  1  0
  5 10  2  0
 10  9  1  0
  9  7  2  0
  8  7  1  0
  7  6  1  0
  6  5  1  0
M  END
>  <id>  (75) 
75

>  <inchikey>  (75) 
PUIJVJNJITYIIM-UHFFFAOYSA-N

>  <alias>  (75) 
A0446a

>  <smiles>  (75) 
CNC(=O)c1cnc(C)s1

>  <path>  (75) 
/opt/xchem-fragalysis-2/maxwin/BulkDock/TARGETS/A71EV2A/aligned_files/A0446a/A0446a.pdb

>  <distance_score>  (75) 
None

>  <energy_score>  (75) 
None

>  <compound>  (75) 
PUIJVJNJITYIIM-UHFFFAOYSA-N

>  <compound_id>  (75) 
61

>  <target>  (75) 
A71EV2A

>  <tags>  (75) 
['[Other] Fragment Screen', 'GOOD count', 'MEDIOCRE count', '[Other] S1 site', 'hits', '[Other] Active site fragment', '[Other] upload_1 2024-12-06', 'Main status', '[Other] New', '[Other] upload_1 2025-02-12', 'BAD count']

>  <inspirations>  (75) 
None

>  <subsites>  (75) 
None

>  <reference>  (75) 


>  <observation_longname>  (75) 
A71EV2A-x0446_A_147_v1

>  <ConformerSites alias>  (75) 
1b - A0911/A/147

>  <CanonSites alias>  (75) 
1 - Active Site

>  <CrystalformSites alias>  (75) 
F1a - A0375/A/201

>  <Quatassemblies alias>  (75) 
A1 - monomer

>  <Crystalforms alias>  (75) 
F1 - A71_2A_open

>  <ConformerSites upload name>  (75) 
1b - A71EV2A-x0911/A/147

>  <CanonSites upload name>  (75) 
1 - A71EV2A-x0911/A/147/1

>  <CrystalformSites upload name>  (75) 
F1a - A71EV2A-x0375/A/201/1

>  <Quatassemblies upload name>  (75) 
A1 - monomer

>  <Crystalforms upload name>  (75) 
F1 - A71_2A_open

>  <ConformerSites short tag>  (75) 
1b - A0911/A/147

>  <CanonSites short tag>  (75) 
1 - A0911/A/147/1

>  <CrystalformSites short tag>  (75) 
F1a - A0375/A/201

>  <Quatassemblies short tag>  (75) 
A1 - monomer

>  <Crystalforms short tag>  (75) 
F1 - A71_2A_open

>  <Centroid res>  (75) 
A71EV2A-x0911/A/133/A_v1

>  <Experiment code>  (75) 
A71EV2A-x0446

>  <Pose>  (75) 
A0446a

$$$$
A0717a
     RDKit          3D

 13 13  0  0  0  0  0  0  0  0999 V2000
    7.4370   14.3150    5.5920 O   0  0  0  0  0  0  0  0  0  0  0  0
    7.2250   13.2190    4.7010 S   0  0  0  0  0  0  0  0  0  0  0  0
    7.3320   11.8750    5.1780 O   0  0  0  0  0  0  0  0  0  0  0  0
    5.7310   13.3890    4.0750 N   0  0  0  0  0  0  0  0  0  0  0  0
    4.7540   14.1490    4.8590 C   0  0  0  0  0  0  0  0  0  0  0  0
    5.1870   12.2470    3.3300 C   0  0  0  0  0  0  0  0  0  0  0  0
    8.2490   13.4090    3.2760 C   0  0  0  0  0  0  0  0  0  0  0  0
    8.7310   14.5930    2.8010 C   0  0  0  0  0  0  0  0  0  0  0  0
    8.4820   15.9900    3.2660 C   0  0  0  0  0  0  0  0  0  0  0  0
    9.5080   14.3130    1.7440 N   0  0  0  0  0  0  0  0  0  0  0  0
    9.5470   12.9850    1.4850 N   0  0  0  0  0  0  0  0  0  0  0  0
    8.7780   12.4180    2.4200 C   0  0  0  0  0  0  0  0  0  0  0  0
    8.6010   10.9360    2.4580 C   0  0  0  0  0  0  0  0  0  0  0  0
  6  4  1  0
  5  4  1  0
  4  2  1  0
  3  2  2  0
  2  1  2  0
  7  2  1  0
  7 12  1  0
 13 12  1  0
 12 11  2  0
 11 10  1  0
 10  8  1  0
  8  7  2  0
  9  8  1  0
M  END
>  <id>  (76) 
76

>  <inchikey>  (76) 
YJCZGTAEFYFJRJ-UHFFFAOYSA-N

>  <alias>  (76) 
A0717a

>  <smiles>  (76) 
Cc1n[nH]c(C)c1S(=O)(=O)N(C)C

>  <path>  (76) 
/opt/xchem-fragalysis-2/maxwin/BulkDock/TARGETS/A71EV2A/aligned_files/A0717a/A0717a.pdb

>  <distance_score>  (76) 
None

>  <energy_score>  (76) 
None

>  <compound>  (76) 
YJCZGTAEFYFJRJ-UHFFFAOYSA-N

>  <compound_id>  (76) 
62

>  <target>  (76) 
A71EV2A

>  <tags>  (76) 
['[Other] Fragment Screen', 'GOOD count', 'MEDIOCRE count', 'hits', '[Other] upload_1 2024-12-06', 'Main status', '[Other] New', '[Other] upload_1 2025-02-12', 'BAD count']

>  <inspirations>  (76) 
None

>  <subsites>  (76) 
None

>  <reference>  (76) 


>  <observation_longname>  (76) 
A71EV2A-x0717_A_147_v1

>  <ConformerSites alias>  (76) 
3a - A0541/A/147

>  <CanonSites alias>  (76) 
3 - A0541/A/147/1

>  <CrystalformSites alias>  (76) 
F1x - A0541/A/147

>  <Quatassemblies alias>  (76) 
A1 - monomer

>  <Crystalforms alias>  (76) 
F1 - A71_2A_open

>  <ConformerSites upload name>  (76) 
3a - A71EV2A-x0541/A/147

>  <CanonSites upload name>  (76) 
3 - A71EV2A-x0541/A/147/1

>  <CrystalformSites upload name>  (76) 
F1x - A71EV2A-x0541/A/147/1

>  <Quatassemblies upload name>  (76) 
A1 - monomer

>  <Crystalforms upload name>  (76) 
F1 - A71_2A_open

>  <ConformerSites short tag>  (76) 
3a - A0541/A/147

>  <CanonSites short tag>  (76) 
3 - A0541/A/147/1

>  <CrystalformSites short tag>  (76) 
F1x - A0541/A/147

>  <Quatassemblies short tag>  (76) 
A1 - monomer

>  <Crystalforms short tag>  (76) 
F1 - A71_2A_open

>  <Centroid res>  (76) 
A71EV2A-x0541/A/97/A_v1

>  <Experiment code>  (76) 
A71EV2A-x0717

>  <Pose>  (76) 
A0717a

$$$$
A0719a
     RDKit          3D

 13 13  0  0  0  0  0  0  0  0999 V2000
    7.2410   13.3110   21.9860 O   0  0  0  0  0  0  0  0  0  0  0  0
    7.2630   14.6970   22.3250 S   0  0  0  0  0  0  0  0  0  0  0  0
    8.4090   15.4940   22.0280 O   0  0  0  0  0  0  0  0  0  0  0  0
    5.9630   15.4080   21.7150 N   0  0  0  0  0  0  0  0  0  0  0  0
    6.8920   14.8260   24.0550 C   0  0  0  0  0  0  0  0  0  0  0  0
    7.9420   14.2430   25.0170 C   0  0  1  0  0  0  0  0  0  0  0  0
    7.4570   14.4430   26.4510 C   0  0  0  0  0  0  0  0  0  0  0  0
    8.3290   12.7940   24.7380 C   0  0  0  0  0  0  0  0  0  0  0  0
    9.4190   12.4930   23.9310 C   0  0  0  0  0  0  0  0  0  0  0  0
    9.7520   11.1760   23.6460 C   0  0  0  0  0  0  0  0  0  0  0  0
    9.0220   10.1430   24.1960 C   0  0  0  0  0  0  0  0  0  0  0  0
    7.9490   10.4300   25.0120 C   0  0  0  0  0  0  0  0  0  0  0  0
    7.5960   11.7420   25.2670 C   0  0  0  0  0  0  0  0  0  0  0  0
  6  7  1  1
  6  5  1  0
  5  2  1  0
  3  2  2  0
  2  1  2  0
  4  2  1  0
  8  6  1  0
  8 13  2  0
 13 12  1  0
 12 11  2  0
 11 10  1  0
 10  9  2  0
  9  8  1  0
M  END
>  <id>  (77) 
77

>  <inchikey>  (77) 
HXLOQIXEAPZOSG-MRVPVSSYSA-N

>  <alias>  (77) 
A0719a

>  <smiles>  (77) 
C[C@H](CS(N)(=O)=O)c1ccccc1

>  <path>  (77) 
/opt/xchem-fragalysis-2/maxwin/BulkDock/TARGETS/A71EV2A/aligned_files/A0719a/A0719a.pdb

>  <distance_score>  (77) 
None

>  <energy_score>  (77) 
None

>  <compound>  (77) 
HXLOQIXEAPZOSG-UHFFFAOYSA-N

>  <compound_id>  (77) 
63

>  <target>  (77) 
A71EV2A

>  <tags>  (77) 
['[Other] Fragment Screen', 'GOOD count', 'MEDIOCRE count', '[Other] S1 site', 'hits', '[Other] Active site fragment', '[Other] upload_1 2024-12-06', 'Main status', '[Other] New', '[Other] upload_1 2025-02-12', 'BAD count', '[Other] S3 site']

>  <inspirations>  (77) 
None

>  <subsites>  (77) 
None

>  <reference>  (77) 


>  <observation_longname>  (77) 
A71EV2A-x0719_A_301_v1

>  <ConformerSites alias>  (77) 
1b - A0911/A/147

>  <CanonSites alias>  (77) 
1 - Active Site

>  <CrystalformSites alias>  (77) 
F2b - A0450/A/201

>  <Quatassemblies alias>  (77) 
A1 - monomer

>  <Crystalforms alias>  (77) 
F2 - A71_2A_open_small_cell

>  <ConformerSites upload name>  (77) 
1b - A71EV2A-x0911/A/147

>  <CanonSites upload name>  (77) 
1 - A71EV2A-x0911/A/147/1

>  <CrystalformSites upload name>  (77) 
F2b - A71EV2A-x0450/A/201/1

>  <Quatassemblies upload name>  (77) 
A1 - monomer

>  <Crystalforms upload name>  (77) 
F2 - A71_2A_open_small_cell

>  <ConformerSites short tag>  (77) 
1b - A0911/A/147

>  <CanonSites short tag>  (77) 
1 - A0911/A/147/1

>  <CrystalformSites short tag>  (77) 
F2b - A0450/A/201

>  <Quatassemblies short tag>  (77) 
A1 - monomer

>  <Crystalforms short tag>  (77) 
F2 - A71_2A_open_small_cell

>  <Centroid res>  (77) 
A71EV2A-x0911/A/133/A_v1

>  <Experiment code>  (77) 
A71EV2A-x0719

>  <Pose>  (77) 
A0719a

$$$$
A0719b
     RDKit          3D

 13 13  0  0  0  0  0  0  0  0999 V2000
   30.8410   21.2070   18.9500 O   0  0  0  0  0  0  0  0  0  0  0  0
   30.7420   22.3520   19.8030 S   0  0  0  0  0  0  0  0  0  0  0  0
   31.1650   23.6310   19.3300 O   0  0  0  0  0  0  0  0  0  0  0  0
   31.5440   22.0290   21.1570 N   0  0  0  0  0  0  0  0  0  0  0  0
   29.0600   22.4980   20.3890 C   0  0  0  0  0  0  0  0  0  0  0  0
   28.0690   21.3910   19.9860 C   0  0  1  0  0  0  0  0  0  0  0  0
   28.8230   20.1060   19.7090 C   0  0  0  0  0  0  0  0  0  0  0  0
   26.9100   21.1550   20.9510 C   0  0  0  0  0  0  0  0  0  0  0  0
   26.5150   22.1300   21.8550 C   0  0  0  0  0  0  0  0  0  0  0  0
   25.3880   21.9510   22.6440 C   0  0  0  0  0  0  0  0  0  0  0  0
   24.6640   20.7890   22.5670 C   0  0  0  0  0  0  0  0  0  0  0  0
   25.0580   19.8000   21.7010 C   0  0  0  0  0  0  0  0  0  0  0  0
   26.1720   19.9790   20.8970 C   0  0  0  0  0  0  0  0  0  0  0  0
  6  7  1  1
  6  5  1  0
  5  2  1  0
  3  2  2  0
  2  1  2  0
  4  2  1  0
  8  6  1  0
  8 13  2  0
 13 12  1  0
 12 11  2  0
 11 10  1  0
 10  9  2  0
  9  8  1  0
M  END
>  <id>  (78) 
78

>  <inchikey>  (78) 
HXLOQIXEAPZOSG-MRVPVSSYSA-N

>  <alias>  (78) 
A0719b

>  <smiles>  (78) 
C[C@H](CS(N)(=O)=O)c1ccccc1

>  <path>  (78) 
/opt/xchem-fragalysis-2/maxwin/BulkDock/TARGETS/A71EV2A/aligned_files/A0719b/A0719b.pdb

>  <distance_score>  (78) 
None

>  <energy_score>  (78) 
None

>  <compound>  (78) 
HXLOQIXEAPZOSG-UHFFFAOYSA-N

>  <compound_id>  (78) 
63

>  <target>  (78) 
A71EV2A

>  <tags>  (78) 
['[Other] Fragment Screen', 'GOOD count', 'MEDIOCRE count', 'hits', '[Other] upload_1 2024-12-06', 'Main status', '[Other] New', '[Other] upload_1 2025-02-12', 'BAD count']

>  <inspirations>  (78) 
None

>  <subsites>  (78) 
None

>  <reference>  (78) 


>  <observation_longname>  (78) 
A71EV2A-x0719_A_201_v1

>  <ConformerSites alias>  (78) 
5a - A3181/A/202

>  <CanonSites alias>  (78) 
5 - A3181/A/202/1

>  <CrystalformSites alias>  (78) 
F2aa - A0528/A/201

>  <Quatassemblies alias>  (78) 
A1 - monomer

>  <Crystalforms alias>  (78) 
F2 - A71_2A_open_small_cell

>  <ConformerSites upload name>  (78) 
5a - A71EV2A-x3181/A/202

>  <CanonSites upload name>  (78) 
5 - A71EV2A-x3181/A/202/1

>  <CrystalformSites upload name>  (78) 
F2aa - A71EV2A-x0528/A/201/1

>  <Quatassemblies upload name>  (78) 
A1 - monomer

>  <Crystalforms upload name>  (78) 
F2 - A71_2A_open_small_cell

>  <ConformerSites short tag>  (78) 
5a - A3181/A/202

>  <CanonSites short tag>  (78) 
5 - A3181/A/202/1

>  <CrystalformSites short tag>  (78) 
F2aa - A0528/A/201

>  <Quatassemblies short tag>  (78) 
A1 - monomer

>  <Crystalforms short tag>  (78) 
F2 - A71_2A_open_small_cell

>  <Centroid res>  (78) 
A71EV2A-x3181/A/20/A_v1

>  <Experiment code>  (78) 
A71EV2A-x0719

>  <Pose>  (78) 
A0719b

$$$$
A0732a
     RDKit          3D

 14 14  0  0  0  0  0  0  0  0999 V2000
    5.9580   13.3350   22.4190 O   0  0  0  0  0  0  0  0  0  0  0  0
    6.5610   14.0820   23.1870 C   0  0  0  0  0  0  0  0  0  0  0  0
    6.4620   15.5800   23.0160 C   0  0  0  0  0  0  0  0  0  0  0  0
    6.2060   16.2370   24.2430 O   0  0  0  0  0  0  0  0  0  0  0  0
    7.3430   13.6550   24.2050 N   0  0  0  0  0  0  0  0  0  0  0  0
    8.1700   12.4990   24.1270 C   0  0  0  0  0  0  0  0  0  0  0  0
    7.7760   11.3330   24.7890 C   0  0  0  0  0  0  0  0  0  0  0  0
    6.6260   11.3240   25.7630 C   0  0  0  0  0  0  0  0  0  0  0  0
    8.5070   10.1710   24.5600 C   0  0  0  0  0  0  0  0  0  0  0  0
    9.3050   12.5240   23.3100 C   0  0  0  0  0  0  0  0  0  0  0  0
    9.7870   13.7900   22.6490 C   0  0  0  0  0  0  0  0  0  0  0  0
   10.0030   11.3350   23.1220 C   0  0  0  0  0  0  0  0  0  0  0  0
    9.6110   10.1460   23.7190 C   0  0  0  0  0  0  0  0  0  0  0  0
   10.3300    8.8550   23.4190 C   0  0  0  0  0  0  0  0  0  0  0  0
 14 13  1  0
 13  9  2  0
  9  7  1  0
  8  7  1  0
  7  6  2  0
  6  5  1  0
  5  2  1  0
  2  1  2  0
  3  2  1  0
  4  3  1  0
 10  6  1  0
 11 10  1  0
 12 10  2  0
 13 12  1  0
M  END
>  <id>  (79) 
79

>  <inchikey>  (79) 
XXCOYYOVKYXTIE-UHFFFAOYSA-N

>  <alias>  (79) 
A0732a

>  <smiles>  (79) 
Cc1cc(C)c(NC(=O)CO)c(C)c1

>  <path>  (79) 
/opt/xchem-fragalysis-2/maxwin/BulkDock/TARGETS/A71EV2A/aligned_files/A0732a/A0732a.pdb

>  <distance_score>  (79) 
None

>  <energy_score>  (79) 
None

>  <compound>  (79) 
XXCOYYOVKYXTIE-UHFFFAOYSA-N

>  <compound_id>  (79) 
64

>  <target>  (79) 
A71EV2A

>  <tags>  (79) 
['[Other] Fragment Screen', 'GOOD count', 'MEDIOCRE count', '[Other] S1 site', 'hits', '[Other] Active site fragment', '[Other] upload_1 2024-12-06', 'Main status', '[Other] New', '[Other] upload_1 2025-02-12', 'BAD count', '[Other] S3 site']

>  <inspirations>  (79) 
None

>  <subsites>  (79) 
None

>  <reference>  (79) 


>  <observation_longname>  (79) 
A71EV2A-x0732_A_201_v1

>  <ConformerSites alias>  (79) 
1b - A0911/A/147

>  <CanonSites alias>  (79) 
1 - Active Site

>  <CrystalformSites alias>  (79) 
F1a - A0375/A/201

>  <Quatassemblies alias>  (79) 
A1 - monomer

>  <Crystalforms alias>  (79) 
F1 - A71_2A_open

>  <ConformerSites upload name>  (79) 
1b - A71EV2A-x0911/A/147

>  <CanonSites upload name>  (79) 
1 - A71EV2A-x0911/A/147/1

>  <CrystalformSites upload name>  (79) 
F1a - A71EV2A-x0375/A/201/1

>  <Quatassemblies upload name>  (79) 
A1 - monomer

>  <Crystalforms upload name>  (79) 
F1 - A71_2A_open

>  <ConformerSites short tag>  (79) 
1b - A0911/A/147

>  <CanonSites short tag>  (79) 
1 - A0911/A/147/1

>  <CrystalformSites short tag>  (79) 
F1a - A0375/A/201

>  <Quatassemblies short tag>  (79) 
A1 - monomer

>  <Crystalforms short tag>  (79) 
F1 - A71_2A_open

>  <Centroid res>  (79) 
A71EV2A-x0911/A/133/A_v1

>  <Experiment code>  (79) 
A71EV2A-x0732

>  <Pose>  (79) 
A0732a

$$$$
A0739a
     RDKit          3D

 18 19  0  0  0  0  0  0  0  0999 V2000
    7.9950   15.7680   23.6460 O   0  0  0  0  0  0  0  0  0  0  0  0
    7.4350   15.4290   24.6730 C   0  0  0  0  0  0  0  0  0  0  0  0
    6.3860   16.0990   25.1890 N   0  0  0  0  0  0  0  0  0  0  0  0
    5.8680   16.1600   26.5580 C   0  0  0  0  0  0  0  0  0  0  0  0
    4.3860   15.8640   26.5570 C   0  0  0  0  0  0  0  0  0  0  0  0
    3.6910   16.7500   25.6930 O   0  0  0  0  0  0  0  0  0  0  0  0
    4.0810   16.4540   24.3780 C   0  0  0  0  0  0  0  0  0  0  0  0
    5.5540   16.7530   24.1610 C   0  0  0  0  0  0  0  0  0  0  0  0
    7.7750   14.1330   25.3050 C   0  0  0  0  0  0  0  0  0  0  0  0
    6.8440   13.3340   24.6930 O   0  0  0  0  0  0  0  0  0  0  0  0
    7.2930   12.3510   23.8490 C   0  0  0  0  0  0  0  0  0  0  0  0
    8.3100   12.5300   22.9300 C   0  0  0  0  0  0  0  0  0  0  0  0
    8.9380   11.4210   22.3870 C   0  0  0  0  0  0  0  0  0  0  0  0
    6.8250   11.0820   24.1550 C   0  0  0  0  0  0  0  0  0  0  0  0
    5.6130   10.8930   25.0280 C   0  0  0  0  0  0  0  0  0  0  0  0
    7.4690    9.9910   23.5820 C   0  0  0  0  0  0  0  0  0  0  0  0
    8.5290   10.1340   22.7010 C   0  0  0  0  0  0  0  0  0  0  0  0
    9.1950    8.9260   22.0760 C   0  0  0  0  0  0  0  0  0  0  0  0
 18 17  1  0
 17 13  1  0
 13 12  2  0
 12 11  1  0
 11 10  1  0
 10  9  1  0
  9  2  1  0
  2  1  2  0
  3  2  1  0
  3  8  1  0
  8  7  1  0
  7  6  1  0
  6  5  1  0
  5  4  1  0
  4  3  1  0
 14 11  2  0
 15 14  1  0
 16 14  1  0
 17 16  2  0
M  END
>  <id>  (80) 
80

>  <inchikey>  (80) 
SPKPARPPRVMDOW-UHFFFAOYSA-N

>  <alias>  (80) 
A0739a

>  <smiles>  (80) 
Cc1ccc(OCC(=O)N2CCOCC2)c(C)c1

>  <path>  (80) 
/opt/xchem-fragalysis-2/maxwin/BulkDock/TARGETS/A71EV2A/aligned_files/A0739a/A0739a.pdb

>  <distance_score>  (80) 
None

>  <energy_score>  (80) 
None

>  <compound>  (80) 
SPKPARPPRVMDOW-UHFFFAOYSA-N

>  <compound_id>  (80) 
65

>  <target>  (80) 
A71EV2A

>  <tags>  (80) 
['[Other] Fragment Screen', 'GOOD count', 'MEDIOCRE count', '[Other] S1 site', 'hits', '[Other] Active site fragment', '[Other] upload_1 2024-12-06', 'Main status', '[Other] New', '[Other] upload_1 2025-02-12', 'BAD count', '[Other] S3 site']

>  <inspirations>  (80) 
None

>  <subsites>  (80) 
None

>  <reference>  (80) 


>  <observation_longname>  (80) 
A71EV2A-x0739_A_147_v1

>  <ConformerSites alias>  (80) 
1a - A0739/A/147

>  <CanonSites alias>  (80) 
1 - Active Site

>  <CrystalformSites alias>  (80) 
F1a - A0375/A/201

>  <Quatassemblies alias>  (80) 
A1 - monomer

>  <Crystalforms alias>  (80) 
F1 - A71_2A_open

>  <ConformerSites upload name>  (80) 
1a - A71EV2A-x0739/A/147

>  <CanonSites upload name>  (80) 
1 - A71EV2A-x0911/A/147/1

>  <CrystalformSites upload name>  (80) 
F1a - A71EV2A-x0375/A/201/1

>  <Quatassemblies upload name>  (80) 
A1 - monomer

>  <Crystalforms upload name>  (80) 
F1 - A71_2A_open

>  <ConformerSites short tag>  (80) 
1a - A0739/A/147

>  <CanonSites short tag>  (80) 
1 - A0911/A/147/1

>  <CrystalformSites short tag>  (80) 
F1a - A0375/A/201

>  <Quatassemblies short tag>  (80) 
A1 - monomer

>  <Crystalforms short tag>  (80) 
F1 - A71_2A_open

>  <Centroid res>  (80) 
A71EV2A-x0911/A/133/A_v1

>  <Experiment code>  (80) 
A71EV2A-x0739

>  <Pose>  (80) 
A0739a

$$$$
A0812a
     RDKit          3D

 13 14  0  0  0  0  0  0  0  0999 V2000
    9.3410   14.9020   22.5290 O   0  0  0  0  0  0  0  0  0  0  0  0
    9.9230   13.8220   22.3490 C   0  0  0  0  0  0  0  0  0  0  0  0
   11.1510   13.7360   21.8510 N   0  0  0  0  0  0  0  0  0  0  0  0
    9.2560   12.5440   22.6920 C   0  0  0  0  0  0  0  0  0  0  0  0
    9.7020   11.3760   22.2270 N   0  0  0  0  0  0  0  0  0  0  0  0
    8.0920   12.3580   23.5140 C   0  0  0  0  0  0  0  0  0  0  0  0
    7.8670   10.9780   23.5000 C   0  0  0  0  0  0  0  0  0  0  0  0
    8.8430   10.4260   22.7260 N   0  0  0  0  0  0  0  0  0  0  0  0
    9.0480    9.0220   22.4080 C   0  0  0  0  0  0  0  0  0  0  0  0
    6.8200   10.4020   24.2070 C   0  0  0  0  0  0  0  0  0  0  0  0
    5.9870   11.2320   24.9450 C   0  0  0  0  0  0  0  0  0  0  0  0
    6.1920   12.6030   24.9660 C   0  0  0  0  0  0  0  0  0  0  0  0
    7.2410   13.1750   24.2560 C   0  0  0  0  0  0  0  0  0  0  0  0
  9  8  1  0
  8  5  1  0
  5  4  2  0
  4  2  1  0
  2  1  2  0
  3  2  1  0
  6  4  1  0
  6 13  2  0
 13 12  1  0
 12 11  2  0
 11 10  1  0
 10  7  2  0
  8  7  1  0
  7  6  1  0
M  END
>  <id>  (81) 
81

>  <inchikey>  (81) 
PVROETJHCUDAFG-UHFFFAOYSA-N

>  <alias>  (81) 
A0812a

>  <smiles>  (81) 
Cn1nc(C(N)=O)c2ccccc21

>  <path>  (81) 
/opt/xchem-fragalysis-2/maxwin/BulkDock/TARGETS/A71EV2A/aligned_files/A0812a/A0812a.pdb

>  <distance_score>  (81) 
None

>  <energy_score>  (81) 
None

>  <compound>  (81) 
PVROETJHCUDAFG-UHFFFAOYSA-N

>  <compound_id>  (81) 
66

>  <target>  (81) 
A71EV2A

>  <tags>  (81) 
['[Other] Fragment Screen', 'GOOD count', 'MEDIOCRE count', '[Other] S1 site', 'hits', '[Other] Active site fragment', '[Other] upload_1 2024-12-06', 'Main status', '[Other] New', '[Other] upload_1 2025-02-12', 'BAD count']

>  <inspirations>  (81) 
None

>  <subsites>  (81) 
None

>  <reference>  (81) 


>  <observation_longname>  (81) 
A71EV2A-x0812_A_147_v1

>  <ConformerSites alias>  (81) 
1b - A0911/A/147

>  <CanonSites alias>  (81) 
1 - Active Site

>  <CrystalformSites alias>  (81) 
F1a - A0375/A/201

>  <Quatassemblies alias>  (81) 
A1 - monomer

>  <Crystalforms alias>  (81) 
F1 - A71_2A_open

>  <ConformerSites upload name>  (81) 
1b - A71EV2A-x0911/A/147

>  <CanonSites upload name>  (81) 
1 - A71EV2A-x0911/A/147/1

>  <CrystalformSites upload name>  (81) 
F1a - A71EV2A-x0375/A/201/1

>  <Quatassemblies upload name>  (81) 
A1 - monomer

>  <Crystalforms upload name>  (81) 
F1 - A71_2A_open

>  <ConformerSites short tag>  (81) 
1b - A0911/A/147

>  <CanonSites short tag>  (81) 
1 - A0911/A/147/1

>  <CrystalformSites short tag>  (81) 
F1a - A0375/A/201

>  <Quatassemblies short tag>  (81) 
A1 - monomer

>  <Crystalforms short tag>  (81) 
F1 - A71_2A_open

>  <Centroid res>  (81) 
A71EV2A-x0911/A/133/A_v1

>  <Experiment code>  (81) 
A71EV2A-x0812

>  <Pose>  (81) 
A0812a

$$$$
A0831a
     RDKit          3D

 15 16  0  0  0  0  0  0  0  0999 V2000
    9.5670   -7.7660   12.0630 N   0  0  0  0  0  0  0  0  0  0  0  0
   10.8570   -8.1700   12.3260 C   0  0  0  0  0  0  0  0  0  0  0  0
   11.6130   -7.5310   13.3100 C   0  0  0  0  0  0  0  0  0  0  0  0
   12.9000   -7.9610   13.5980 C   0  0  0  0  0  0  0  0  0  0  0  0
   13.4530   -9.0330   12.9150 C   0  0  0  0  0  0  0  0  0  0  0  0
   12.7100   -9.6660   11.9290 C   0  0  0  0  0  0  0  0  0  0  0  0
   11.4260   -9.2400   11.6310 C   0  0  0  0  0  0  0  0  0  0  0  0
   13.7210   -7.3850   14.5390 O   0  0  0  0  0  0  0  0  0  0  0  0
   13.1330   -6.9440   15.7720 C   0  0  0  0  0  0  0  0  0  0  0  0
   14.1560   -6.2770   16.6450 C   0  0  0  0  0  0  0  0  0  0  0  0
   15.4080   -6.8380   16.8500 C   0  0  0  0  0  0  0  0  0  0  0  0
   16.3530   -6.1950   17.6340 C   0  0  0  0  0  0  0  0  0  0  0  0
   16.0600   -4.9830   18.2160 C   0  0  0  0  0  0  0  0  0  0  0  0
   14.8210   -4.4150   18.0230 C   0  0  0  0  0  0  0  0  0  0  0  0
   13.8710   -5.0610   17.2470 C   0  0  0  0  0  0  0  0  0  0  0  0
  2  1  1  0
  2  7  2  0
  7  6  1  0
  6  5  2  0
  5  4  1  0
  8  4  1  0
  9  8  1  0
 10  9  1  0
 10 15  2  0
 15 14  1  0
 14 13  2  0
 13 12  1  0
 12 11  2  0
 11 10  1  0
  4  3  2  0
  3  2  1  0
M  END
>  <id>  (82) 
82

>  <inchikey>  (82) 
IGPFOKFDBICQMC-UHFFFAOYSA-N

>  <alias>  (82) 
A0831a

>  <smiles>  (82) 
Nc1cccc(OCc2ccccc2)c1

>  <path>  (82) 
/opt/xchem-fragalysis-2/maxwin/BulkDock/TARGETS/A71EV2A/aligned_files/A0831a/A0831a.pdb

>  <distance_score>  (82) 
None

>  <energy_score>  (82) 
None

>  <compound>  (82) 
IGPFOKFDBICQMC-UHFFFAOYSA-N

>  <compound_id>  (82) 
67

>  <target>  (82) 
A71EV2A

>  <tags>  (82) 
['[Other] Fragment Screen', 'GOOD count', 'MEDIOCRE count', 'hits', '[Other] upload_1 2024-12-06', 'Main status', '[Other] New', '[Other] upload_1 2025-02-12', 'BAD count']

>  <inspirations>  (82) 
None

>  <subsites>  (82) 
None

>  <reference>  (82) 


>  <observation_longname>  (82) 
A71EV2A-x0831_A_147_v1

>  <ConformerSites alias>  (82) 
2a - A3977/A/202

>  <CanonSites alias>  (82) 
2 - A3977/A/202/1

>  <CrystalformSites alias>  (82) 
F1s - A0152/A/201

>  <Quatassemblies alias>  (82) 
A1 - monomer

>  <Crystalforms alias>  (82) 
F1 - A71_2A_open

>  <ConformerSites upload name>  (82) 
2a - A71EV2A-x3977/A/202

>  <CanonSites upload name>  (82) 
2 - A71EV2A-x3977/A/202/1

>  <CrystalformSites upload name>  (82) 
F1s - A71EV2A-x0152/A/201/1

>  <Quatassemblies upload name>  (82) 
A1 - monomer

>  <Crystalforms upload name>  (82) 
F1 - A71_2A_open

>  <ConformerSites short tag>  (82) 
2a - A3977/A/202

>  <CanonSites short tag>  (82) 
2 - A3977/A/202/1

>  <CrystalformSites short tag>  (82) 
F1s - A0152/A/201

>  <Quatassemblies short tag>  (82) 
A1 - monomer

>  <Crystalforms short tag>  (82) 
F1 - A71_2A_open

>  <Centroid res>  (82) 
A71EV2A-x3977/A/113/A_v1

>  <Experiment code>  (82) 
A71EV2A-x0831

>  <Pose>  (82) 
A0831a

$$$$
A0836a
     RDKit          3D

 16 17  0  0  0  0  0  0  0  0999 V2000
    5.4350   13.3750   26.9030 N   0  0  0  0  0  0  0  0  0  0  0  0
    5.9190   12.0340   27.2140 C   0  0  2  0  0  0  0  0  0  0  0  0
    6.4980   11.9090   28.6140 C   0  0  0  0  0  0  0  0  0  0  0  0
    7.4600   12.8020   29.0630 C   0  0  0  0  0  0  0  0  0  0  0  0
    8.0280   12.6570   30.3180 C   0  0  0  0  0  0  0  0  0  0  0  0
    7.6440   11.6150   31.1370 C   0  0  0  0  0  0  0  0  0  0  0  0
    6.6880   10.7220   30.7030 C   0  0  0  0  0  0  0  0  0  0  0  0
    6.1170   10.8680   29.4510 C   0  0  0  0  0  0  0  0  0  0  0  0
    6.9290   11.5200   26.2010 C   0  0  0  0  0  0  0  0  0  0  0  0
    6.9880   10.1660   25.9120 C   0  0  0  0  0  0  0  0  0  0  0  0
    7.8720    9.6730   24.9710 C   0  0  0  0  0  0  0  0  0  0  0  0
    7.7940   12.3740   25.5290 C   0  0  0  0  0  0  0  0  0  0  0  0
    8.6900   11.8930   24.5900 C   0  0  0  0  0  0  0  0  0  0  0  0
    8.7300   10.5350   24.3120 C   0  0  0  0  0  0  0  0  0  0  0  0
    9.6390   10.0890   23.3860 O   0  0  0  0  0  0  0  0  0  0  0  0
    9.7970    8.6840   23.2110 C   0  0  0  0  0  0  0  0  0  0  0  0
 16 15  1  0
 15 14  1  0
 14 11  1  0
 11 10  2  0
 10  9  1  0
 12  9  2  0
 13 12  1  0
 14 13  2  0
  9  2  1  0
  2  1  1  6
  3  2  1  0
  3  8  2  0
  8  7  1  0
  7  6  2  0
  6  5  1  0
  5  4  2  0
  4  3  1  0
M  END
>  <id>  (83) 
83

>  <inchikey>  (83) 
MXDBCXKVTJDKNP-CQSZACIVSA-N

>  <alias>  (83) 
A0836a

>  <smiles>  (83) 
COc1ccc([C@H](N)c2ccccc2)cc1

>  <path>  (83) 
/opt/xchem-fragalysis-2/maxwin/BulkDock/TARGETS/A71EV2A/aligned_files/A0836a/A0836a.pdb

>  <distance_score>  (83) 
None

>  <energy_score>  (83) 
None

>  <compound>  (83) 
MXDBCXKVTJDKNP-UHFFFAOYSA-N

>  <compound_id>  (83) 
68

>  <target>  (83) 
A71EV2A

>  <tags>  (83) 
['[Other] Fragment Screen', 'GOOD count', 'MEDIOCRE count', '[Other] S1 site', 'hits', '[Other] Active site fragment', '[Other] upload_1 2024-12-06', 'Main status', '[Other] New', '[Other] upload_1 2025-02-12', 'BAD count']

>  <inspirations>  (83) 
None

>  <subsites>  (83) 
None

>  <reference>  (83) 


>  <observation_longname>  (83) 
A71EV2A-x0836_A_301_v1

>  <ConformerSites alias>  (83) 
1b - A0911/A/147

>  <CanonSites alias>  (83) 
1 - Active Site

>  <CrystalformSites alias>  (83) 
F4f - A0836/A/301

>  <Quatassemblies alias>  (83) 
A1 - monomer

>  <Crystalforms alias>  (83) 
F4 - A71_2A_new_model_x2721_4.1_ref3

>  <ConformerSites upload name>  (83) 
1b - A71EV2A-x0911/A/147

>  <CanonSites upload name>  (83) 
1 - A71EV2A-x0911/A/147/1

>  <CrystalformSites upload name>  (83) 
F4f - A71EV2A-x0836/A/301/1

>  <Quatassemblies upload name>  (83) 
A1 - monomer

>  <Crystalforms upload name>  (83) 
F4 - A71_2A_new_model_x2721_4.1_ref3

>  <ConformerSites short tag>  (83) 
1b - A0911/A/147

>  <CanonSites short tag>  (83) 
1 - A0911/A/147/1

>  <CrystalformSites short tag>  (83) 
F4f - A0836/A/301

>  <Quatassemblies short tag>  (83) 
A1 - monomer

>  <Crystalforms short tag>  (83) 
F4 - A71_2A_new_model_x2721_4.1_ref3

>  <Centroid res>  (83) 
A71EV2A-x0911/A/133/A_v1

>  <Experiment code>  (83) 
A71EV2A-x0836

>  <Pose>  (83) 
A0836a

$$$$
A0836b
     RDKit          3D

 16 17  0  0  0  0  0  0  0  0999 V2000
    0.8100   15.2180   19.1410 N   0  0  0  0  0  0  0  0  0  0  0  0
    0.3990   13.8240   18.9360 C   0  0  2  0  0  0  0  0  0  0  0  0
    1.5610   12.8490   19.0450 C   0  0  0  0  0  0  0  0  0  0  0  0
    2.6300   12.9050   18.1640 C   0  0  0  0  0  0  0  0  0  0  0  0
    3.6950   12.0290   18.2900 C   0  0  0  0  0  0  0  0  0  0  0  0
    3.7040   11.0870   19.2920 C   0  0  0  0  0  0  0  0  0  0  0  0
    2.6520   11.0200   20.1730 C   0  0  0  0  0  0  0  0  0  0  0  0
    1.5850   11.8940   20.0510 C   0  0  0  0  0  0  0  0  0  0  0  0
   -0.4310   13.6700   17.6690 C   0  0  0  0  0  0  0  0  0  0  0  0
   -0.7990   12.4250   17.1820 C   0  0  0  0  0  0  0  0  0  0  0  0
   -1.5630   12.3040   16.0360 C   0  0  0  0  0  0  0  0  0  0  0  0
   -0.8470   14.7950   16.9760 C   0  0  0  0  0  0  0  0  0  0  0  0
   -1.6120   14.6880   15.8300 C   0  0  0  0  0  0  0  0  0  0  0  0
   -1.9690   13.4410   15.3590 C   0  0  0  0  0  0  0  0  0  0  0  0
   -2.7160   13.4240   14.2100 O   0  0  0  0  0  0  0  0  0  0  0  0
   -4.1340   13.4180   14.3370 C   0  0  0  0  0  0  0  0  0  0  0  0
 16 15  1  0
 15 14  1  0
 14 11  1  0
 11 10  2  0
 10  9  1  0
 12  9  2  0
 13 12  1  0
 14 13  2  0
  9  2  1  0
  2  1  1  6
  3  2  1  0
  3  8  2  0
  8  7  1  0
  7  6  2  0
  6  5  1  0
  5  4  2  0
  4  3  1  0
M  END
>  <id>  (84) 
84

>  <inchikey>  (84) 
MXDBCXKVTJDKNP-CQSZACIVSA-N

>  <alias>  (84) 
A0836b

>  <smiles>  (84) 
COc1ccc([C@H](N)c2ccccc2)cc1

>  <path>  (84) 
/opt/xchem-fragalysis-2/maxwin/BulkDock/TARGETS/A71EV2A/aligned_files/A0836b/A0836b.pdb

>  <distance_score>  (84) 
None

>  <energy_score>  (84) 
None

>  <compound>  (84) 
MXDBCXKVTJDKNP-UHFFFAOYSA-N

>  <compound_id>  (84) 
68

>  <target>  (84) 
A71EV2A

>  <tags>  (84) 
['[Other] Fragment Screen', 'GOOD count', 'MEDIOCRE count', 'hits', '[Other] Active site fragment', '[Other] upload_1 2024-12-06', 'Main status', '[Other] New', '[Other] upload_1 2025-02-12', 'BAD count']

>  <inspirations>  (84) 
None

>  <subsites>  (84) 
None

>  <reference>  (84) 


>  <observation_longname>  (84) 
A71EV2A-x0836_A_302_v1

>  <ConformerSites alias>  (84) 
1b - A0911/A/147

>  <CanonSites alias>  (84) 
1 - Active Site

>  <CrystalformSites alias>  (84) 
F4f - A0836/A/301

>  <Quatassemblies alias>  (84) 
A1 - monomer

>  <Crystalforms alias>  (84) 
F4 - A71_2A_new_model_x2721_4.1_ref3

>  <ConformerSites upload name>  (84) 
1b - A71EV2A-x0911/A/147

>  <CanonSites upload name>  (84) 
1 - A71EV2A-x0911/A/147/1

>  <CrystalformSites upload name>  (84) 
F4f - A71EV2A-x0836/A/301/1

>  <Quatassemblies upload name>  (84) 
A1 - monomer

>  <Crystalforms upload name>  (84) 
F4 - A71_2A_new_model_x2721_4.1_ref3

>  <ConformerSites short tag>  (84) 
1b - A0911/A/147

>  <CanonSites short tag>  (84) 
1 - A0911/A/147/1

>  <CrystalformSites short tag>  (84) 
F4f - A0836/A/301

>  <Quatassemblies short tag>  (84) 
A1 - monomer

>  <Crystalforms short tag>  (84) 
F4 - A71_2A_new_model_x2721_4.1_ref3

>  <Centroid res>  (84) 
A71EV2A-x0911/A/133/A_v1

>  <Experiment code>  (84) 
A71EV2A-x0836

>  <Pose>  (84) 
A0836a

$$$$
A0853a
     RDKit          3D

 15 17  0  0  0  0  0  0  0  0999 V2000
   -0.5200   12.4570   21.6190 O   0  0  0  0  0  0  0  0  0  0  0  0
    0.2240   13.2410   21.0430 C   0  0  0  0  0  0  0  0  0  0  0  0
    1.1310   13.9790   21.6900 N   0  0  0  0  0  0  0  0  0  0  0  0
    0.9360   15.4050   21.9410 C   0  0  0  0  0  0  0  0  0  0  0  0
    0.4640   15.8250   23.2840 C   0  0  0  0  0  0  0  0  0  0  0  0
   -0.4430   15.9240   22.1100 C   0  0  0  0  0  0  0  0  0  0  0  0
    0.1410   13.4340   19.5660 C   0  0  0  0  0  0  0  0  0  0  0  0
    0.7340   12.5090   18.7100 C   0  0  0  0  0  0  0  0  0  0  0  0
    0.6350   12.7190   17.3570 C   0  0  0  0  0  0  0  0  0  0  0  0
    1.0520   11.9040   16.3290 O   0  0  0  0  0  0  0  0  0  0  0  0
    0.4170   12.4460   15.1690 C   0  0  0  0  0  0  0  0  0  0  0  0
    0.0490   13.7890   15.4760 O   0  0  0  0  0  0  0  0  0  0  0  0
   -0.0080   13.8190   16.8480 C   0  0  0  0  0  0  0  0  0  0  0  0
   -0.6060   14.7500   17.6720 C   0  0  0  0  0  0  0  0  0  0  0  0
   -0.5290   14.5450   19.0390 C   0  0  0  0  0  0  0  0  0  0  0  0
  2  1  2  0
  3  2  1  0
  4  3  1  0
  4  6  1  0
  6  5  1  0
  5  4  1  0
  7  2  1  0
  7 15  2  0
 15 14  1  0
 14 13  2  0
 13 12  1  0
 12 11  1  0
 11 10  1  0
 10  9  1  0
 13  9  1  0
  9  8  2  0
  8  7  1  0
M  END
>  <id>  (85) 
85

>  <inchikey>  (85) 
OUGQMSXIPFSZBI-UHFFFAOYSA-N

>  <alias>  (85) 
A0853a

>  <smiles>  (85) 
O=C(NC1CC1)c1ccc2c(c1)OCO2

>  <path>  (85) 
/opt/xchem-fragalysis-2/maxwin/BulkDock/TARGETS/A71EV2A/aligned_files/A0853a/A0853a.pdb

>  <distance_score>  (85) 
None

>  <energy_score>  (85) 
None

>  <compound>  (85) 
OUGQMSXIPFSZBI-UHFFFAOYSA-N

>  <compound_id>  (85) 
69

>  <target>  (85) 
A71EV2A

>  <tags>  (85) 
['GOOD count', 'MEDIOCRE count', 'hits', '[Other] upload_1 2025-02-12', 'Main status', 'BAD count']

>  <inspirations>  (85) 
None

>  <subsites>  (85) 
None

>  <reference>  (85) 


>  <observation_longname>  (85) 
A71EV2A-x0853_A_147_v1

>  <ConformerSites alias>  (85) 
1b - A0911/A/147

>  <CanonSites alias>  (85) 
1 - Active Site

>  <CrystalformSites alias>  (85) 
F1g - A0853/A/147

>  <Quatassemblies alias>  (85) 
A1 - monomer

>  <Crystalforms alias>  (85) 
F1 - A71_2A_open

>  <ConformerSites upload name>  (85) 
1b - A71EV2A-x0911/A/147

>  <CanonSites upload name>  (85) 
1 - A71EV2A-x0911/A/147/1

>  <CrystalformSites upload name>  (85) 
F1g - A71EV2A-x0853/A/147/1

>  <Quatassemblies upload name>  (85) 
A1 - monomer

>  <Crystalforms upload name>  (85) 
F1 - A71_2A_open

>  <ConformerSites short tag>  (85) 
1b - A0911/A/147

>  <CanonSites short tag>  (85) 
1 - A0911/A/147/1

>  <CrystalformSites short tag>  (85) 
F1g - A0853/A/147

>  <Quatassemblies short tag>  (85) 
A1 - monomer

>  <Crystalforms short tag>  (85) 
F1 - A71_2A_open

>  <Centroid res>  (85) 
A71EV2A-x0911/A/133/A_v1

>  <Experiment code>  (85) 
A71EV2A-x0853

>  <Pose>  (85) 
A0853a

$$$$
A0863a
     RDKit          3D

 14 14  0  0  0  0  0  0  0  0999 V2000
   27.7580   20.3250   19.0390 O   0  0  0  0  0  0  0  0  0  0  0  0
   28.1430   21.0370   19.9400 C   0  0  0  0  0  0  0  0  0  0  0  0
   27.3410   21.3460   20.9790 N   0  0  0  0  0  0  0  0  0  0  0  0
   27.6460   22.1370   22.1730 C   0  0  0  0  0  0  0  0  0  0  0  0
   26.6580   21.9320   23.2970 C   0  0  0  0  0  0  0  0  0  0  0  0
   25.9410   20.9030   20.8390 C   0  0  0  0  0  0  0  0  0  0  0  0
   25.7170   19.5050   21.3010 C   0  0  0  0  0  0  0  0  0  0  0  0
   29.5310   21.5930   19.8540 C   0  0  0  0  0  0  0  0  0  0  0  0
   29.8470   22.9310   20.0940 C   0  0  0  0  0  0  0  0  0  0  0  0
   31.1050   23.4270   19.7940 C   0  0  0  0  0  0  0  0  0  0  0  0
   32.0810   22.6070   19.2250 C   0  0  0  0  0  0  0  0  0  0  0  0
   33.3400   23.1050   18.9240 N   0  0  0  0  0  0  0  0  0  0  0  0
   31.7600   21.2680   18.9750 C   0  0  0  0  0  0  0  0  0  0  0  0
   30.5110   20.7680   19.3010 C   0  0  0  0  0  0  0  0  0  0  0  0
  7  6  1  0
  6  3  1  0
  4  3  1  0
  5  4  1  0
  3  2  1  0
  2  1  2  0
  8  2  1  0
  8 14  2  0
 14 13  1  0
 13 11  2  0
 12 11  1  0
 11 10  1  0
 10  9  2  0
  9  8  1  0
M  END
>  <id>  (86) 
86

>  <inchikey>  (86) 
RNVOPVJRSRXPSX-UHFFFAOYSA-N

>  <alias>  (86) 
A0863a

>  <smiles>  (86) 
CCN(CC)C(=O)c1ccc(N)cc1

>  <path>  (86) 
/opt/xchem-fragalysis-2/maxwin/BulkDock/TARGETS/A71EV2A/aligned_files/A0863a/A0863a.pdb

>  <distance_score>  (86) 
None

>  <energy_score>  (86) 
None

>  <compound>  (86) 
RNVOPVJRSRXPSX-UHFFFAOYSA-N

>  <compound_id>  (86) 
70

>  <target>  (86) 
A71EV2A

>  <tags>  (86) 
['[Other] Fragment Screen', 'GOOD count', 'MEDIOCRE count', 'hits', '[Other] upload_1 2024-12-06', 'Main status', '[Other] New', '[Other] upload_1 2025-02-12', 'BAD count']

>  <inspirations>  (86) 
None

>  <subsites>  (86) 
None

>  <reference>  (86) 


>  <observation_longname>  (86) 
A71EV2A-x0863_A_147_v1

>  <ConformerSites alias>  (86) 
5a - A3181/A/202

>  <CanonSites alias>  (86) 
5 - A3181/A/202/1

>  <CrystalformSites alias>  (86) 
F2aa - A0528/A/201

>  <Quatassemblies alias>  (86) 
A1 - monomer

>  <Crystalforms alias>  (86) 
F2 - A71_2A_open_small_cell

>  <ConformerSites upload name>  (86) 
5a - A71EV2A-x3181/A/202

>  <CanonSites upload name>  (86) 
5 - A71EV2A-x3181/A/202/1

>  <CrystalformSites upload name>  (86) 
F2aa - A71EV2A-x0528/A/201/1

>  <Quatassemblies upload name>  (86) 
A1 - monomer

>  <Crystalforms upload name>  (86) 
F2 - A71_2A_open_small_cell

>  <ConformerSites short tag>  (86) 
5a - A3181/A/202

>  <CanonSites short tag>  (86) 
5 - A3181/A/202/1

>  <CrystalformSites short tag>  (86) 
F2aa - A0528/A/201

>  <Quatassemblies short tag>  (86) 
A1 - monomer

>  <Crystalforms short tag>  (86) 
F2 - A71_2A_open_small_cell

>  <Centroid res>  (86) 
A71EV2A-x3181/A/20/A_v1

>  <Experiment code>  (86) 
A71EV2A-x0863

>  <Pose>  (86) 
A0863a

$$$$
A0875a
     RDKit          3D

 14 14  0  0  0  0  0  0  0  0999 V2000
   15.7330   11.2830   24.2190 O   0  0  0  0  0  0  0  0  0  0  0  0
   14.6890   10.7970   24.5110 C   0  0  0  0  0  0  0  0  0  0  0  0
   14.5440    9.7150   25.2270 O   0  0  0  0  0  0  0  0  0  0  0  0
   13.4360   11.5130   24.1140 C   0  0  0  0  0  0  0  0  0  0  0  0
   13.3530   12.7700   24.9610 C   0  0  0  0  0  0  0  0  0  0  0  0
   12.0220   12.8720   25.6460 C   0  0  0  0  0  0  0  0  0  0  0  0
   12.1580   10.6980   24.2330 C   0  0  0  0  0  0  0  0  0  0  0  0
   11.0340   11.6150   23.7820 C   0  0  0  0  0  0  0  0  0  0  0  0
   11.0010   12.8510   24.5900 N   0  0  0  0  0  0  0  0  0  0  0  0
    9.6630   13.7250   24.8690 S   0  0  0  0  0  0  0  0  0  0  0  0
    9.6320   14.7570   23.8780 O   0  0  0  0  0  0  0  0  0  0  0  0
    9.6970   14.0980   26.2470 O   0  0  0  0  0  0  0  0  0  0  0  0
    8.2690   12.6440   24.5630 C   0  0  0  0  0  0  0  0  0  0  0  0
    8.2400   11.4310   25.4260 C   0  0  0  0  0  0  0  0  0  0  0  0
 14 13  1  0
 13 10  1  0
 11 10  2  0
 12 10  2  0
 10  9  1  0
  9  6  1  0
  6  5  1  0
  5  4  1  0
  7  4  1  0
  8  7  1  0
  9  8  1  0
  4  2  1  0
  2  1  2  0
  3  2  1  0
M  END
>  <id>  (87) 
87

>  <inchikey>  (87) 
FXILSJTWIHHRJV-UHFFFAOYSA-N

>  <alias>  (87) 
A0875a

>  <smiles>  (87) 
CCS(=O)(=O)N1CCC(C(=O)O)CC1

>  <path>  (87) 
/opt/xchem-fragalysis-2/maxwin/BulkDock/TARGETS/A71EV2A/aligned_files/A0875a/A0875a.pdb

>  <distance_score>  (87) 
None

>  <energy_score>  (87) 
None

>  <compound>  (87) 
FXILSJTWIHHRJV-UHFFFAOYSA-N

>  <compound_id>  (87) 
71

>  <target>  (87) 
A71EV2A

>  <tags>  (87) 
['[Other] Fragment Screen', 'GOOD count', "[Other] S1' site", 'MEDIOCRE count', '[Other] S1 site', 'hits', '[Other] Active site fragment', '[Other] upload_1 2024-12-06', 'Main status', '[Other] New', '[Other] upload_1 2025-02-12', 'BAD count']

>  <inspirations>  (87) 
None

>  <subsites>  (87) 
None

>  <reference>  (87) 


>  <observation_longname>  (87) 
A71EV2A-x0875_A_201_v1

>  <ConformerSites alias>  (87) 
1b - A0911/A/147

>  <CanonSites alias>  (87) 
1 - Active Site

>  <CrystalformSites alias>  (87) 
F2b - A0450/A/201

>  <Quatassemblies alias>  (87) 
A1 - monomer

>  <Crystalforms alias>  (87) 
F2 - A71_2A_open_small_cell

>  <ConformerSites upload name>  (87) 
1b - A71EV2A-x0911/A/147

>  <CanonSites upload name>  (87) 
1 - A71EV2A-x0911/A/147/1

>  <CrystalformSites upload name>  (87) 
F2b - A71EV2A-x0450/A/201/1

>  <Quatassemblies upload name>  (87) 
A1 - monomer

>  <Crystalforms upload name>  (87) 
F2 - A71_2A_open_small_cell

>  <ConformerSites short tag>  (87) 
1b - A0911/A/147

>  <CanonSites short tag>  (87) 
1 - A0911/A/147/1

>  <CrystalformSites short tag>  (87) 
F2b - A0450/A/201

>  <Quatassemblies short tag>  (87) 
A1 - monomer

>  <Crystalforms short tag>  (87) 
F2 - A71_2A_open_small_cell

>  <Centroid res>  (87) 
A71EV2A-x0911/A/133/A_v1

>  <Experiment code>  (87) 
A71EV2A-x0875

>  <Pose>  (87) 
A0875a

$$$$
A0875b
     RDKit          3D

 14 14  0  0  0  0  0  0  0  0999 V2000
   11.1960  -13.3940    8.3280 O   0  0  0  0  0  0  0  0  0  0  0  0
   11.0760  -12.8050    9.3800 C   0  0  0  0  0  0  0  0  0  0  0  0
   10.3960  -13.2660   10.3960 O   0  0  0  0  0  0  0  0  0  0  0  0
   11.6730  -11.4380    9.6280 C   0  0  0  0  0  0  0  0  0  0  0  0
   10.5860  -10.4710   10.0930 C   0  0  0  0  0  0  0  0  0  0  0  0
   10.5340  -10.4930   11.6130 C   0  0  0  0  0  0  0  0  0  0  0  0
   12.8110  -11.4580   10.6620 C   0  0  0  0  0  0  0  0  0  0  0  0
   12.9420  -10.1070   11.3800 C   0  0  0  0  0  0  0  0  0  0  0  0
   11.7180   -9.7920   12.1440 N   0  0  0  0  0  0  0  0  0  0  0  0
   11.5810   -8.3200   12.8490 S   0  0  0  0  0  0  0  0  0  0  0  0
   12.1510   -8.4320   14.1550 O   0  0  0  0  0  0  0  0  0  0  0  0
   12.1460   -7.3740   11.9460 O   0  0  0  0  0  0  0  0  0  0  0  0
    9.8420   -7.9650   13.0260 C   0  0  0  0  0  0  0  0  0  0  0  0
    9.0950   -7.9210   11.7120 C   0  0  0  0  0  0  0  0  0  0  0  0
 14 13  1  0
 13 10  1  0
 11 10  2  0
 12 10  2  0
 10  9  1  0
  9  6  1  0
  6  5  1  0
  5  4  1  0
  7  4  1  0
  8  7  1  0
  9  8  1  0
  4  2  1  0
  2  1  2  0
  3  2  1  0
M  END
>  <id>  (88) 
88

>  <inchikey>  (88) 
FXILSJTWIHHRJV-UHFFFAOYSA-N

>  <alias>  (88) 
A0875b

>  <smiles>  (88) 
CCS(=O)(=O)N1CCC(C(=O)O)CC1

>  <path>  (88) 
/opt/xchem-fragalysis-2/maxwin/BulkDock/TARGETS/A71EV2A/aligned_files/A0875b/A0875b.pdb

>  <distance_score>  (88) 
None

>  <energy_score>  (88) 
None

>  <compound>  (88) 
FXILSJTWIHHRJV-UHFFFAOYSA-N

>  <compound_id>  (88) 
71

>  <target>  (88) 
A71EV2A

>  <tags>  (88) 
['[Other] Fragment Screen', 'GOOD count', 'MEDIOCRE count', 'hits', '[Other] upload_1 2024-12-06', 'Main status', '[Other] New', '[Other] upload_1 2025-02-12', 'BAD count']

>  <inspirations>  (88) 
None

>  <subsites>  (88) 
None

>  <reference>  (88) 


>  <observation_longname>  (88) 
A71EV2A-x0875_A_147_v1

>  <ConformerSites alias>  (88) 
2a - A3977/A/202

>  <CanonSites alias>  (88) 
2 - A3977/A/202/1

>  <CrystalformSites alias>  (88) 
F2u - A0497/A/147

>  <Quatassemblies alias>  (88) 
A1 - monomer

>  <Crystalforms alias>  (88) 
F2 - A71_2A_open_small_cell

>  <ConformerSites upload name>  (88) 
2a - A71EV2A-x3977/A/202

>  <CanonSites upload name>  (88) 
2 - A71EV2A-x3977/A/202/1

>  <CrystalformSites upload name>  (88) 
F2u - A71EV2A-x0497/A/147/1

>  <Quatassemblies upload name>  (88) 
A1 - monomer

>  <Crystalforms upload name>  (88) 
F2 - A71_2A_open_small_cell

>  <ConformerSites short tag>  (88) 
2a - A3977/A/202

>  <CanonSites short tag>  (88) 
2 - A3977/A/202/1

>  <CrystalformSites short tag>  (88) 
F2u - A0497/A/147

>  <Quatassemblies short tag>  (88) 
A1 - monomer

>  <Crystalforms short tag>  (88) 
F2 - A71_2A_open_small_cell

>  <Centroid res>  (88) 
A71EV2A-x3977/A/113/A_v1

>  <Experiment code>  (88) 
A71EV2A-x0875

>  <Pose>  (88) 
A0875b

$$$$
A0884a
     RDKit          3D

 14 14  0  0  0  0  0  0  0  0999 V2000
   12.3890   14.1920   22.3820 O   0  0  0  0  0  0  0  0  0  0  0  0
   11.5640   13.6870   23.1630 C   0  0  0  0  0  0  0  0  0  0  0  0
   11.4810   14.0480   24.4380 N   0  0  0  0  0  0  0  0  0  0  0  0
   10.7240   12.6720   22.7770 N   0  0  0  0  0  0  0  0  0  0  0  0
    9.7260   11.9940   23.5260 C   0  0  0  0  0  0  0  0  0  0  0  0
    9.6180   10.6190   23.3720 C   0  0  0  0  0  0  0  0  0  0  0  0
    8.6080    9.9300   24.0230 C   0  0  0  0  0  0  0  0  0  0  0  0
    7.7080   10.6000   24.8380 C   0  0  0  0  0  0  0  0  0  0  0  0
    8.8310   12.6670   24.3580 C   0  0  0  0  0  0  0  0  0  0  0  0
    7.8330   11.9700   25.0300 C   0  0  0  0  0  0  0  0  0  0  0  0
    7.0280   12.7300   25.9270 N   0  0  0  0  0  0  0  0  0  0  0  0
    5.9550   12.3550   26.6750 C   0  0  0  0  0  0  0  0  0  0  0  0
    4.9720   13.0750   26.8320 O   0  0  0  0  0  0  0  0  0  0  0  0
    6.0720   11.0230   27.3600 C   0  0  0  0  0  0  0  0  0  0  0  0
 14 12  1  0
 13 12  2  0
 12 11  1  0
 11 10  1  0
 10  8  1  0
  8  7  2  0
  7  6  1  0
  6  5  2  0
  5  4  1  0
  4  2  1  0
  2  1  2  0
  3  2  1  0
  9  5  1  0
 10  9  2  0
M  END
>  <id>  (89) 
89

>  <inchikey>  (89) 
GVNXANNAMKHSRF-UHFFFAOYSA-N

>  <alias>  (89) 
A0884a

>  <smiles>  (89) 
CC(=O)Nc1cccc(NC(N)=O)c1

>  <path>  (89) 
/opt/xchem-fragalysis-2/maxwin/BulkDock/TARGETS/A71EV2A/aligned_files/A0884a/A0884a.pdb

>  <distance_score>  (89) 
None

>  <energy_score>  (89) 
None

>  <compound>  (89) 
GVNXANNAMKHSRF-UHFFFAOYSA-N

>  <compound_id>  (89) 
72

>  <target>  (89) 
A71EV2A

>  <tags>  (89) 
['[Other] Fragment Screen', 'GOOD count', 'MEDIOCRE count', '[Other] S1 site', 'hits', '[Other] Active site fragment', '[Other] S2 site', '[Other] upload_1 2024-12-06', 'Main status', '[Other] New', '[Other] upload_1 2025-02-12', 'BAD count']

>  <inspirations>  (89) 
None

>  <subsites>  (89) 
None

>  <reference>  (89) 


>  <observation_longname>  (89) 
A71EV2A-x0884_A_147_v1

>  <ConformerSites alias>  (89) 
1b - A0911/A/147

>  <CanonSites alias>  (89) 
1 - Active Site

>  <CrystalformSites alias>  (89) 
F8h - A0884/A/147

>  <Quatassemblies alias>  (89) 
A1 - monomer

>  <Crystalforms alias>  (89) 
F8 - A712A_x4271_2.1_refmac1_1st_ref

>  <ConformerSites upload name>  (89) 
1b - A71EV2A-x0911/A/147

>  <CanonSites upload name>  (89) 
1 - A71EV2A-x0911/A/147/1

>  <CrystalformSites upload name>  (89) 
F8h - A71EV2A-x0884/A/147/1

>  <Quatassemblies upload name>  (89) 
A1 - monomer

>  <Crystalforms upload name>  (89) 
F8 - A712A_x4271_2.1_refmac1_1st_ref

>  <ConformerSites short tag>  (89) 
1b - A0911/A/147

>  <CanonSites short tag>  (89) 
1 - A0911/A/147/1

>  <CrystalformSites short tag>  (89) 
F8h - A0884/A/147

>  <Quatassemblies short tag>  (89) 
A1 - monomer

>  <Crystalforms short tag>  (89) 
F8 - A712A_x4271_2.1_refmac1_1st_ref

>  <Centroid res>  (89) 
A71EV2A-x0911/A/133/A_v1

>  <Experiment code>  (89) 
A71EV2A-x0884

>  <Pose>  (89) 
A0884a

$$$$
A0900a
     RDKit          3D

 12 13  0  0  0  0  0  0  0  0999 V2000
   33.6080   22.3400   18.4500 N   0  0  0  0  0  0  0  0  0  0  0  0
   32.3520   22.0710   18.8820 C   0  0  0  0  0  0  0  0  0  0  0  0
   31.8480   20.7700   18.8380 C   0  0  0  0  0  0  0  0  0  0  0  0
   30.5590   20.4960   19.2560 C   0  0  0  0  0  0  0  0  0  0  0  0
   29.7280   21.5110   19.7150 C   0  0  0  0  0  0  0  0  0  0  0  0
   30.2190   22.8160   19.7510 C   0  0  0  0  0  0  0  0  0  0  0  0
   31.5150   23.0960   19.3550 C   0  0  0  0  0  0  0  0  0  0  0  0
   28.3660   21.2130   20.1410 C   0  0  0  0  0  0  0  0  0  0  0  0
   27.6140   22.2230   20.6000 O   0  0  0  0  0  0  0  0  0  0  0  0
   26.3710   21.6520   20.9670 N   0  0  0  0  0  0  0  0  0  0  0  0
   26.5330   20.3530   20.6780 C   0  0  0  0  0  0  0  0  0  0  0  0
   27.7560   20.0720   20.1670 N   0  0  0  0  0  0  0  0  0  0  0  0
  2  1  1  0
  2  7  2  0
  7  6  1  0
  6  5  2  0
  5  4  1  0
  4  3  2  0
  3  2  1  0
  8  5  1  0
  8 12  2  0
 12 11  1  0
 11 10  2  0
 10  9  1  0
  9  8  1  0
M  END
>  <id>  (90) 
90

>  <inchikey>  (90) 
LKIGQRFSSGGKQW-UHFFFAOYSA-N

>  <alias>  (90) 
A0900a

>  <smiles>  (90) 
Nc1ccc(-c2ncno2)cc1

>  <path>  (90) 
/opt/xchem-fragalysis-2/maxwin/BulkDock/TARGETS/A71EV2A/aligned_files/A0900a/A0900a.pdb

>  <distance_score>  (90) 
None

>  <energy_score>  (90) 
None

>  <compound>  (90) 
LKIGQRFSSGGKQW-UHFFFAOYSA-N

>  <compound_id>  (90) 
58

>  <target>  (90) 
A71EV2A

>  <tags>  (90) 
['[Other] Fragment Screen', 'GOOD count', 'MEDIOCRE count', 'hits', '[Other] upload_1 2024-12-06', 'Main status', '[Other] New', '[Other] upload_1 2025-02-12', 'BAD count']

>  <inspirations>  (90) 
None

>  <subsites>  (90) 
None

>  <reference>  (90) 


>  <observation_longname>  (90) 
A71EV2A-x0900_A_147_v1

>  <ConformerSites alias>  (90) 
10a - A0900/A/147

>  <CanonSites alias>  (90) 
10 - A0900/A/147/1

>  <CrystalformSites alias>  (90) 
F2ah - A0900/A/147

>  <Quatassemblies alias>  (90) 
A1 - monomer

>  <Crystalforms alias>  (90) 
F2 - A71_2A_open_small_cell

>  <ConformerSites upload name>  (90) 
10a - A71EV2A-x0900/A/147

>  <CanonSites upload name>  (90) 
10 - A71EV2A-x0900/A/147/1

>  <CrystalformSites upload name>  (90) 
F2ah - A71EV2A-x0900/A/147/1

>  <Quatassemblies upload name>  (90) 
A1 - monomer

>  <Crystalforms upload name>  (90) 
F2 - A71_2A_open_small_cell

>  <ConformerSites short tag>  (90) 
10a - A0900/A/147

>  <CanonSites short tag>  (90) 
10 - A0900/A/147/1

>  <CrystalformSites short tag>  (90) 
F2ah - A0900/A/147

>  <Quatassemblies short tag>  (90) 
A1 - monomer

>  <Crystalforms short tag>  (90) 
F2 - A71_2A_open_small_cell

>  <Centroid res>  (90) 
A71EV2A-x0900/A/27/A_v1

>  <Experiment code>  (90) 
A71EV2A-x0900

>  <Pose>  (90) 
A0900a

$$$$
A0911a
     RDKit          3D

 15 16  0  0  0  0  0  0  0  0999 V2000
   -1.0810   14.9630   19.5170 O   0  0  0  0  0  0  0  0  0  0  0  0
   -0.3860   14.0760   19.0580 C   0  0  0  0  0  0  0  0  0  0  0  0
   -0.3360   13.8240   17.5650 C   0  0  2  0  0  0  0  0  0  0  0  0
   -1.1140   14.8470   16.7710 C   0  0  0  0  0  0  0  0  0  0  0  0
   -1.3840   14.2350   15.4500 N   0  0  0  0  0  0  0  0  0  0  0  0
   -1.3980   12.7610   15.6350 C   0  0  0  0  0  0  0  0  0  0  0  0
   -1.0200   12.5150   17.1400 C   0  0  0  0  0  0  0  0  0  0  0  0
    0.3510   13.2890   19.8800 N   0  0  0  0  0  0  0  0  0  0  0  0
   -0.0420   13.1670   21.2780 C   0  0  0  0  0  0  0  0  0  0  0  0
    1.5170   12.5430   19.4980 C   0  0  0  0  0  0  0  0  0  0  0  0
    2.4470   13.0930   18.6250 C   0  0  0  0  0  0  0  0  0  0  0  0
    3.5950   12.3850   18.3150 C   0  0  0  0  0  0  0  0  0  0  0  0
    3.8220   11.1450   18.8700 C   0  0  0  0  0  0  0  0  0  0  0  0
    2.9040   10.6020   19.7380 C   0  0  0  0  0  0  0  0  0  0  0  0
    1.7470   11.2920   20.0540 C   0  0  0  0  0  0  0  0  0  0  0  0
  9  8  1  0
  8  2  1  0
  2  1  2  0
  3  2  1  1
  3  7  1  0
  7  6  1  0
  6  5  1  0
  5  4  1  0
  4  3  1  0
 10  8  1  0
 10 15  2  0
 15 14  1  0
 14 13  2  0
 13 12  1  0
 12 11  2  0
 11 10  1  0
M  END
>  <id>  (91) 
91

>  <inchikey>  (91) 
VZIWWLIHHFDZEO-JTQLQIEISA-N

>  <alias>  (91) 
A0911a

>  <smiles>  (91) 
CN(C(=O)[C@H]1CCNC1)c1ccccc1

>  <path>  (91) 
/opt/xchem-fragalysis-2/maxwin/BulkDock/TARGETS/A71EV2A/aligned_files/A0911a/A0911a.pdb

>  <distance_score>  (91) 
None

>  <energy_score>  (91) 
None

>  <compound>  (91) 
VZIWWLIHHFDZEO-UHFFFAOYSA-N

>  <compound_id>  (91) 
73

>  <target>  (91) 
A71EV2A

>  <tags>  (91) 
['[Other] Fragment Screen', 'GOOD count', 'MEDIOCRE count', '[Other] S5 site', 'hits', '[Other] Active site fragment', '[Other] upload_1 2024-12-06', 'Main status', '[Other] New', '[Other] upload_1 2025-02-12', 'BAD count']

>  <inspirations>  (91) 
None

>  <subsites>  (91) 
None

>  <reference>  (91) 


>  <observation_longname>  (91) 
A71EV2A-x0911_A_147_v1

>  <ConformerSites alias>  (91) 
1b - A0911/A/147

>  <CanonSites alias>  (91) 
1 - Active Site

>  <CrystalformSites alias>  (91) 
F2b - A0450/A/201

>  <Quatassemblies alias>  (91) 
A1 - monomer

>  <Crystalforms alias>  (91) 
F2 - A71_2A_open_small_cell

>  <ConformerSites upload name>  (91) 
1b - A71EV2A-x0911/A/147

>  <CanonSites upload name>  (91) 
1 - A71EV2A-x0911/A/147/1

>  <CrystalformSites upload name>  (91) 
F2b - A71EV2A-x0450/A/201/1

>  <Quatassemblies upload name>  (91) 
A1 - monomer

>  <Crystalforms upload name>  (91) 
F2 - A71_2A_open_small_cell

>  <ConformerSites short tag>  (91) 
1b - A0911/A/147

>  <CanonSites short tag>  (91) 
1 - A0911/A/147/1

>  <CrystalformSites short tag>  (91) 
F2b - A0450/A/201

>  <Quatassemblies short tag>  (91) 
A1 - monomer

>  <Crystalforms short tag>  (91) 
F2 - A71_2A_open_small_cell

>  <Centroid res>  (91) 
A71EV2A-x0911/A/133/A_v1

>  <Experiment code>  (91) 
A71EV2A-x0911

>  <Pose>  (91) 
A0911a

$$$$
A0922a
     RDKit          3D

 14 14  0  0  0  0  0  0  0  0999 V2000
    9.1160   13.7820   21.7680 O   0  0  0  0  0  0  0  0  0  0  0  0
   10.2930   14.1070   21.8090 C   0  0  0  0  0  0  0  0  0  0  0  0
   10.7210   15.2670   21.2830 N   0  0  0  0  0  0  0  0  0  0  0  0
    9.7930   16.1750   20.6150 C   0  0  0  0  0  0  0  0  0  0  0  0
   12.1150   15.6970   21.2930 C   0  0  0  0  0  0  0  0  0  0  0  0
   11.3140   13.1860   22.4570 C   0  0  0  0  0  0  0  0  0  0  0  0
   10.7310   11.9170   22.7550 O   0  0  0  0  0  0  0  0  0  0  0  0
    9.9420   11.7840   23.8720 C   0  0  0  0  0  0  0  0  0  0  0  0
    9.5930   10.4630   24.1560 C   0  0  0  0  0  0  0  0  0  0  0  0
   10.1750    9.3150   23.3730 C   0  0  0  0  0  0  0  0  0  0  0  0
    8.7220   10.2370   25.2170 C   0  0  0  0  0  0  0  0  0  0  0  0
    8.2370   11.2810   25.9820 C   0  0  0  0  0  0  0  0  0  0  0  0
    8.6100   12.5750   25.6970 C   0  0  0  0  0  0  0  0  0  0  0  0
    9.4630   12.8380   24.6390 C   0  0  0  0  0  0  0  0  0  0  0  0
  5  3  1  0
  4  3  1  0
  3  2  1  0
  2  1  2  0
  6  2  1  0
  7  6  1  0
  8  7  1  0
  8 14  2  0
 14 13  1  0
 13 12  2  0
 12 11  1  0
 11  9  2  0
  9  8  1  0
 10  9  1  0
M  END
>  <id>  (92) 
92

>  <inchikey>  (92) 
QTVILMLWBQTJNT-UHFFFAOYSA-N

>  <alias>  (92) 
A0922a

>  <smiles>  (92) 
Cc1ccccc1OCC(=O)N(C)C

>  <path>  (92) 
/opt/xchem-fragalysis-2/maxwin/BulkDock/TARGETS/A71EV2A/aligned_files/A0922a/A0922a.pdb

>  <distance_score>  (92) 
None

>  <energy_score>  (92) 
None

>  <compound>  (92) 
QTVILMLWBQTJNT-UHFFFAOYSA-N

>  <compound_id>  (92) 
74

>  <target>  (92) 
A71EV2A

>  <tags>  (92) 
['GOOD count', 'MEDIOCRE count', 'hits', '[Other] upload_1 2025-02-12', 'Main status', 'BAD count']

>  <inspirations>  (92) 
None

>  <subsites>  (92) 
None

>  <reference>  (92) 


>  <observation_longname>  (92) 
A71EV2A-x0922_A_147_v1

>  <ConformerSites alias>  (92) 
4d - A0922/A/147

>  <CanonSites alias>  (92) 
4 - A0525/A/246/1

>  <CrystalformSites alias>  (92) 
F1z - A0525/A/246

>  <Quatassemblies alias>  (92) 
A1 - monomer

>  <Crystalforms alias>  (92) 
F1 - A71_2A_open

>  <ConformerSites upload name>  (92) 
4d - A71EV2A-x0922/A/147

>  <CanonSites upload name>  (92) 
4 - A71EV2A-x0525/A/246/1

>  <CrystalformSites upload name>  (92) 
F1z - A71EV2A-x0525/A/246/1

>  <Quatassemblies upload name>  (92) 
A1 - monomer

>  <Crystalforms upload name>  (92) 
F1 - A71_2A_open

>  <ConformerSites short tag>  (92) 
4d - A0922/A/147

>  <CanonSites short tag>  (92) 
4 - A0525/A/246/1

>  <CrystalformSites short tag>  (92) 
F1z - A0525/A/246

>  <Quatassemblies short tag>  (92) 
A1 - monomer

>  <Crystalforms short tag>  (92) 
F1 - A71_2A_open

>  <Centroid res>  (92) 
A71EV2A-x0525/A/90/A_v1

>  <Experiment code>  (92) 
A71EV2A-x0922

>  <Pose>  (92) 
A0922a

$$$$
A0926a
     RDKit          3D

 14 14  0  0  0  0  0  0  0  0999 V2000
   10.0640   16.3360   19.2900 O   0  0  0  0  0  0  0  0  0  0  0  0
   10.3900   15.1620   19.4820 C   0  0  0  0  0  0  0  0  0  0  0  0
   10.7000   14.3370   18.4960 N   0  0  0  0  0  0  0  0  0  0  0  0
   10.4110   14.5710   20.8800 C   0  0  1  0  0  0  0  0  0  0  0  0
   11.5450   15.1600   21.7290 C   0  0  0  0  0  0  0  0  0  0  0  0
   11.5420   14.5340   23.1180 C   0  0  0  0  0  0  0  0  0  0  0  0
   10.2020   14.7550   23.7610 C   0  0  0  0  0  0  0  0  0  0  0  0
    9.0850   14.8020   21.6010 C   0  0  0  0  0  0  0  0  0  0  0  0
    9.1500   14.1740   22.9210 N   0  0  0  0  0  0  0  0  0  0  0  0
    8.3720   13.1480   23.3150 C   0  0  0  0  0  0  0  0  0  0  0  0
    7.3820   12.8080   22.6840 O   0  0  0  0  0  0  0  0  0  0  0  0
    8.8200   12.4150   24.5710 C   0  0  0  0  0  0  0  0  0  0  0  0
    7.9990   11.3170   24.9520 O   0  0  0  0  0  0  0  0  0  0  0  0
    6.7420   11.7110   25.4970 C   0  0  0  0  0  0  0  0  0  0  0  0
 14 13  1  0
 13 12  1  0
 12 10  1  0
 11 10  2  0
 10  9  1  0
  9  7  1  0
  7  6  1  0
  6  5  1  0
  5  4  1  0
  8  4  1  0
  9  8  1  0
  4  2  1  6
  2  1  2  0
  3  2  1  0
M  END
>  <id>  (93) 
93

>  <inchikey>  (93) 
VINVRWFILPAKSR-ZETCQYMHSA-N

>  <alias>  (93) 
A0926a

>  <smiles>  (93) 
COCC(=O)N1CCC[C@H](C(N)=O)C1

>  <path>  (93) 
/opt/xchem-fragalysis-2/maxwin/BulkDock/TARGETS/A71EV2A/aligned_files/A0926a/A0926a.pdb

>  <distance_score>  (93) 
None

>  <energy_score>  (93) 
None

>  <compound>  (93) 
VINVRWFILPAKSR-UHFFFAOYSA-N

>  <compound_id>  (93) 
75

>  <target>  (93) 
A71EV2A

>  <tags>  (93) 
['[Other] Fragment Screen', 'GOOD count', 'MEDIOCRE count', '[Other] S1 site', 'hits', '[Other] Active site fragment', '[Other] S2 site', '[Other] upload_1 2024-12-06', 'Main status', '[Other] New', '[Other] upload_1 2025-02-12', 'BAD count', '[Series] Piperidine series']

>  <inspirations>  (93) 
None

>  <subsites>  (93) 
None

>  <reference>  (93) 


>  <observation_longname>  (93) 
A71EV2A-x0926_A_250_v1

>  <ConformerSites alias>  (93) 
1b - A0911/A/147

>  <CanonSites alias>  (93) 
1 - Active Site

>  <CrystalformSites alias>  (93) 
F3c - A0487/A/250

>  <Quatassemblies alias>  (93) 
A1 - monomer

>  <Crystalforms alias>  (93) 
F3 - A71_2A_open_long_cell

>  <ConformerSites upload name>  (93) 
1b - A71EV2A-x0911/A/147

>  <CanonSites upload name>  (93) 
1 - A71EV2A-x0911/A/147/1

>  <CrystalformSites upload name>  (93) 
F3c - A71EV2A-x0487/A/250/1

>  <Quatassemblies upload name>  (93) 
A1 - monomer

>  <Crystalforms upload name>  (93) 
F3 - A71_2A_open_long_cell

>  <ConformerSites short tag>  (93) 
1b - A0911/A/147

>  <CanonSites short tag>  (93) 
1 - A0911/A/147/1

>  <CrystalformSites short tag>  (93) 
F3c - A0487/A/250

>  <Quatassemblies short tag>  (93) 
A1 - monomer

>  <Crystalforms short tag>  (93) 
F3 - A71_2A_open_long_cell

>  <Centroid res>  (93) 
A71EV2A-x0911/A/133/A_v1

>  <Experiment code>  (93) 
A71EV2A-x0926

>  <Pose>  (93) 
A0926a

$$$$
A1019a
     RDKit          3D

 13 13  0  0  0  0  0  0  0  0999 V2000
   12.9780   12.2980   26.2310 O   0  0  0  0  0  0  0  0  0  0  0  0
   12.9870   12.1770   25.0250 C   0  0  0  0  0  0  0  0  0  0  0  0
   13.9330   11.5650   24.3720 O   0  0  0  0  0  0  0  0  0  0  0  0
   11.8960   12.7270   24.1450 C   0  0  0  0  0  0  0  0  0  0  0  0
   10.5210   12.5070   24.7330 C   0  0  0  0  0  0  0  0  0  0  0  0
    9.9170   11.2470   24.6930 C   0  0  0  0  0  0  0  0  0  0  0  0
   10.6770   10.2510   24.1470 O   0  0  0  0  0  0  0  0  0  0  0  0
   10.0030    9.2330   23.4110 C   0  0  0  0  0  0  0  0  0  0  0  0
    8.6470   11.0520   25.2030 C   0  0  0  0  0  0  0  0  0  0  0  0
    9.8150   13.5590   25.3130 C   0  0  0  0  0  0  0  0  0  0  0  0
    8.5400   13.3770   25.8110 C   0  0  0  0  0  0  0  0  0  0  0  0
    7.9760   12.1280   25.7430 C   0  0  0  0  0  0  0  0  0  0  0  0
    6.2150   11.8710   26.3870 Br  0  0  0  0  0  0  0  0  0  0  0  0
 13 12  1  0
 12  9  2  0
  9  6  1  0
  7  6  1  0
  8  7  1  0
  6  5  2  0
  5  4  1  0
  4  2  1  0
  3  2  1  0
  2  1  2  0
 10  5  1  0
 11 10  2  0
 12 11  1  0
M  END
>  <id>  (94) 
94

>  <inchikey>  (94) 
RNRCAQYXOAHKGD-UHFFFAOYSA-N

>  <alias>  (94) 
A1019a

>  <smiles>  (94) 
COc1cc(Br)ccc1CC(=O)O

>  <path>  (94) 
/opt/xchem-fragalysis-2/maxwin/BulkDock/TARGETS/A71EV2A/aligned_files/A1019a/A1019a.pdb

>  <distance_score>  (94) 
None

>  <energy_score>  (94) 
None

>  <compound>  (94) 
RNRCAQYXOAHKGD-UHFFFAOYSA-N

>  <compound_id>  (94) 
76

>  <target>  (94) 
A71EV2A

>  <tags>  (94) 
['[Other] Fragment Screen', 'GOOD count', "[Other] S1' site", 'MEDIOCRE count', '[Other] S1 site', 'hits', '[Other] Active site fragment', '[Other] upload_1 2024-12-06', 'Main status', '[Other] New', '[Other] upload_1 2025-02-12', 'BAD count']

>  <inspirations>  (94) 
None

>  <subsites>  (94) 
None

>  <reference>  (94) 


>  <observation_longname>  (94) 
A71EV2A-x1019_A_147_v1

>  <ConformerSites alias>  (94) 
1b - A0911/A/147

>  <CanonSites alias>  (94) 
1 - Active Site

>  <CrystalformSites alias>  (94) 
F4f - A0836/A/301

>  <Quatassemblies alias>  (94) 
A1 - monomer

>  <Crystalforms alias>  (94) 
F4 - A71_2A_new_model_x2721_4.1_ref3

>  <ConformerSites upload name>  (94) 
1b - A71EV2A-x0911/A/147

>  <CanonSites upload name>  (94) 
1 - A71EV2A-x0911/A/147/1

>  <CrystalformSites upload name>  (94) 
F4f - A71EV2A-x0836/A/301/1

>  <Quatassemblies upload name>  (94) 
A1 - monomer

>  <Crystalforms upload name>  (94) 
F4 - A71_2A_new_model_x2721_4.1_ref3

>  <ConformerSites short tag>  (94) 
1b - A0911/A/147

>  <CanonSites short tag>  (94) 
1 - A0911/A/147/1

>  <CrystalformSites short tag>  (94) 
F4f - A0836/A/301

>  <Quatassemblies short tag>  (94) 
A1 - monomer

>  <Crystalforms short tag>  (94) 
F4 - A71_2A_new_model_x2721_4.1_ref3

>  <Centroid res>  (94) 
A71EV2A-x0911/A/133/A_v1

>  <Experiment code>  (94) 
A71EV2A-x1019

>  <Pose>  (94) 
A1019a

$$$$
A1068a
     RDKit          3D

  7  7  0  0  0  0  0  0  0  0999 V2000
    6.6240   10.3080   25.5720 N   0  0  0  0  0  0  0  0  0  0  0  0
    7.6530   10.5830   24.7670 C   0  0  0  0  0  0  0  0  0  0  0  0
    7.9990   11.8790   24.6190 N   0  0  0  0  0  0  0  0  0  0  0  0
    9.0020   12.1290   23.7660 C   0  0  0  0  0  0  0  0  0  0  0  0
    9.6610   11.1470   23.0590 C   0  0  0  0  0  0  0  0  0  0  0  0
    9.2440    9.8560   23.2900 C   0  0  0  0  0  0  0  0  0  0  0  0
    8.2500    9.5430   24.1300 N   0  0  0  0  0  0  0  0  0  0  0  0
  2  1  1  0
  2  7  2  0
  7  6  1  0
  6  5  2  0
  5  4  1  0
  4  3  2  0
  3  2  1  0
M  END
>  <id>  (95) 
95

>  <inchikey>  (95) 
LJXQPZWIHJMPQQ-UHFFFAOYSA-N

>  <alias>  (95) 
A1068a

>  <smiles>  (95) 
Nc1ncccn1

>  <path>  (95) 
/opt/xchem-fragalysis-2/maxwin/BulkDock/TARGETS/A71EV2A/aligned_files/A1068a/A1068a.pdb

>  <distance_score>  (95) 
None

>  <energy_score>  (95) 
None

>  <compound>  (95) 
LJXQPZWIHJMPQQ-UHFFFAOYSA-N

>  <compound_id>  (95) 
77

>  <target>  (95) 
A71EV2A

>  <tags>  (95) 
['GOOD count', 'MEDIOCRE count', 'hits', '[Other] upload_1 2025-02-12', 'Main status', 'BAD count']

>  <inspirations>  (95) 
None

>  <subsites>  (95) 
None

>  <reference>  (95) 


>  <observation_longname>  (95) 
A71EV2A-x1068_A_301_v1

>  <ConformerSites alias>  (95) 
1b - A0911/A/147

>  <CanonSites alias>  (95) 
1 - Active Site

>  <CrystalformSites alias>  (95) 
F1a - A0375/A/201

>  <Quatassemblies alias>  (95) 
A1 - monomer

>  <Crystalforms alias>  (95) 
F1 - A71_2A_open

>  <ConformerSites upload name>  (95) 
1b - A71EV2A-x0911/A/147

>  <CanonSites upload name>  (95) 
1 - A71EV2A-x0911/A/147/1

>  <CrystalformSites upload name>  (95) 
F1a - A71EV2A-x0375/A/201/1

>  <Quatassemblies upload name>  (95) 
A1 - monomer

>  <Crystalforms upload name>  (95) 
F1 - A71_2A_open

>  <ConformerSites short tag>  (95) 
1b - A0911/A/147

>  <CanonSites short tag>  (95) 
1 - A0911/A/147/1

>  <CrystalformSites short tag>  (95) 
F1a - A0375/A/201

>  <Quatassemblies short tag>  (95) 
A1 - monomer

>  <Crystalforms short tag>  (95) 
F1 - A71_2A_open

>  <Centroid res>  (95) 
A71EV2A-x0911/A/133/A_v1

>  <Experiment code>  (95) 
A71EV2A-x1068

>  <Pose>  (95) 
A1068a

$$$$
A1068b
     RDKit          3D

  7  7  0  0  0  0  0  0  0  0999 V2000
   14.4150   -4.4580    0.7000 N   0  0  0  0  0  0  0  0  0  0  0  0
   15.5520   -4.7070    1.3330 C   0  0  0  0  0  0  0  0  0  0  0  0
   16.3020   -5.7390    0.8940 N   0  0  0  0  0  0  0  0  0  0  0  0
   17.4670   -5.9350    1.5240 C   0  0  0  0  0  0  0  0  0  0  0  0
   17.9010   -5.1570    2.5810 C   0  0  0  0  0  0  0  0  0  0  0  0
   17.0520   -4.1470    2.9600 C   0  0  0  0  0  0  0  0  0  0  0  0
   15.8810   -3.9010    2.3640 N   0  0  0  0  0  0  0  0  0  0  0  0
  2  1  1  0
  2  7  2  0
  7  6  1  0
  6  5  2  0
  5  4  1  0
  4  3  2  0
  3  2  1  0
M  END
>  <id>  (96) 
96

>  <inchikey>  (96) 
LJXQPZWIHJMPQQ-UHFFFAOYSA-N

>  <alias>  (96) 
A1068b

>  <smiles>  (96) 
Nc1ncccn1

>  <path>  (96) 
/opt/xchem-fragalysis-2/maxwin/BulkDock/TARGETS/A71EV2A/aligned_files/A1068b/A1068b.pdb

>  <distance_score>  (96) 
None

>  <energy_score>  (96) 
None

>  <compound>  (96) 
LJXQPZWIHJMPQQ-UHFFFAOYSA-N

>  <compound_id>  (96) 
77

>  <target>  (96) 
A71EV2A

>  <tags>  (96) 
['GOOD count', 'MEDIOCRE count', 'hits', '[Other] upload_1 2025-02-12', 'Main status', 'BAD count']

>  <inspirations>  (96) 
None

>  <subsites>  (96) 
None

>  <reference>  (96) 


>  <observation_longname>  (96) 
A71EV2A-x1068_A_246_v1

>  <ConformerSites alias>  (96) 
15a - A1068/A/246

>  <CanonSites alias>  (96) 
15 - A1068/A/246/1

>  <CrystalformSites alias>  (96) 
F1am - A1068/A/246

>  <Quatassemblies alias>  (96) 
A1 - monomer

>  <Crystalforms alias>  (96) 
F1 - A71_2A_open

>  <ConformerSites upload name>  (96) 
15a - A71EV2A-x1068/A/246

>  <CanonSites upload name>  (96) 
15 - A71EV2A-x1068/A/246/1

>  <CrystalformSites upload name>  (96) 
F1am - A71EV2A-x1068/A/246/1

>  <Quatassemblies upload name>  (96) 
A1 - monomer

>  <Crystalforms upload name>  (96) 
F1 - A71_2A_open

>  <ConformerSites short tag>  (96) 
15a - A1068/A/246

>  <CanonSites short tag>  (96) 
15 - A1068/A/246/1

>  <CrystalformSites short tag>  (96) 
F1am - A1068/A/246

>  <Quatassemblies short tag>  (96) 
A1 - monomer

>  <Crystalforms short tag>  (96) 
F1 - A71_2A_open

>  <Centroid res>  (96) 
A71EV2A-x1068/A/54/A_v1

>  <Experiment code>  (96) 
A71EV2A-x1068

>  <Pose>  (96) 
A1068b

$$$$
A1068c
     RDKit          3D

  7  7  0  0  0  0  0  0  0  0999 V2000
   -3.8260    7.8620   26.3010 N   0  0  0  0  0  0  0  0  0  0  0  0
   -3.0360    6.8880   26.7470 C   0  0  0  0  0  0  0  0  0  0  0  0
   -3.1880    5.6590   26.2050 N   0  0  0  0  0  0  0  0  0  0  0  0
   -2.4300    4.6780   26.7250 C   0  0  0  0  0  0  0  0  0  0  0  0
   -1.5350    4.8770   27.7520 C   0  0  0  0  0  0  0  0  0  0  0  0
   -1.4400    6.1690   28.2140 C   0  0  0  0  0  0  0  0  0  0  0  0
   -2.1710    7.1900   27.7380 N   0  0  0  0  0  0  0  0  0  0  0  0
  2  1  1  0
  2  7  2  0
  7  6  1  0
  6  5  2  0
  5  4  1  0
  4  3  2  0
  3  2  1  0
M  END
>  <id>  (97) 
97

>  <inchikey>  (97) 
LJXQPZWIHJMPQQ-UHFFFAOYSA-N

>  <alias>  (97) 
A1068c

>  <smiles>  (97) 
Nc1ncccn1

>  <path>  (97) 
/opt/xchem-fragalysis-2/maxwin/BulkDock/TARGETS/A71EV2A/aligned_files/A1068c/A1068c.pdb

>  <distance_score>  (97) 
None

>  <energy_score>  (97) 
None

>  <compound>  (97) 
LJXQPZWIHJMPQQ-UHFFFAOYSA-N

>  <compound_id>  (97) 
77

>  <target>  (97) 
A71EV2A

>  <tags>  (97) 
['GOOD count', 'MEDIOCRE count', 'hits', '[Other] upload_1 2025-02-12', 'Main status', 'BAD count']

>  <inspirations>  (97) 
None

>  <subsites>  (97) 
None

>  <reference>  (97) 


>  <observation_longname>  (97) 
A71EV2A-x1068_A_302_v1

>  <ConformerSites alias>  (97) 
16a - A1068/A/302

>  <CanonSites alias>  (97) 
16 - A1068/A/302/1

>  <CrystalformSites alias>  (97) 
F1an - A1068/A/302

>  <Quatassemblies alias>  (97) 
A1 - monomer

>  <Crystalforms alias>  (97) 
F1 - A71_2A_open

>  <ConformerSites upload name>  (97) 
16a - A71EV2A-x1068/A/302

>  <CanonSites upload name>  (97) 
16 - A71EV2A-x1068/A/302/1

>  <CrystalformSites upload name>  (97) 
F1an - A71EV2A-x1068/A/302/1

>  <Quatassemblies upload name>  (97) 
A1 - monomer

>  <Crystalforms upload name>  (97) 
F1 - A71_2A_open

>  <ConformerSites short tag>  (97) 
16a - A1068/A/302

>  <CanonSites short tag>  (97) 
16 - A1068/A/302/1

>  <CrystalformSites short tag>  (97) 
F1an - A1068/A/302

>  <Quatassemblies short tag>  (97) 
A1 - monomer

>  <Crystalforms short tag>  (97) 
F1 - A71_2A_open

>  <Centroid res>  (97) 
A71EV2A-x1068/A/130/A_v1

>  <Experiment code>  (97) 
A71EV2A-x1068

>  <Pose>  (97) 
A1068c

$$$$
A1080a
     RDKit          3D

  6  5  0  0  0  0  0  0  0  0999 V2000
    5.3510   14.2090   24.2170 O   0  0  0  0  0  0  0  0  0  0  0  0
    5.7890   14.6830   23.1750 C   0  0  0  0  0  0  0  0  0  0  0  0
    5.6220   15.9450   22.8390 N   0  0  0  0  0  0  0  0  0  0  0  0
    6.7210   16.7060   22.4470 O   0  0  0  0  0  0  0  0  0  0  0  0
    6.5730   13.8610   22.1880 C   0  0  0  0  0  0  0  0  0  0  0  0
    7.9260   13.4480   22.7150 C   0  0  0  0  0  0  0  0  0  0  0  0
  6  5  1  0
  5  2  1  0
  2  1  2  0
  3  2  1  0
  4  3  1  0
M  END
>  <id>  (98) 
98

>  <inchikey>  (98) 
RSIPQHOWTCNEBI-UHFFFAOYSA-N

>  <alias>  (98) 
A1080a

>  <smiles>  (98) 
CCC(=O)NO

>  <path>  (98) 
/opt/xchem-fragalysis-2/maxwin/BulkDock/TARGETS/A71EV2A/aligned_files/A1080a/A1080a.pdb

>  <distance_score>  (98) 
None

>  <energy_score>  (98) 
None

>  <compound>  (98) 
RSIPQHOWTCNEBI-UHFFFAOYSA-N

>  <compound_id>  (98) 
78

>  <target>  (98) 
A71EV2A

>  <tags>  (98) 
['[Other] Fragment Screen', 'GOOD count', 'MEDIOCRE count', 'hits', '[Other] Active site fragment', '[Other] upload_1 2024-12-06', 'Main status', '[Other] New', '[Other] upload_1 2025-02-12', 'BAD count', '[Other] S3 site']

>  <inspirations>  (98) 
None

>  <subsites>  (98) 
None

>  <reference>  (98) 


>  <observation_longname>  (98) 
A71EV2A-x1080_A_201_v1

>  <ConformerSites alias>  (98) 
1b - A0911/A/147

>  <CanonSites alias>  (98) 
1 - Active Site

>  <CrystalformSites alias>  (98) 
F2b - A0450/A/201

>  <Quatassemblies alias>  (98) 
A1 - monomer

>  <Crystalforms alias>  (98) 
F2 - A71_2A_open_small_cell

>  <ConformerSites upload name>  (98) 
1b - A71EV2A-x0911/A/147

>  <CanonSites upload name>  (98) 
1 - A71EV2A-x0911/A/147/1

>  <CrystalformSites upload name>  (98) 
F2b - A71EV2A-x0450/A/201/1

>  <Quatassemblies upload name>  (98) 
A1 - monomer

>  <Crystalforms upload name>  (98) 
F2 - A71_2A_open_small_cell

>  <ConformerSites short tag>  (98) 
1b - A0911/A/147

>  <CanonSites short tag>  (98) 
1 - A0911/A/147/1

>  <CrystalformSites short tag>  (98) 
F2b - A0450/A/201

>  <Quatassemblies short tag>  (98) 
A1 - monomer

>  <Crystalforms short tag>  (98) 
F2 - A71_2A_open_small_cell

>  <Centroid res>  (98) 
A71EV2A-x0911/A/133/A_v1

>  <Experiment code>  (98) 
A71EV2A-x1080

>  <Pose>  (98) 
A1080a

$$$$
A1081a
     RDKit          3D

  6  6  0  0  0  0  0  0  0  0999 V2000
   12.2690   -4.0170   34.7280 O   0  0  0  0  0  0  0  0  0  0  0  0
   11.8980   -4.8460   33.8990 C   0  0  0  0  0  0  0  0  0  0  0  0
   12.3270   -6.1070   33.8160 N   0  0  0  0  0  0  0  0  0  0  0  0
   11.7460   -6.8170   32.6810 C   0  0  0  0  0  0  0  0  0  0  0  0
   10.7340   -5.8240   32.1380 C   0  0  0  0  0  0  0  0  0  0  0  0
   11.0170   -4.6260   32.9220 N   0  0  0  0  0  0  0  0  0  0  0  0
  2  1  2  0
  2  6  1  0
  6  5  1  0
  5  4  1  0
  4  3  1  0
  3  2  1  0
M  END
>  <id>  (99) 
99

>  <inchikey>  (99) 
YAMHXTCMCPHKLN-UHFFFAOYSA-N

>  <alias>  (99) 
A1081a

>  <smiles>  (99) 
O=C1NCCN1

>  <path>  (99) 
/opt/xchem-fragalysis-2/maxwin/BulkDock/TARGETS/A71EV2A/aligned_files/A1081a/A1081a.pdb

>  <distance_score>  (99) 
None

>  <energy_score>  (99) 
None

>  <compound>  (99) 
YAMHXTCMCPHKLN-UHFFFAOYSA-N

>  <compound_id>  (99) 
79

>  <target>  (99) 
A71EV2A

>  <tags>  (99) 
['[Other] Fragment Screen', 'GOOD count', 'MEDIOCRE count', 'hits', '[Other] upload_1 2024-12-06', 'Main status', '[Other] New', '[Other] upload_1 2025-02-12', 'BAD count']

>  <inspirations>  (99) 
None

>  <subsites>  (99) 
None

>  <reference>  (99) 


>  <observation_longname>  (99) 
A71EV2A-x1081_A_147_v1

>  <ConformerSites alias>  (99) 
7c - A1081/A/147

>  <CanonSites alias>  (99) 
7 - A0488/A/147/1

>  <CrystalformSites alias>  (99) 
F1ad - A0488/A/147

>  <Quatassemblies alias>  (99) 
A1 - monomer

>  <Crystalforms alias>  (99) 
F1 - A71_2A_open

>  <ConformerSites upload name>  (99) 
7c - A71EV2A-x1081/A/147

>  <CanonSites upload name>  (99) 
7 - A71EV2A-x0488/A/147/1

>  <CrystalformSites upload name>  (99) 
F1ad - A71EV2A-x0488/A/147/1

>  <Quatassemblies upload name>  (99) 
A1 - monomer

>  <Crystalforms upload name>  (99) 
F1 - A71_2A_open

>  <ConformerSites short tag>  (99) 
7c - A1081/A/147

>  <CanonSites short tag>  (99) 
7 - A0488/A/147/1

>  <CrystalformSites short tag>  (99) 
F1ad - A0488/A/147

>  <Quatassemblies short tag>  (99) 
A1 - monomer

>  <Crystalforms short tag>  (99) 
F1 - A71_2A_open

>  <Centroid res>  (99) 
A71EV2A-x0488/A/68/A_v1

>  <Experiment code>  (99) 
A71EV2A-x1081

>  <Pose>  (99) 
A1081a

$$$$
A1081b
     RDKit          3D

  6  6  0  0  0  0  0  0  0  0999 V2000
    0.0000    6.0380    6.6240 O   0  0  0  0  0  0  0  0  0  0  0  0
   -0.0380    7.0870    5.9840 C   0  0  0  0  0  0  0  0  0  0  0  0
   -0.7480    7.2940    4.8660 N   0  0  0  0  0  0  0  0  0  0  0  0
   -0.5520    8.6350    4.3310 C   0  0  0  0  0  0  0  0  0  0  0  0
    0.5960    9.1710    5.1810 C   0  0  0  0  0  0  0  0  0  0  0  0
    0.6960    8.1750    6.2410 N   0  0  0  0  0  0  0  0  0  0  0  0
  2  1  2  0
  2  6  1  0
  6  5  1  0
  5  4  1  0
  4  3  1  0
  3  2  1  0
M  END
>  <id>  (100) 
100

>  <inchikey>  (100) 
YAMHXTCMCPHKLN-UHFFFAOYSA-N

>  <alias>  (100) 
A1081b

>  <smiles>  (100) 
O=C1NCCN1

>  <path>  (100) 
/opt/xchem-fragalysis-2/maxwin/BulkDock/TARGETS/A71EV2A/aligned_files/A1081b/A1081b.pdb

>  <distance_score>  (100) 
None

>  <energy_score>  (100) 
None

>  <compound>  (100) 
YAMHXTCMCPHKLN-UHFFFAOYSA-N

>  <compound_id>  (100) 
79

>  <target>  (100) 
A71EV2A

>  <tags>  (100) 
['[Other] Fragment Screen', 'GOOD count', 'MEDIOCRE count', 'hits', '[Other] upload_1 2024-12-06', 'Main status', '[Other] New', '[Other] upload_1 2025-02-12', 'BAD count']

>  <inspirations>  (100) 
None

>  <subsites>  (100) 
None

>  <reference>  (100) 


>  <observation_longname>  (100) 
A71EV2A-x1081_A_201_v1

>  <ConformerSites alias>  (100) 
17a - A1081/A/201

>  <CanonSites alias>  (100) 
17 - A1081/A/201/1

>  <CrystalformSites alias>  (100) 
F1ao - A1081/A/201

>  <Quatassemblies alias>  (100) 
A1 - monomer

>  <Crystalforms alias>  (100) 
F1 - A71_2A_open

>  <ConformerSites upload name>  (100) 
17a - A71EV2A-x1081/A/201

>  <CanonSites upload name>  (100) 
17 - A71EV2A-x1081/A/201/1

>  <CrystalformSites upload name>  (100) 
F1ao - A71EV2A-x1081/A/201/1

>  <Quatassemblies upload name>  (100) 
A1 - monomer

>  <Crystalforms upload name>  (100) 
F1 - A71_2A_open

>  <ConformerSites short tag>  (100) 
17a - A1081/A/201

>  <CanonSites short tag>  (100) 
17 - A1081/A/201/1

>  <CrystalformSites short tag>  (100) 
F1ao - A1081/A/201

>  <Quatassemblies short tag>  (100) 
A1 - monomer

>  <Crystalforms short tag>  (100) 
F1 - A71_2A_open

>  <Centroid res>  (100) 
A71EV2A-x1081/A/99/A_v1

>  <Experiment code>  (100) 
A71EV2A-x1081

>  <Pose>  (100) 
A1081b

$$$$
A1084a
     RDKit          3D

  7  7  0  0  0  0  0  0  0  0999 V2000
   12.2940   -3.9580   34.9100 O   0  0  0  0  0  0  0  0  0  0  0  0
   12.2050   -4.8300   34.0460 C   0  0  0  0  0  0  0  0  0  0  0  0
   11.4090   -4.7460   32.9870 N   0  0  0  0  0  0  0  0  0  0  0  0
   13.1320   -6.0240   34.3190 C   0  0  0  0  0  0  0  0  0  0  0  0
   13.9040   -5.9160   35.5590 N   0  0  0  0  0  0  0  0  0  0  0  0
   13.7390   -6.6990   33.1090 C   0  0  0  0  0  0  0  0  0  0  0  0
   12.6440   -7.3800   33.8630 C   0  0  0  0  0  0  0  0  0  0  0  0
  3  2  1  0
  2  1  2  0
  4  2  1  0
  5  4  1  0
  4  7  1  0
  7  6  1  0
  6  4  1  0
M  END
>  <id>  (101) 
101

>  <inchikey>  (101) 
JFGXRDGYMLGBBB-UHFFFAOYSA-N

>  <alias>  (101) 
A1084a

>  <smiles>  (101) 
NC(=O)C1(N)CC1

>  <path>  (101) 
/opt/xchem-fragalysis-2/maxwin/BulkDock/TARGETS/A71EV2A/aligned_files/A1084a/A1084a.pdb

>  <distance_score>  (101) 
None

>  <energy_score>  (101) 
None

>  <compound>  (101) 
JFGXRDGYMLGBBB-UHFFFAOYSA-N

>  <compound_id>  (101) 
80

>  <target>  (101) 
A71EV2A

>  <tags>  (101) 
['[Other] Fragment Screen', 'GOOD count', 'MEDIOCRE count', 'hits', '[Other] upload_1 2024-12-06', 'Main status', '[Other] New', '[Other] upload_1 2025-02-12', 'BAD count']

>  <inspirations>  (101) 
None

>  <subsites>  (101) 
None

>  <reference>  (101) 


>  <observation_longname>  (101) 
A71EV2A-x1084_A_147_v1

>  <ConformerSites alias>  (101) 
7d - A1084/A/147

>  <CanonSites alias>  (101) 
7 - A0488/A/147/1

>  <CrystalformSites alias>  (101) 
F1ad - A0488/A/147

>  <Quatassemblies alias>  (101) 
A1 - monomer

>  <Crystalforms alias>  (101) 
F1 - A71_2A_open

>  <ConformerSites upload name>  (101) 
7d - A71EV2A-x1084/A/147

>  <CanonSites upload name>  (101) 
7 - A71EV2A-x0488/A/147/1

>  <CrystalformSites upload name>  (101) 
F1ad - A71EV2A-x0488/A/147/1

>  <Quatassemblies upload name>  (101) 
A1 - monomer

>  <Crystalforms upload name>  (101) 
F1 - A71_2A_open

>  <ConformerSites short tag>  (101) 
7d - A1084/A/147

>  <CanonSites short tag>  (101) 
7 - A0488/A/147/1

>  <CrystalformSites short tag>  (101) 
F1ad - A0488/A/147

>  <Quatassemblies short tag>  (101) 
A1 - monomer

>  <Crystalforms short tag>  (101) 
F1 - A71_2A_open

>  <Centroid res>  (101) 
A71EV2A-x0488/A/68/A_v1

>  <Experiment code>  (101) 
A71EV2A-x1084

>  <Pose>  (101) 
A1084a

$$$$
A1105a
     RDKit          3D

 12 13  0  0  0  0  0  0  0  0999 V2000
    8.4090   -9.4190    9.8870 C   0  0  0  0  0  0  0  0  0  0  0  0
    7.5380   -9.0820    8.8660 C   0  0  0  0  0  0  0  0  0  0  0  0
    7.1180   -7.8330    8.6270 N   0  0  0  0  0  0  0  0  0  0  0  0
    7.5140   -6.8990    9.4920 C   0  0  0  0  0  0  0  0  0  0  0  0
    8.3490   -7.1480   10.5670 C   0  0  0  0  0  0  0  0  0  0  0  0
    8.8680   -8.4250   10.7510 C   0  0  0  0  0  0  0  0  0  0  0  0
   10.0250   -8.6640   11.6740 C   0  0  0  0  0  0  0  0  0  0  0  0
   10.4340   -7.6920   12.5920 C   0  0  0  0  0  0  0  0  0  0  0  0
   11.5710   -7.8770   13.3630 C   0  0  0  0  0  0  0  0  0  0  0  0
   10.7970   -9.8220   11.5760 C   0  0  0  0  0  0  0  0  0  0  0  0
   11.9350   -9.9910   12.3510 C   0  0  0  0  0  0  0  0  0  0  0  0
   12.3150   -9.0290   13.2450 C   0  0  0  0  0  0  0  0  0  0  0  0
 12  9  1  0
  9  8  2  0
  8  7  1  0
 10  7  2  0
 11 10  1  0
 12 11  2  0
  7  6  1  0
  6  5  2  0
  5  4  1  0
  4  3  2  0
  3  2  1  0
  2  1  2  0
  6  1  1  0
M  END
>  <id>  (102) 
102

>  <inchikey>  (102) 
JVZRCNQLWOELDU-UHFFFAOYSA-N

>  <alias>  (102) 
A1105a

>  <smiles>  (102) 
c1ccc(-c2ccncc2)cc1

>  <path>  (102) 
/opt/xchem-fragalysis-2/maxwin/BulkDock/TARGETS/A71EV2A/aligned_files/A1105a/A1105a.pdb

>  <distance_score>  (102) 
None

>  <energy_score>  (102) 
None

>  <compound>  (102) 
JVZRCNQLWOELDU-UHFFFAOYSA-N

>  <compound_id>  (102) 
81

>  <target>  (102) 
A71EV2A

>  <tags>  (102) 
['GOOD count', 'MEDIOCRE count', 'hits', '[Other] upload_1 2025-02-12', 'Main status', 'BAD count']

>  <inspirations>  (102) 
None

>  <subsites>  (102) 
None

>  <reference>  (102) 


>  <observation_longname>  (102) 
A71EV2A-x1105_A_147_v1

>  <ConformerSites alias>  (102) 
2a - A3977/A/202

>  <CanonSites alias>  (102) 
2 - A3977/A/202/1

>  <CrystalformSites alias>  (102) 
F1t - A0395/A/147

>  <Quatassemblies alias>  (102) 
A1 - monomer

>  <Crystalforms alias>  (102) 
F1 - A71_2A_open

>  <ConformerSites upload name>  (102) 
2a - A71EV2A-x3977/A/202

>  <CanonSites upload name>  (102) 
2 - A71EV2A-x3977/A/202/1

>  <CrystalformSites upload name>  (102) 
F1t - A71EV2A-x0395/A/147/1

>  <Quatassemblies upload name>  (102) 
A1 - monomer

>  <Crystalforms upload name>  (102) 
F1 - A71_2A_open

>  <ConformerSites short tag>  (102) 
2a - A3977/A/202

>  <CanonSites short tag>  (102) 
2 - A3977/A/202/1

>  <CrystalformSites short tag>  (102) 
F1t - A0395/A/147

>  <Quatassemblies short tag>  (102) 
A1 - monomer

>  <Crystalforms short tag>  (102) 
F1 - A71_2A_open

>  <Centroid res>  (102) 
A71EV2A-x3977/A/113/A_v1

>  <Experiment code>  (102) 
A71EV2A-x1105

>  <Pose>  (102) 
A1105a

$$$$
A1105b
     RDKit          3D

 12 13  0  0  0  0  0  0  0  0999 V2000
   18.2240   -3.5600   18.3210 C   0  0  0  0  0  0  0  0  0  0  0  0
   19.2270   -3.0750   19.1320 C   0  0  0  0  0  0  0  0  0  0  0  0
   19.4870   -3.5480   20.3550 N   0  0  0  0  0  0  0  0  0  0  0  0
   18.7260   -4.5630   20.7790 C   0  0  0  0  0  0  0  0  0  0  0  0
   17.7160   -5.1250   20.0270 C   0  0  0  0  0  0  0  0  0  0  0  0
   17.4250   -4.6000   18.7740 C   0  0  0  0  0  0  0  0  0  0  0  0
   16.1920   -5.0000   18.0380 C   0  0  0  0  0  0  0  0  0  0  0  0
   15.2170   -4.0580   17.7190 C   0  0  0  0  0  0  0  0  0  0  0  0
   13.9960   -4.4480   17.1860 C   0  0  0  0  0  0  0  0  0  0  0  0
   15.9170   -6.3410   17.7680 C   0  0  0  0  0  0  0  0  0  0  0  0
   14.6970   -6.7210   17.2260 C   0  0  0  0  0  0  0  0  0  0  0  0
   13.7340   -5.7750   16.9470 C   0  0  0  0  0  0  0  0  0  0  0  0
 12  9  1  0
  9  8  2  0
  8  7  1  0
 10  7  2  0
 11 10  1  0
 12 11  2  0
  7  6  1  0
  6  5  2  0
  5  4  1  0
  4  3  2  0
  3  2  1  0
  2  1  2  0
  6  1  1  0
M  END
>  <id>  (103) 
103

>  <inchikey>  (103) 
JVZRCNQLWOELDU-UHFFFAOYSA-N

>  <alias>  (103) 
A1105b

>  <smiles>  (103) 
c1ccc(-c2ccncc2)cc1

>  <path>  (103) 
/opt/xchem-fragalysis-2/maxwin/BulkDock/TARGETS/A71EV2A/aligned_files/A1105b/A1105b.pdb

>  <distance_score>  (103) 
None

>  <energy_score>  (103) 
None

>  <compound>  (103) 
JVZRCNQLWOELDU-UHFFFAOYSA-N

>  <compound_id>  (103) 
81

>  <target>  (103) 
A71EV2A

>  <tags>  (103) 
['[Other] Fragment Screen', 'GOOD count', 'MEDIOCRE count', 'hits', '[Other] upload_1 2024-12-06', 'Main status', '[Other] New', '[Other] upload_1 2025-02-12', 'BAD count']

>  <inspirations>  (103) 
None

>  <subsites>  (103) 
None

>  <reference>  (103) 


>  <observation_longname>  (103) 
A71EV2A-x1105_A_148_v1

>  <ConformerSites alias>  (103) 
2a - A3977/A/202

>  <CanonSites alias>  (103) 
2 - A3977/A/202/1

>  <CrystalformSites alias>  (103) 
F1s - A0152/A/201

>  <Quatassemblies alias>  (103) 
A1 - monomer

>  <Crystalforms alias>  (103) 
F1 - A71_2A_open

>  <ConformerSites upload name>  (103) 
2a - A71EV2A-x3977/A/202

>  <CanonSites upload name>  (103) 
2 - A71EV2A-x3977/A/202/1

>  <CrystalformSites upload name>  (103) 
F1s - A71EV2A-x0152/A/201/1

>  <Quatassemblies upload name>  (103) 
A1 - monomer

>  <Crystalforms upload name>  (103) 
F1 - A71_2A_open

>  <ConformerSites short tag>  (103) 
2a - A3977/A/202

>  <CanonSites short tag>  (103) 
2 - A3977/A/202/1

>  <CrystalformSites short tag>  (103) 
F1s - A0152/A/201

>  <Quatassemblies short tag>  (103) 
A1 - monomer

>  <Crystalforms short tag>  (103) 
F1 - A71_2A_open

>  <Centroid res>  (103) 
A71EV2A-x3977/A/113/A_v1

>  <Experiment code>  (103) 
A71EV2A-x1105

>  <Pose>  (103) 
A1105a

$$$$
A1109a
     RDKit          3D

 14 15  0  0  0  0  0  0  0  0999 V2000
    8.8700   -7.4190   12.2330 O   0  0  0  0  0  0  0  0  0  0  0  0
    8.3210   -8.4870   12.0490 C   0  0  0  0  0  0  0  0  0  0  0  0
    8.9060   -9.5080   11.4900 O   0  0  0  0  0  0  0  0  0  0  0  0
    6.9330   -8.7080   12.4730 C   0  0  0  0  0  0  0  0  0  0  0  0
    6.0780   -7.4380   13.2750 S   0  0  0  0  0  0  0  0  0  0  0  0
    4.6930   -8.4690   13.4180 C   0  0  0  0  0  0  0  0  0  0  0  0
    4.8620   -9.6580   12.9040 N   0  0  0  0  0  0  0  0  0  0  0  0
    6.1210   -9.7830   12.3770 C   0  0  0  0  0  0  0  0  0  0  0  0
    3.4460   -8.0210   14.0580 C   0  0  0  0  0  0  0  0  0  0  0  0
    3.0690   -6.6780   14.0300 C   0  0  0  0  0  0  0  0  0  0  0  0
    1.8840   -6.2670   14.6210 C   0  0  0  0  0  0  0  0  0  0  0  0
    1.0720   -7.1810   15.2610 C   0  0  0  0  0  0  0  0  0  0  0  0
    1.4370   -8.5120   15.3020 C   0  0  0  0  0  0  0  0  0  0  0  0
    2.6140   -8.9360   14.7050 C   0  0  0  0  0  0  0  0  0  0  0  0
  3  2  1  0
  2  1  2  0
  4  2  1  0
  4  8  2  0
  8  7  1  0
  7  6  2  0
  6  5  1  0
  5  4  1  0
  9  6  1  0
  9 14  2  0
 14 13  1  0
 13 12  2  0
 12 11  1  0
 11 10  2  0
 10  9  1  0
M  END
>  <id>  (104) 
104

>  <inchikey>  (104) 
LCALUFNLWHYTKX-UHFFFAOYSA-N

>  <alias>  (104) 
A1109a

>  <smiles>  (104) 
O=C(O)c1cnc(-c2ccccc2)s1

>  <path>  (104) 
/opt/xchem-fragalysis-2/maxwin/BulkDock/TARGETS/A71EV2A/aligned_files/A1109a/A1109a.pdb

>  <distance_score>  (104) 
None

>  <energy_score>  (104) 
None

>  <compound>  (104) 
LCALUFNLWHYTKX-UHFFFAOYSA-N

>  <compound_id>  (104) 
82

>  <target>  (104) 
A71EV2A

>  <tags>  (104) 
['[Other] Fragment Screen', 'GOOD count', 'MEDIOCRE count', 'hits', '[Other] upload_1 2024-12-06', 'Main status', '[Other] New', '[Other] upload_1 2025-02-12', 'BAD count']

>  <inspirations>  (104) 
None

>  <subsites>  (104) 
None

>  <reference>  (104) 


>  <observation_longname>  (104) 
A71EV2A-x1109_A_147_v1

>  <ConformerSites alias>  (104) 
2a - A3977/A/202

>  <CanonSites alias>  (104) 
2 - A3977/A/202/1

>  <CrystalformSites alias>  (104) 
F2u - A0497/A/147

>  <Quatassemblies alias>  (104) 
A1 - monomer

>  <Crystalforms alias>  (104) 
F2 - A71_2A_open_small_cell

>  <ConformerSites upload name>  (104) 
2a - A71EV2A-x3977/A/202

>  <CanonSites upload name>  (104) 
2 - A71EV2A-x3977/A/202/1

>  <CrystalformSites upload name>  (104) 
F2u - A71EV2A-x0497/A/147/1

>  <Quatassemblies upload name>  (104) 
A1 - monomer

>  <Crystalforms upload name>  (104) 
F2 - A71_2A_open_small_cell

>  <ConformerSites short tag>  (104) 
2a - A3977/A/202

>  <CanonSites short tag>  (104) 
2 - A3977/A/202/1

>  <CrystalformSites short tag>  (104) 
F2u - A0497/A/147

>  <Quatassemblies short tag>  (104) 
A1 - monomer

>  <Crystalforms short tag>  (104) 
F2 - A71_2A_open_small_cell

>  <Centroid res>  (104) 
A71EV2A-x3977/A/113/A_v1

>  <Experiment code>  (104) 
A71EV2A-x1109

>  <Pose>  (104) 
A1109a

$$$$
A1128a
     RDKit          3D

 12 13  0  0  0  0  0  0  0  0999 V2000
   25.5250   22.1680   21.0010 O   0  0  0  0  0  0  0  0  0  0  0  0
   26.5030   21.4490   20.4750 C   0  0  0  0  0  0  0  0  0  0  0  0
   27.5670   22.1140   19.9620 O   0  0  0  0  0  0  0  0  0  0  0  0
   28.4230   21.1220   19.5930 C   0  0  0  0  0  0  0  0  0  0  0  0
   27.9350   19.9520   19.8200 N   0  0  0  0  0  0  0  0  0  0  0  0
   26.6830   20.1550   20.3970 N   0  0  0  0  0  0  0  0  0  0  0  0
   29.7500   21.4860   19.1040 C   0  0  0  0  0  0  0  0  0  0  0  0
   30.6120   20.5130   18.6020 C   0  0  0  0  0  0  0  0  0  0  0  0
   31.8590   20.8640   18.1120 C   0  0  0  0  0  0  0  0  0  0  0  0
   32.2650   22.1790   18.1290 C   0  0  0  0  0  0  0  0  0  0  0  0
   31.4230   23.1540   18.6290 C   0  0  0  0  0  0  0  0  0  0  0  0
   30.1720   22.8160   19.1130 C   0  0  0  0  0  0  0  0  0  0  0  0
  2  1  1  0
  2  6  2  0
  6  5  1  0
  5  4  2  0
  4  3  1  0
  3  2  1  0
  7  4  1  0
  7 12  2  0
 12 11  1  0
 11 10  2  0
 10  9  1  0
  9  8  2  0
  8  7  1  0
M  END
>  <id>  (105) 
105

>  <inchikey>  (105) 
RFJQGIYJJLWZJP-UHFFFAOYSA-N

>  <alias>  (105) 
A1128a

>  <smiles>  (105) 
Oc1nnc(-c2ccccc2)o1

>  <path>  (105) 
/opt/xchem-fragalysis-2/maxwin/BulkDock/TARGETS/A71EV2A/aligned_files/A1128a/A1128a.pdb

>  <distance_score>  (105) 
None

>  <energy_score>  (105) 
None

>  <compound>  (105) 
RFJQGIYJJLWZJP-UHFFFAOYSA-N

>  <compound_id>  (105) 
83

>  <target>  (105) 
A71EV2A

>  <tags>  (105) 
['[Other] Fragment Screen', 'GOOD count', 'MEDIOCRE count', 'hits', '[Other] upload_1 2024-12-06', 'Main status', '[Other] New', '[Other] upload_1 2025-02-12', 'BAD count']

>  <inspirations>  (105) 
None

>  <subsites>  (105) 
None

>  <reference>  (105) 


>  <observation_longname>  (105) 
A71EV2A-x1128_A_147_v1

>  <ConformerSites alias>  (105) 
10b - A1128/A/147

>  <CanonSites alias>  (105) 
10 - A0900/A/147/1

>  <CrystalformSites alias>  (105) 
F2ah - A0900/A/147

>  <Quatassemblies alias>  (105) 
A1 - monomer

>  <Crystalforms alias>  (105) 
F2 - A71_2A_open_small_cell

>  <ConformerSites upload name>  (105) 
10b - A71EV2A-x1128/A/147

>  <CanonSites upload name>  (105) 
10 - A71EV2A-x0900/A/147/1

>  <CrystalformSites upload name>  (105) 
F2ah - A71EV2A-x0900/A/147/1

>  <Quatassemblies upload name>  (105) 
A1 - monomer

>  <Crystalforms upload name>  (105) 
F2 - A71_2A_open_small_cell

>  <ConformerSites short tag>  (105) 
10b - A1128/A/147

>  <CanonSites short tag>  (105) 
10 - A0900/A/147/1

>  <CrystalformSites short tag>  (105) 
F2ah - A0900/A/147

>  <Quatassemblies short tag>  (105) 
A1 - monomer

>  <Crystalforms short tag>  (105) 
F2 - A71_2A_open_small_cell

>  <Centroid res>  (105) 
A71EV2A-x0900/A/27/A_v1

>  <Experiment code>  (105) 
A71EV2A-x1128

>  <Pose>  (105) 
A1128a

$$$$
A1140a
     RDKit          3D

 15 16  0  0  0  0  0  0  0  0999 V2000
   13.0970    9.6510   24.7100 O   0  0  0  0  0  0  0  0  0  0  0  0
   12.6740   10.7620   24.4830 C   0  0  0  0  0  0  0  0  0  0  0  0
   11.1810   11.0070   24.4930 C   0  0  0  0  0  0  0  0  0  0  0  0
   10.3330    9.9090   24.3250 C   0  0  0  0  0  0  0  0  0  0  0  0
    8.9580   10.0560   24.4220 C   0  0  0  0  0  0  0  0  0  0  0  0
    8.4030   11.2950   24.6420 C   0  0  0  0  0  0  0  0  0  0  0  0
    9.2190   12.4040   24.7920 C   0  0  0  0  0  0  0  0  0  0  0  0
   10.5930   12.2440   24.7420 C   0  0  0  0  0  0  0  0  0  0  0  0
   11.5700   13.6050   25.1100 Cl  0  0  0  0  0  0  0  0  0  0  0  0
   13.6670   11.8880   24.2040 C   0  0  0  0  0  0  0  0  0  0  0  0
   14.7360   12.1490   25.1900 N   0  0  0  0  0  0  0  0  0  0  0  0
   14.2450   12.4950   26.5300 C   0  0  0  0  0  0  0  0  0  0  0  0
   15.4900   12.4370   27.3880 C   0  0  0  0  0  0  0  0  0  0  0  0
   16.3130   11.3300   26.7530 C   0  0  0  0  0  0  0  0  0  0  0  0
   15.6230   11.0000   25.4290 C   0  0  0  0  0  0  0  0  0  0  0  0
  9  8  1  0
  8  7  1  0
  7  6  2  0
  6  5  1  0
  5  4  2  0
  4  3  1  0
  8  3  2  0
  3  2  1  0
  2  1  2  0
 10  2  1  0
 11 10  1  0
 11 15  1  0
 15 14  1  0
 14 13  1  0
 13 12  1  0
 12 11  1  0
M  END
>  <id>  (106) 
106

>  <inchikey>  (106) 
BDGKBEOKGJRBPL-UHFFFAOYSA-N

>  <alias>  (106) 
A1140a

>  <smiles>  (106) 
O=C(CN1CCCC1)c1ccccc1Cl

>  <path>  (106) 
/opt/xchem-fragalysis-2/maxwin/BulkDock/TARGETS/A71EV2A/aligned_files/A1140a/A1140a_hippo.pdb

>  <distance_score>  (106) 
None

>  <energy_score>  (106) 
None

>  <compound>  (106) 
BDGKBEOKGJRBPL-UHFFFAOYSA-N

>  <compound_id>  (106) 
84

>  <target>  (106) 
A71EV2A

>  <tags>  (106) 
['[Other] Fragment Screen', 'GOOD count', "[Other] S1' site", 'MEDIOCRE count', '[Other] S1 site', 'hits', '[Other] Active site fragment', '[Other] upload_1 2024-12-06', 'Main status', '[Other] New', '[Other] upload_1 2025-02-12', 'BAD count']

>  <inspirations>  (106) 
None

>  <subsites>  (106) 
None

>  <reference>  (106) 


>  <observation_longname>  (106) 
A71EV2A-x1140_A_147_v1

>  <ConformerSites alias>  (106) 
1b - A0911/A/147

>  <CanonSites alias>  (106) 
1 - Active Site

>  <CrystalformSites alias>  (106) 
F2b - A0450/A/201

>  <Quatassemblies alias>  (106) 
A1 - monomer

>  <Crystalforms alias>  (106) 
F2 - A71_2A_open_small_cell

>  <ConformerSites upload name>  (106) 
1b - A71EV2A-x0911/A/147

>  <CanonSites upload name>  (106) 
1 - A71EV2A-x0911/A/147/1

>  <CrystalformSites upload name>  (106) 
F2b - A71EV2A-x0450/A/201/1

>  <Quatassemblies upload name>  (106) 
A1 - monomer

>  <Crystalforms upload name>  (106) 
F2 - A71_2A_open_small_cell

>  <ConformerSites short tag>  (106) 
1b - A0911/A/147

>  <CanonSites short tag>  (106) 
1 - A0911/A/147/1

>  <CrystalformSites short tag>  (106) 
F2b - A0450/A/201

>  <Quatassemblies short tag>  (106) 
A1 - monomer

>  <Crystalforms short tag>  (106) 
F2 - A71_2A_open_small_cell

>  <Centroid res>  (106) 
A71EV2A-x0911/A/133/A_v1

>  <Experiment code>  (106) 
A71EV2A-x1140

>  <Pose>  (106) 
A1140a

$$$$
A1145a
     RDKit          3D

 14 15  0  0  0  0  0  0  0  0999 V2000
   33.1530   22.7940   18.8770 F   0  0  0  0  0  0  0  0  0  0  0  0
   31.9270   22.2810   19.1710 C   0  0  0  0  0  0  0  0  0  0  0  0
   31.6790   20.9660   18.8840 C   0  0  0  0  0  0  0  0  0  0  0  0
   30.4030   20.4770   19.1070 C   0  0  0  0  0  0  0  0  0  0  0  0
   29.3910   21.2960   19.5880 C   0  0  0  0  0  0  0  0  0  0  0  0
   29.7060   22.6160   19.8910 C   0  0  0  0  0  0  0  0  0  0  0  0
   30.9810   23.1160   19.6890 C   0  0  0  0  0  0  0  0  0  0  0  0
   27.9560   20.8200   19.5800 C   0  0  0  0  0  0  0  0  0  0  0  0
   27.2310   20.7350   20.9290 C   0  0  1  0  0  0  0  0  0  0  0  0
   27.0520   22.1230   21.5440 C   0  0  0  0  0  0  0  0  0  0  0  0
   26.1380   22.1680   22.6870 N   0  0  0  0  0  0  0  0  0  0  0  0
   24.8160   21.6840   22.3340 C   0  0  0  0  0  0  0  0  0  0  0  0
   24.9480   20.2490   21.9850 C   0  0  0  0  0  0  0  0  0  0  0  0
   25.8560   20.0760   20.7710 C   0  0  0  0  0  0  0  0  0  0  0  0
  2  1  1  0
  2  7  2  0
  7  6  1  0
  6  5  2  0
  8  5  1  0
  9  8  1  6
  9 14  1  0
 14 13  1  0
 13 12  1  0
 12 11  1  0
 11 10  1  0
 10  9  1  0
  5  4  1  0
  4  3  2  0
  3  2  1  0
M  END
>  <id>  (107) 
107

>  <inchikey>  (107) 
WATWKPHWUDHKGA-NSHDSACASA-N

>  <alias>  (107) 
A1145a

>  <smiles>  (107) 
Fc1ccc(C[C@@H]2CCCNC2)cc1

>  <path>  (107) 
/opt/xchem-fragalysis-2/maxwin/BulkDock/TARGETS/A71EV2A/aligned_files/A1145a/A1145a.pdb

>  <distance_score>  (107) 
None

>  <energy_score>  (107) 
None

>  <compound>  (107) 
WATWKPHWUDHKGA-UHFFFAOYSA-N

>  <compound_id>  (107) 
85

>  <target>  (107) 
A71EV2A

>  <tags>  (107) 
['[Other] Fragment Screen', 'GOOD count', 'MEDIOCRE count', 'hits', '[Other] upload_1 2024-12-06', 'Main status', '[Other] New', '[Other] upload_1 2025-02-12', 'BAD count']

>  <inspirations>  (107) 
None

>  <subsites>  (107) 
None

>  <reference>  (107) 


>  <observation_longname>  (107) 
A71EV2A-x1145_A_147_v1

>  <ConformerSites alias>  (107) 
5a - A3181/A/202

>  <CanonSites alias>  (107) 
5 - A3181/A/202/1

>  <CrystalformSites alias>  (107) 
F2aa - A0528/A/201

>  <Quatassemblies alias>  (107) 
A1 - monomer

>  <Crystalforms alias>  (107) 
F2 - A71_2A_open_small_cell

>  <ConformerSites upload name>  (107) 
5a - A71EV2A-x3181/A/202

>  <CanonSites upload name>  (107) 
5 - A71EV2A-x3181/A/202/1

>  <CrystalformSites upload name>  (107) 
F2aa - A71EV2A-x0528/A/201/1

>  <Quatassemblies upload name>  (107) 
A1 - monomer

>  <Crystalforms upload name>  (107) 
F2 - A71_2A_open_small_cell

>  <ConformerSites short tag>  (107) 
5a - A3181/A/202

>  <CanonSites short tag>  (107) 
5 - A3181/A/202/1

>  <CrystalformSites short tag>  (107) 
F2aa - A0528/A/201

>  <Quatassemblies short tag>  (107) 
A1 - monomer

>  <Crystalforms short tag>  (107) 
F2 - A71_2A_open_small_cell

>  <Centroid res>  (107) 
A71EV2A-x3181/A/20/A_v1

>  <Experiment code>  (107) 
A71EV2A-x1145

>  <Pose>  (107) 
A1145a

$$$$
A1145b
     RDKit          3D

 14 15  0  0  0  0  0  0  0  0999 V2000
   12.8620   -7.8610   15.0400 F   0  0  0  0  0  0  0  0  0  0  0  0
   12.8360   -8.5540   13.8810 C   0  0  0  0  0  0  0  0  0  0  0  0
   14.0260   -8.8730   13.2850 C   0  0  0  0  0  0  0  0  0  0  0  0
   14.0060   -9.7470   12.2120 C   0  0  0  0  0  0  0  0  0  0  0  0
   12.8180  -10.3040   11.7590 C   0  0  0  0  0  0  0  0  0  0  0  0
   11.6320   -9.8860   12.3570 C   0  0  0  0  0  0  0  0  0  0  0  0
   11.6360   -9.0040   13.4230 C   0  0  0  0  0  0  0  0  0  0  0  0
   12.8470  -11.4960   10.8270 C   0  0  0  0  0  0  0  0  0  0  0  0
   12.0090  -11.4290    9.5410 C   0  0  2  0  0  0  0  0  0  0  0  0
   10.6000  -10.8840    9.7830 C   0  0  0  0  0  0  0  0  0  0  0  0
    9.6280  -11.4420    8.8360 N   0  0  0  0  0  0  0  0  0  0  0  0
    9.3980  -12.8760    9.0750 C   0  0  0  0  0  0  0  0  0  0  0  0
   10.7010  -13.6050    9.3710 C   0  0  0  0  0  0  0  0  0  0  0  0
   11.8960  -12.7960    8.8640 C   0  0  0  0  0  0  0  0  0  0  0  0
  2  1  1  0
  2  7  2  0
  7  6  1  0
  6  5  2  0
  8  5  1  0
  9  8  1  1
  9 14  1  0
 14 13  1  0
 13 12  1  0
 12 11  1  0
 11 10  1  0
 10  9  1  0
  5  4  1  0
  4  3  2  0
  3  2  1  0
M  END
>  <id>  (108) 
108

>  <inchikey>  (108) 
WATWKPHWUDHKGA-LLVKDONJSA-N

>  <alias>  (108) 
A1145b

>  <smiles>  (108) 
Fc1ccc(C[C@H]2CCCNC2)cc1

>  <path>  (108) 
/opt/xchem-fragalysis-2/maxwin/BulkDock/TARGETS/A71EV2A/aligned_files/A1145b/A1145b.pdb

>  <distance_score>  (108) 
None

>  <energy_score>  (108) 
None

>  <compound>  (108) 
WATWKPHWUDHKGA-UHFFFAOYSA-N

>  <compound_id>  (108) 
85

>  <target>  (108) 
A71EV2A

>  <tags>  (108) 
['[Other] Fragment Screen', 'GOOD count', 'MEDIOCRE count', 'hits', '[Other] upload_1 2024-12-06', 'Main status', '[Other] New', '[Other] upload_1 2025-02-12', 'BAD count']

>  <inspirations>  (108) 
None

>  <subsites>  (108) 
None

>  <reference>  (108) 


>  <observation_longname>  (108) 
A71EV2A-x1145_A_201_v1

>  <ConformerSites alias>  (108) 
2a - A3977/A/202

>  <CanonSites alias>  (108) 
2 - A3977/A/202/1

>  <CrystalformSites alias>  (108) 
F2u - A0497/A/147

>  <Quatassemblies alias>  (108) 
A1 - monomer

>  <Crystalforms alias>  (108) 
F2 - A71_2A_open_small_cell

>  <ConformerSites upload name>  (108) 
2a - A71EV2A-x3977/A/202

>  <CanonSites upload name>  (108) 
2 - A71EV2A-x3977/A/202/1

>  <CrystalformSites upload name>  (108) 
F2u - A71EV2A-x0497/A/147/1

>  <Quatassemblies upload name>  (108) 
A1 - monomer

>  <Crystalforms upload name>  (108) 
F2 - A71_2A_open_small_cell

>  <ConformerSites short tag>  (108) 
2a - A3977/A/202

>  <CanonSites short tag>  (108) 
2 - A3977/A/202/1

>  <CrystalformSites short tag>  (108) 
F2u - A0497/A/147

>  <Quatassemblies short tag>  (108) 
A1 - monomer

>  <Crystalforms short tag>  (108) 
F2 - A71_2A_open_small_cell

>  <Centroid res>  (108) 
A71EV2A-x3977/A/113/A_v1

>  <Experiment code>  (108) 
A71EV2A-x1145

>  <Pose>  (108) 
A1145b

$$$$
A1146a
     RDKit          3D

 13 14  0  0  0  0  0  0  0  0999 V2000
   24.4590   21.0920   21.9130 O   0  0  0  0  0  0  0  0  0  0  0  0
   25.7980   21.0350   21.6640 C   0  0  0  0  0  0  0  0  0  0  0  0
   26.5620   22.1480   21.9280 C   0  0  0  0  0  0  0  0  0  0  0  0
   27.7500   22.3630   21.3490 N   0  0  0  0  0  0  0  0  0  0  0  0
   28.1700   21.4250   20.4880 C   0  0  0  0  0  0  0  0  0  0  0  0
   27.5030   20.3070   20.1610 N   0  0  0  0  0  0  0  0  0  0  0  0
   26.3190   20.1270   20.7630 C   0  0  0  0  0  0  0  0  0  0  0  0
   29.4960   21.6380   19.8490 C   0  0  0  0  0  0  0  0  0  0  0  0
   30.1200   22.8840   19.8970 C   0  0  0  0  0  0  0  0  0  0  0  0
   31.3410   23.0890   19.2750 C   0  0  0  0  0  0  0  0  0  0  0  0
   31.9560   22.0600   18.5970 C   0  0  0  0  0  0  0  0  0  0  0  0
   31.3570   20.8230   18.5450 C   0  0  0  0  0  0  0  0  0  0  0  0
   30.1380   20.6080   19.1660 C   0  0  0  0  0  0  0  0  0  0  0  0
  2  1  1  0
  2  7  2  0
  7  6  1  0
  6  5  2  0
  5  4  1  0
  4  3  2  0
  3  2  1  0
  8  5  1  0
  8 13  2  0
 13 12  1  0
 12 11  2  0
 11 10  1  0
 10  9  2  0
  9  8  1  0
M  END
>  <id>  (109) 
109

>  <inchikey>  (109) 
VXOJYMHSOARYSV-UHFFFAOYSA-N

>  <alias>  (109) 
A1146a

>  <smiles>  (109) 
Oc1cnc(-c2ccccc2)nc1

>  <path>  (109) 
/opt/xchem-fragalysis-2/maxwin/BulkDock/TARGETS/A71EV2A/aligned_files/A1146a/A1146a.pdb

>  <distance_score>  (109) 
None

>  <energy_score>  (109) 
None

>  <compound>  (109) 
VXOJYMHSOARYSV-UHFFFAOYSA-N

>  <compound_id>  (109) 
86

>  <target>  (109) 
A71EV2A

>  <tags>  (109) 
['[Other] Fragment Screen', 'GOOD count', 'MEDIOCRE count', 'hits', '[Other] upload_1 2024-12-06', 'Main status', '[Other] New', '[Other] upload_1 2025-02-12', 'BAD count']

>  <inspirations>  (109) 
None

>  <subsites>  (109) 
None

>  <reference>  (109) 


>  <observation_longname>  (109) 
A71EV2A-x1146_A_147_v1

>  <ConformerSites alias>  (109) 
5a - A3181/A/202

>  <CanonSites alias>  (109) 
5 - A3181/A/202/1

>  <CrystalformSites alias>  (109) 
F2aa - A0528/A/201

>  <Quatassemblies alias>  (109) 
A1 - monomer

>  <Crystalforms alias>  (109) 
F2 - A71_2A_open_small_cell

>  <ConformerSites upload name>  (109) 
5a - A71EV2A-x3181/A/202

>  <CanonSites upload name>  (109) 
5 - A71EV2A-x3181/A/202/1

>  <CrystalformSites upload name>  (109) 
F2aa - A71EV2A-x0528/A/201/1

>  <Quatassemblies upload name>  (109) 
A1 - monomer

>  <Crystalforms upload name>  (109) 
F2 - A71_2A_open_small_cell

>  <ConformerSites short tag>  (109) 
5a - A3181/A/202

>  <CanonSites short tag>  (109) 
5 - A3181/A/202/1

>  <CrystalformSites short tag>  (109) 
F2aa - A0528/A/201

>  <Quatassemblies short tag>  (109) 
A1 - monomer

>  <Crystalforms short tag>  (109) 
F2 - A71_2A_open_small_cell

>  <Centroid res>  (109) 
A71EV2A-x3181/A/20/A_v1

>  <Experiment code>  (109) 
A71EV2A-x1146

>  <Pose>  (109) 
A1146a

$$$$
A1148a
     RDKit          3D

  6  6  0  0  0  0  0  0  0  0999 V2000
    9.6130    9.3660   23.4090 Br  0  0  0  0  0  0  0  0  0  0  0  0
    8.7260   10.6250   24.4780 C   0  0  0  0  0  0  0  0  0  0  0  0
    9.0880   11.9380   24.5730 N   0  0  0  0  0  0  0  0  0  0  0  0
    8.2320   12.4890   25.4220 C   0  0  0  0  0  0  0  0  0  0  0  0
    7.3390   11.6010   25.8790 N   0  0  0  0  0  0  0  0  0  0  0  0
    7.6260   10.4010   25.2960 C   0  0  0  0  0  0  0  0  0  0  0  0
  2  1  1  0
  2  6  2  0
  6  5  1  0
  5  4  1  0
  4  3  2  0
  3  2  1  0
M  END
>  <id>  (110) 
110

>  <inchikey>  (110) 
FHZALEJIENDROK-UHFFFAOYSA-N

>  <alias>  (110) 
A1148a

>  <smiles>  (110) 
Brc1c[nH]cn1

>  <path>  (110) 
/opt/xchem-fragalysis-2/maxwin/BulkDock/TARGETS/A71EV2A/aligned_files/A1148a/A1148a.pdb

>  <distance_score>  (110) 
None

>  <energy_score>  (110) 
None

>  <compound>  (110) 
FHZALEJIENDROK-UHFFFAOYSA-N

>  <compound_id>  (110) 
87

>  <target>  (110) 
A71EV2A

>  <tags>  (110) 
['[Other] Fragment Screen', 'GOOD count', 'MEDIOCRE count', '[Other] S1 site', 'hits', '[Other] Active site fragment', '[Other] upload_1 2024-12-06', 'Main status', '[Other] New', '[Other] upload_1 2025-02-12', 'BAD count']

>  <inspirations>  (110) 
None

>  <subsites>  (110) 
None

>  <reference>  (110) 


>  <observation_longname>  (110) 
A71EV2A-x1148_A_201_v1

>  <ConformerSites alias>  (110) 
1b - A0911/A/147

>  <CanonSites alias>  (110) 
1 - Active Site

>  <CrystalformSites alias>  (110) 
F4f - A0836/A/301

>  <Quatassemblies alias>  (110) 
A1 - monomer

>  <Crystalforms alias>  (110) 
F4 - A71_2A_new_model_x2721_4.1_ref3

>  <ConformerSites upload name>  (110) 
1b - A71EV2A-x0911/A/147

>  <CanonSites upload name>  (110) 
1 - A71EV2A-x0911/A/147/1

>  <CrystalformSites upload name>  (110) 
F4f - A71EV2A-x0836/A/301/1

>  <Quatassemblies upload name>  (110) 
A1 - monomer

>  <Crystalforms upload name>  (110) 
F4 - A71_2A_new_model_x2721_4.1_ref3

>  <ConformerSites short tag>  (110) 
1b - A0911/A/147

>  <CanonSites short tag>  (110) 
1 - A0911/A/147/1

>  <CrystalformSites short tag>  (110) 
F4f - A0836/A/301

>  <Quatassemblies short tag>  (110) 
A1 - monomer

>  <Crystalforms short tag>  (110) 
F4 - A71_2A_new_model_x2721_4.1_ref3

>  <Centroid res>  (110) 
A71EV2A-x0911/A/133/A_v1

>  <Experiment code>  (110) 
A71EV2A-x1148

>  <Pose>  (110) 
A1148a

$$$$
A1148b
     RDKit          3D

  6  6  0  0  0  0  0  0  0  0999 V2000
   12.6830   -8.5720   14.2070 Br  0  0  0  0  0  0  0  0  0  0  0  0
   11.4330   -8.6240   12.8100 C   0  0  0  0  0  0  0  0  0  0  0  0
   10.3660   -7.7790   12.7130 N   0  0  0  0  0  0  0  0  0  0  0  0
    9.7100   -8.1510   11.6240 C   0  0  0  0  0  0  0  0  0  0  0  0
   10.2980   -9.1840   11.0080 N   0  0  0  0  0  0  0  0  0  0  0  0
   11.4060   -9.5140   11.7370 C   0  0  0  0  0  0  0  0  0  0  0  0
  2  1  1  0
  2  6  2  0
  6  5  1  0
  5  4  1  0
  4  3  2  0
  3  2  1  0
M  END
>  <id>  (111) 
111

>  <inchikey>  (111) 
FHZALEJIENDROK-UHFFFAOYSA-N

>  <alias>  (111) 
A1148b

>  <smiles>  (111) 
Brc1c[nH]cn1

>  <path>  (111) 
/opt/xchem-fragalysis-2/maxwin/BulkDock/TARGETS/A71EV2A/aligned_files/A1148b/A1148b.pdb

>  <distance_score>  (111) 
None

>  <energy_score>  (111) 
None

>  <compound>  (111) 
FHZALEJIENDROK-UHFFFAOYSA-N

>  <compound_id>  (111) 
87

>  <target>  (111) 
A71EV2A

>  <tags>  (111) 
['[Other] Fragment Screen', 'GOOD count', 'MEDIOCRE count', 'hits', '[Other] upload_1 2024-12-06', 'Main status', '[Other] New', '[Other] upload_1 2025-02-12', 'BAD count']

>  <inspirations>  (111) 
None

>  <subsites>  (111) 
None

>  <reference>  (111) 


>  <observation_longname>  (111) 
A71EV2A-x1148_A_147_v1

>  <ConformerSites alias>  (111) 
2a - A3977/A/202

>  <CanonSites alias>  (111) 
2 - A3977/A/202/1

>  <CrystalformSites alias>  (111) 
F4v - A1148/A/147

>  <Quatassemblies alias>  (111) 
A1 - monomer

>  <Crystalforms alias>  (111) 
F4 - A71_2A_new_model_x2721_4.1_ref3

>  <ConformerSites upload name>  (111) 
2a - A71EV2A-x3977/A/202

>  <CanonSites upload name>  (111) 
2 - A71EV2A-x3977/A/202/1

>  <CrystalformSites upload name>  (111) 
F4v - A71EV2A-x1148/A/147/1

>  <Quatassemblies upload name>  (111) 
A1 - monomer

>  <Crystalforms upload name>  (111) 
F4 - A71_2A_new_model_x2721_4.1_ref3

>  <ConformerSites short tag>  (111) 
2a - A3977/A/202

>  <CanonSites short tag>  (111) 
2 - A3977/A/202/1

>  <CrystalformSites short tag>  (111) 
F4v - A1148/A/147

>  <Quatassemblies short tag>  (111) 
A1 - monomer

>  <Crystalforms short tag>  (111) 
F4 - A71_2A_new_model_x2721_4.1_ref3

>  <Centroid res>  (111) 
A71EV2A-x3977/A/113/A_v1

>  <Experiment code>  (111) 
A71EV2A-x1148

>  <Pose>  (111) 
A1148b

$$$$
A1169a
     RDKit          3D

  7  7  0  0  0  0  0  0  0  0999 V2000
    9.7630    9.2630   23.4540 N   0  0  0  0  0  0  0  0  0  0  0  0
    9.0380    9.7430   24.1420 C   0  0  0  0  0  0  0  0  0  0  0  0
    8.0470   10.2950   25.0180 C   0  0  0  0  0  0  0  0  0  0  0  0
    6.9030    9.6210   25.3390 N   0  0  0  0  0  0  0  0  0  0  0  0
    6.2660   10.4360   26.0990 C   0  0  0  0  0  0  0  0  0  0  0  0
    6.8810   11.6180   26.3220 O   0  0  0  0  0  0  0  0  0  0  0  0
    8.0380   11.4940   25.6160 C   0  0  0  0  0  0  0  0  0  0  0  0
  2  1  3  0
  3  2  1  0
  3  7  2  0
  7  6  1  0
  6  5  1  0
  5  4  2  0
  4  3  1  0
M  END
>  <id>  (112) 
112

>  <inchikey>  (112) 
UEEBKQWDBWDPKD-UHFFFAOYSA-N

>  <alias>  (112) 
A1169a

>  <smiles>  (112) 
N#Cc1cocn1

>  <path>  (112) 
/opt/xchem-fragalysis-2/maxwin/BulkDock/TARGETS/A71EV2A/aligned_files/A1169a/A1169a.pdb

>  <distance_score>  (112) 
None

>  <energy_score>  (112) 
None

>  <compound>  (112) 
UEEBKQWDBWDPKD-UHFFFAOYSA-N

>  <compound_id>  (112) 
88

>  <target>  (112) 
A71EV2A

>  <tags>  (112) 
['[Other] Fragment Screen', 'GOOD count', 'MEDIOCRE count', '[Other] S1 site', 'hits', '[Other] Active site fragment', '[Other] upload_1 2024-12-06', 'Main status', '[Other] New', '[Other] upload_1 2025-02-12', 'BAD count']

>  <inspirations>  (112) 
None

>  <subsites>  (112) 
None

>  <reference>  (112) 


>  <observation_longname>  (112) 
A71EV2A-x1169_A_151_v1

>  <ConformerSites alias>  (112) 
1b - A0911/A/147

>  <CanonSites alias>  (112) 
1 - Active Site

>  <CrystalformSites alias>  (112) 
F3c - A0487/A/250

>  <Quatassemblies alias>  (112) 
A1 - monomer

>  <Crystalforms alias>  (112) 
F3 - A71_2A_open_long_cell

>  <ConformerSites upload name>  (112) 
1b - A71EV2A-x0911/A/147

>  <CanonSites upload name>  (112) 
1 - A71EV2A-x0911/A/147/1

>  <CrystalformSites upload name>  (112) 
F3c - A71EV2A-x0487/A/250/1

>  <Quatassemblies upload name>  (112) 
A1 - monomer

>  <Crystalforms upload name>  (112) 
F3 - A71_2A_open_long_cell

>  <ConformerSites short tag>  (112) 
1b - A0911/A/147

>  <CanonSites short tag>  (112) 
1 - A0911/A/147/1

>  <CrystalformSites short tag>  (112) 
F3c - A0487/A/250

>  <Quatassemblies short tag>  (112) 
A1 - monomer

>  <Crystalforms short tag>  (112) 
F3 - A71_2A_open_long_cell

>  <Centroid res>  (112) 
A71EV2A-x0911/A/133/A_v1

>  <Experiment code>  (112) 
A71EV2A-x1169

>  <Pose>  (112) 
A1169a

$$$$
A1180a
     RDKit          3D

  6  6  0  0  0  0  0  0  0  0999 V2000
    2.4900   12.9810   17.9860 Cl  0  0  0  0  0  0  0  0  0  0  0  0
    2.9960   11.8140   19.1680 C   0  0  0  0  0  0  0  0  0  0  0  0
    4.0950   11.0150   19.0450 N   0  0  0  0  0  0  0  0  0  0  0  0
    4.0960   10.2160   20.1000 C   0  0  0  0  0  0  0  0  0  0  0  0
    3.0570   10.4570   20.9170 N   0  0  0  0  0  0  0  0  0  0  0  0
    2.3330   11.4810   20.3720 C   0  0  0  0  0  0  0  0  0  0  0  0
  2  1  1  0
  2  6  2  0
  6  5  1  0
  5  4  1  0
  4  3  2  0
  3  2  1  0
M  END
>  <id>  (113) 
113

>  <inchikey>  (113) 
BQRBAXFOPZRMCU-UHFFFAOYSA-N

>  <alias>  (113) 
A1180a

>  <smiles>  (113) 
Clc1c[nH]cn1

>  <path>  (113) 
/opt/xchem-fragalysis-2/maxwin/BulkDock/TARGETS/A71EV2A/aligned_files/A1180a/A1180a_hippo.pdb

>  <distance_score>  (113) 
None

>  <energy_score>  (113) 
None

>  <compound>  (113) 
BQRBAXFOPZRMCU-UHFFFAOYSA-N

>  <compound_id>  (113) 
89

>  <target>  (113) 
A71EV2A

>  <tags>  (113) 
['[Other] Fragment Screen', 'GOOD count', 'MEDIOCRE count', '[Other] S5 site', 'hits', '[Other] Active site fragment', '[Other] upload_1 2024-12-06', 'Main status', '[Other] New', '[Other] upload_1 2025-02-12', 'BAD count']

>  <inspirations>  (113) 
None

>  <subsites>  (113) 
None

>  <reference>  (113) 


>  <observation_longname>  (113) 
A71EV2A-x1180_A_151_v1

>  <ConformerSites alias>  (113) 
1b - A0911/A/147

>  <CanonSites alias>  (113) 
1 - Active Site

>  <CrystalformSites alias>  (113) 
F3d - A0501/A/152

>  <Quatassemblies alias>  (113) 
A1 - monomer

>  <Crystalforms alias>  (113) 
F3 - A71_2A_open_long_cell

>  <ConformerSites upload name>  (113) 
1b - A71EV2A-x0911/A/147

>  <CanonSites upload name>  (113) 
1 - A71EV2A-x0911/A/147/1

>  <CrystalformSites upload name>  (113) 
F3d - A71EV2A-x0501/A/152/1

>  <Quatassemblies upload name>  (113) 
A1 - monomer

>  <Crystalforms upload name>  (113) 
F3 - A71_2A_open_long_cell

>  <ConformerSites short tag>  (113) 
1b - A0911/A/147

>  <CanonSites short tag>  (113) 
1 - A0911/A/147/1

>  <CrystalformSites short tag>  (113) 
F3d - A0501/A/152

>  <Quatassemblies short tag>  (113) 
A1 - monomer

>  <Crystalforms short tag>  (113) 
F3 - A71_2A_open_long_cell

>  <Centroid res>  (113) 
A71EV2A-x0911/A/133/A_v1

>  <Experiment code>  (113) 
A71EV2A-x1180

>  <Pose>  (113) 
A1180a

$$$$
A1180b
     RDKit          3D

  6  6  0  0  0  0  0  0  0  0999 V2000
    9.5440    9.3680   23.3020 Cl  0  0  0  0  0  0  0  0  0  0  0  0
    8.4680   10.2380   24.3420 C   0  0  0  0  0  0  0  0  0  0  0  0
    7.4100    9.6710   24.9790 N   0  0  0  0  0  0  0  0  0  0  0  0
    6.8400   10.6410   25.6780 C   0  0  0  0  0  0  0  0  0  0  0  0
    7.4720   11.8100   25.5230 N   0  0  0  0  0  0  0  0  0  0  0  0
    8.5210   11.5960   24.6720 C   0  0  0  0  0  0  0  0  0  0  0  0
  2  1  1  0
  2  6  2  0
  6  5  1  0
  5  4  1  0
  4  3  2  0
  3  2  1  0
M  END
>  <id>  (114) 
114

>  <inchikey>  (114) 
BQRBAXFOPZRMCU-UHFFFAOYSA-N

>  <alias>  (114) 
A1180b

>  <smiles>  (114) 
Clc1c[nH]cn1

>  <path>  (114) 
/opt/xchem-fragalysis-2/maxwin/BulkDock/TARGETS/A71EV2A/aligned_files/A1180b/A1180b_hippo.pdb

>  <distance_score>  (114) 
None

>  <energy_score>  (114) 
None

>  <compound>  (114) 
BQRBAXFOPZRMCU-UHFFFAOYSA-N

>  <compound_id>  (114) 
89

>  <target>  (114) 
A71EV2A

>  <tags>  (114) 
['[Other] Fragment Screen', 'GOOD count', 'MEDIOCRE count', '[Other] S1 site', 'hits', '[Other] Active site fragment', '[Other] upload_1 2024-12-06', 'Main status', '[Other] New', '[Other] upload_1 2025-02-12', 'BAD count']

>  <inspirations>  (114) 
None

>  <subsites>  (114) 
None

>  <reference>  (114) 


>  <observation_longname>  (114) 
A71EV2A-x1180_B_151_v1

>  <ConformerSites alias>  (114) 
1b - A0911/A/147

>  <CanonSites alias>  (114) 
1 - Active Site

>  <CrystalformSites alias>  (114) 
F3c - A0487/A/250

>  <Quatassemblies alias>  (114) 
A1 - monomer

>  <Crystalforms alias>  (114) 
F3 - A71_2A_open_long_cell

>  <ConformerSites upload name>  (114) 
1b - A71EV2A-x0911/A/147

>  <CanonSites upload name>  (114) 
1 - A71EV2A-x0911/A/147/1

>  <CrystalformSites upload name>  (114) 
F3c - A71EV2A-x0487/A/250/1

>  <Quatassemblies upload name>  (114) 
A1 - monomer

>  <Crystalforms upload name>  (114) 
F3 - A71_2A_open_long_cell

>  <ConformerSites short tag>  (114) 
1b - A0911/A/147

>  <CanonSites short tag>  (114) 
1 - A0911/A/147/1

>  <CrystalformSites short tag>  (114) 
F3c - A0487/A/250

>  <Quatassemblies short tag>  (114) 
A1 - monomer

>  <Crystalforms short tag>  (114) 
F3 - A71_2A_open_long_cell

>  <Centroid res>  (114) 
A71EV2A-x0911/A/133/A_v1

>  <Experiment code>  (114) 
A71EV2A-x1180

>  <Pose>  (114) 
A1180a

$$$$
A1209a
     RDKit          3D

  6  6  0  0  0  0  0  0  0  0999 V2000
    9.5600    9.2170   23.2780 Br  0  0  0  0  0  0  0  0  0  0  0  0
    8.3850    9.9550   24.5230 C   0  0  0  0  0  0  0  0  0  0  0  0
    7.2530    9.2930   24.9640 N   0  0  0  0  0  0  0  0  0  0  0  0
    6.6230   10.1170   25.8540 C   0  0  0  0  0  0  0  0  0  0  0  0
    7.3760   11.2230   25.9330 C   0  0  0  0  0  0  0  0  0  0  0  0
    8.4570   11.1180   25.1000 N   0  0  0  0  0  0  0  0  0  0  0  0
  2  1  1  0
  2  6  2  0
  6  5  1  0
  5  4  2  0
  4  3  1  0
  3  2  1  0
M  END
>  <id>  (115) 
115

>  <inchikey>  (115) 
AXHRGVJWDJDYPO-UHFFFAOYSA-N

>  <alias>  (115) 
A1209a

>  <smiles>  (115) 
Brc1ncc[nH]1

>  <path>  (115) 
/opt/xchem-fragalysis-2/maxwin/BulkDock/TARGETS/A71EV2A/aligned_files/A1209a/A1209a.pdb

>  <distance_score>  (115) 
None

>  <energy_score>  (115) 
None

>  <compound>  (115) 
AXHRGVJWDJDYPO-UHFFFAOYSA-N

>  <compound_id>  (115) 
90

>  <target>  (115) 
A71EV2A

>  <tags>  (115) 
['[Other] Fragment Screen', 'GOOD count', 'MEDIOCRE count', '[Other] S1 site', 'hits', '[Other] Active site fragment', '[Other] upload_1 2024-12-06', 'Main status', '[Other] New', '[Other] upload_1 2025-02-12', 'BAD count']

>  <inspirations>  (115) 
None

>  <subsites>  (115) 
None

>  <reference>  (115) 


>  <observation_longname>  (115) 
A71EV2A-x1209_A_151_v1

>  <ConformerSites alias>  (115) 
1b - A0911/A/147

>  <CanonSites alias>  (115) 
1 - Active Site

>  <CrystalformSites alias>  (115) 
F3c - A0487/A/250

>  <Quatassemblies alias>  (115) 
A1 - monomer

>  <Crystalforms alias>  (115) 
F3 - A71_2A_open_long_cell

>  <ConformerSites upload name>  (115) 
1b - A71EV2A-x0911/A/147

>  <CanonSites upload name>  (115) 
1 - A71EV2A-x0911/A/147/1

>  <CrystalformSites upload name>  (115) 
F3c - A71EV2A-x0487/A/250/1

>  <Quatassemblies upload name>  (115) 
A1 - monomer

>  <Crystalforms upload name>  (115) 
F3 - A71_2A_open_long_cell

>  <ConformerSites short tag>  (115) 
1b - A0911/A/147

>  <CanonSites short tag>  (115) 
1 - A0911/A/147/1

>  <CrystalformSites short tag>  (115) 
F3c - A0487/A/250

>  <Quatassemblies short tag>  (115) 
A1 - monomer

>  <Crystalforms short tag>  (115) 
F3 - A71_2A_open_long_cell

>  <Centroid res>  (115) 
A71EV2A-x0911/A/133/A_v1

>  <Experiment code>  (115) 
A71EV2A-x1209

>  <Pose>  (115) 
A1209a

$$$$
A1255a
     RDKit          3D

 12 12  0  0  0  0  0  0  0  0999 V2000
    9.7310    9.4020   23.5360 Br  0  0  0  0  0  0  0  0  0  0  0  0
    8.5500   10.4250   24.5940 C   0  0  0  0  0  0  0  0  0  0  0  0
    8.6660   11.7750   24.6250 C   0  0  0  0  0  0  0  0  0  0  0  0
    7.7800   12.5680   25.4310 C   0  0  0  0  0  0  0  0  0  0  0  0
    7.8120   13.7960   25.5120 O   0  0  0  0  0  0  0  0  0  0  0  0
    7.5560    9.7420   25.3380 C   0  0  0  0  0  0  0  0  0  0  0  0
    6.7280   10.4870   26.0920 C   0  0  0  0  0  0  0  0  0  0  0  0
    6.8230   11.8520   26.1570 N   0  0  0  0  0  0  0  0  0  0  0  0
    5.9180   12.5980   27.0490 C   0  0  0  0  0  0  0  0  0  0  0  0
    6.5690   12.9320   28.3730 C   0  0  0  0  0  0  0  0  0  0  0  0
    5.9060   12.2460   29.4260 O   0  0  0  0  0  0  0  0  0  0  0  0
    6.0010   10.8240   29.3870 C   0  0  0  0  0  0  0  0  0  0  0  0
  5  4  2  0
  4  8  1  0
  9  8  1  0
 10  9  1  0
 11 10  1  0
 12 11  1  0
  8  7  1  0
  7  6  2  0
  6  2  1  0
  2  1  1  0
  3  2  2  0
  4  3  1  0
M  END
>  <id>  (116) 
116

>  <inchikey>  (116) 
DIGIWFMOFFHOCA-UHFFFAOYSA-N

>  <alias>  (116) 
A1255a

>  <smiles>  (116) 
COCCn1ccc(Br)cc1=O

>  <path>  (116) 
/opt/xchem-fragalysis-2/maxwin/BulkDock/TARGETS/A71EV2A/aligned_files/A1255a/A1255a.pdb

>  <distance_score>  (116) 
None

>  <energy_score>  (116) 
None

>  <compound>  (116) 
DIGIWFMOFFHOCA-UHFFFAOYSA-N

>  <compound_id>  (116) 
91

>  <target>  (116) 
A71EV2A

>  <tags>  (116) 
['[Other] Fragment Screen', 'GOOD count', 'MEDIOCRE count', '[Other] S1 site', 'hits', '[Other] Active site fragment', '[Other] upload_1 2024-12-06', 'Main status', '[Other] New', '[Other] upload_1 2025-02-12', 'BAD count']

>  <inspirations>  (116) 
None

>  <subsites>  (116) 
None

>  <reference>  (116) 


>  <observation_longname>  (116) 
A71EV2A-x1255_B_201_v1

>  <ConformerSites alias>  (116) 
1b - A0911/A/147

>  <CanonSites alias>  (116) 
1 - Active Site

>  <CrystalformSites alias>  (116) 
F3c - A0487/A/250

>  <Quatassemblies alias>  (116) 
A1 - monomer

>  <Crystalforms alias>  (116) 
F3 - A71_2A_open_long_cell

>  <ConformerSites upload name>  (116) 
1b - A71EV2A-x0911/A/147

>  <CanonSites upload name>  (116) 
1 - A71EV2A-x0911/A/147/1

>  <CrystalformSites upload name>  (116) 
F3c - A71EV2A-x0487/A/250/1

>  <Quatassemblies upload name>  (116) 
A1 - monomer

>  <Crystalforms upload name>  (116) 
F3 - A71_2A_open_long_cell

>  <ConformerSites short tag>  (116) 
1b - A0911/A/147

>  <CanonSites short tag>  (116) 
1 - A0911/A/147/1

>  <CrystalformSites short tag>  (116) 
F3c - A0487/A/250

>  <Quatassemblies short tag>  (116) 
A1 - monomer

>  <Crystalforms short tag>  (116) 
F3 - A71_2A_open_long_cell

>  <Centroid res>  (116) 
A71EV2A-x0911/A/133/A_v1

>  <Experiment code>  (116) 
A71EV2A-x1255

>  <Pose>  (116) 
A1255a

$$$$
A1292a
     RDKit          3D

 13 14  0  0  0  0  0  0  0  0999 V2000
    5.9780   10.7830   26.9290 O   0  0  0  0  0  0  0  0  0  0  0  0
    6.4670   11.7110   26.2880 C   0  0  0  0  0  0  0  0  0  0  0  0
    6.0270   12.9740   26.4190 N   0  0  0  0  0  0  0  0  0  0  0  0
    5.0290   13.3490   27.4210 C   0  0  0  0  0  0  0  0  0  0  0  0
    4.8460   14.7860   27.7410 C   0  0  0  0  0  0  0  0  0  0  0  0
    5.5000   13.8800   28.7240 C   0  0  0  0  0  0  0  0  0  0  0  0
    7.5740   11.4560   25.3030 C   0  0  0  0  0  0  0  0  0  0  0  0
    7.7770   10.1590   24.7870 C   0  0  0  0  0  0  0  0  0  0  0  0
    6.9760    9.1240   25.1380 O   0  0  0  0  0  0  0  0  0  0  0  0
    8.4060   12.4860   24.8560 C   0  0  0  0  0  0  0  0  0  0  0  0
    9.3870   12.2430   23.9100 C   0  0  0  0  0  0  0  0  0  0  0  0
    9.5830   10.9730   23.4170 C   0  0  0  0  0  0  0  0  0  0  0  0
    8.7930    9.9270   23.8580 C   0  0  0  0  0  0  0  0  0  0  0  0
  9  8  1  0
  8 13  2  0
 13 12  1  0
 12 11  2  0
 11 10  1  0
 10  7  2  0
  8  7  1  0
  7  2  1  0
  2  1  2  0
  3  2  1  0
  4  3  1  0
  4  6  1  0
  6  5  1  0
  5  4  1  0
M  END
>  <id>  (117) 
117

>  <inchikey>  (117) 
UWYBOEZQGCFECQ-UHFFFAOYSA-N

>  <alias>  (117) 
A1292a

>  <smiles>  (117) 
O=C(NC1CC1)c1ccccc1O

>  <path>  (117) 
/opt/xchem-fragalysis-2/maxwin/BulkDock/TARGETS/A71EV2A/aligned_files/A1292a/A1292a.pdb

>  <distance_score>  (117) 
None

>  <energy_score>  (117) 
None

>  <compound>  (117) 
UWYBOEZQGCFECQ-UHFFFAOYSA-N

>  <compound_id>  (117) 
92

>  <target>  (117) 
A71EV2A

>  <tags>  (117) 
['[Other] Fragment Screen', 'GOOD count', 'MEDIOCRE count', '[Other] S1 site', 'hits', '[Other] Active site fragment', '[Other] upload_1 2024-12-06', 'Main status', '[Other] New', '[Other] upload_1 2025-02-12', 'BAD count']

>  <inspirations>  (117) 
None

>  <subsites>  (117) 
None

>  <reference>  (117) 


>  <observation_longname>  (117) 
A71EV2A-x1292_A_151_v1

>  <ConformerSites alias>  (117) 
1b - A0911/A/147

>  <CanonSites alias>  (117) 
1 - Active Site

>  <CrystalformSites alias>  (117) 
F3c - A0487/A/250

>  <Quatassemblies alias>  (117) 
A1 - monomer

>  <Crystalforms alias>  (117) 
F3 - A71_2A_open_long_cell

>  <ConformerSites upload name>  (117) 
1b - A71EV2A-x0911/A/147

>  <CanonSites upload name>  (117) 
1 - A71EV2A-x0911/A/147/1

>  <CrystalformSites upload name>  (117) 
F3c - A71EV2A-x0487/A/250/1

>  <Quatassemblies upload name>  (117) 
A1 - monomer

>  <Crystalforms upload name>  (117) 
F3 - A71_2A_open_long_cell

>  <ConformerSites short tag>  (117) 
1b - A0911/A/147

>  <CanonSites short tag>  (117) 
1 - A0911/A/147/1

>  <CrystalformSites short tag>  (117) 
F3c - A0487/A/250

>  <Quatassemblies short tag>  (117) 
A1 - monomer

>  <Crystalforms short tag>  (117) 
F3 - A71_2A_open_long_cell

>  <Centroid res>  (117) 
A71EV2A-x0911/A/133/A_v1

>  <Experiment code>  (117) 
A71EV2A-x1292

>  <Pose>  (117) 
A1292a

$$$$
A1293a
     RDKit          3D

 10 11  0  0  0  0  0  0  0  0999 V2000
   18.5630    1.3390   21.5370 N   0  0  0  0  0  0  0  0  0  0  0  0
   18.2830    0.0570   21.2850 C   0  0  0  0  0  0  0  0  0  0  0  0
   18.6700   -0.9760   22.1390 N   0  0  0  0  0  0  0  0  0  0  0  0
   18.1160   -2.1170   21.5580 C   0  0  0  0  0  0  0  0  0  0  0  0
   17.4740   -1.8040   20.4320 N   0  0  0  0  0  0  0  0  0  0  0  0
   17.5830   -0.4170   20.2630 N   0  0  0  0  0  0  0  0  0  0  0  0
   19.3880   -1.0280   23.3210 C   0  0  0  0  0  0  0  0  0  0  0  0
   19.5360   -2.2090   23.9580 C   0  0  0  0  0  0  0  0  0  0  0  0
   18.9700   -3.3840   23.4120 C   0  0  0  0  0  0  0  0  0  0  0  0
   18.2780   -3.3500   22.2390 C   0  0  0  0  0  0  0  0  0  0  0  0
  2  1  1  0
  2  6  2  0
  6  5  1  0
  5  4  2  0
  4 10  1  0
 10  9  2  0
  9  8  1  0
  8  7  2  0
  7  3  1  0
  3  2  1  0
  4  3  1  0
M  END
>  <id>  (118) 
118

>  <inchikey>  (118) 
NCZQAIFOXJOCFI-UHFFFAOYSA-N

>  <alias>  (118) 
A1293a

>  <smiles>  (118) 
Nc1nnc2ccccn12

>  <path>  (118) 
/opt/xchem-fragalysis-2/maxwin/BulkDock/TARGETS/A71EV2A/aligned_files/A1293a/A1293a.pdb

>  <distance_score>  (118) 
None

>  <energy_score>  (118) 
None

>  <compound>  (118) 
NCZQAIFOXJOCFI-UHFFFAOYSA-N

>  <compound_id>  (118) 
93

>  <target>  (118) 
A71EV2A

>  <tags>  (118) 
['[Other] Fragment Screen', 'GOOD count', 'MEDIOCRE count', 'hits', '[Other] upload_1 2024-12-06', 'Main status', '[Other] New', '[Other] upload_1 2025-02-12', 'BAD count']

>  <inspirations>  (118) 
None

>  <subsites>  (118) 
None

>  <reference>  (118) 


>  <observation_longname>  (118) 
A71EV2A-x1293_A_151_v1

>  <ConformerSites alias>  (118) 
2a - A3977/A/202

>  <CanonSites alias>  (118) 
2 - A3977/A/202/1

>  <CrystalformSites alias>  (118) 
F3w - A1293/A/151

>  <Quatassemblies alias>  (118) 
A1 - monomer

>  <Crystalforms alias>  (118) 
F3 - A71_2A_open_long_cell

>  <ConformerSites upload name>  (118) 
2a - A71EV2A-x3977/A/202

>  <CanonSites upload name>  (118) 
2 - A71EV2A-x3977/A/202/1

>  <CrystalformSites upload name>  (118) 
F3w - A71EV2A-x1293/A/151/1

>  <Quatassemblies upload name>  (118) 
A1 - monomer

>  <Crystalforms upload name>  (118) 
F3 - A71_2A_open_long_cell

>  <ConformerSites short tag>  (118) 
2a - A3977/A/202

>  <CanonSites short tag>  (118) 
2 - A3977/A/202/1

>  <CrystalformSites short tag>  (118) 
F3w - A1293/A/151

>  <Quatassemblies short tag>  (118) 
A1 - monomer

>  <Crystalforms short tag>  (118) 
F3 - A71_2A_open_long_cell

>  <Centroid res>  (118) 
A71EV2A-x3977/A/113/A_v1

>  <Experiment code>  (118) 
A71EV2A-x1293

>  <Pose>  (118) 
A1293a

$$$$
A1346a
     RDKit          3D

 29 31  0  0  0  0  0  0  0  0999 V2000
    9.3100   16.7550   20.7580 Cl  0  0  0  0  0  0  0  0  0  0  0  0
    9.1450   15.1050   21.3920 C   0  0  0  0  0  0  0  0  0  0  0  0
    7.7420   14.6560   21.7470 C   0  0  0  0  0  0  0  0  0  0  0  0
    7.4680   13.4720   21.6300 O   0  0  0  0  0  0  0  0  0  0  0  0
    6.8720   15.5540   22.2050 N   0  0  0  0  0  0  0  0  0  0  0  0
    5.5930   15.1870   22.8010 C   0  0  0  0  0  0  0  0  0  0  0  0
    5.6870   15.2090   24.3340 C   0  0  1  0  0  0  0  0  0  0  0  0
    4.3310   15.2670   25.0140 C   0  0  0  0  0  0  0  0  0  0  0  0
    3.8530   14.2080   25.7420 C   0  0  0  0  0  0  0  0  0  0  0  0
    2.5880   14.2550   26.3760 C   0  0  0  0  0  0  0  0  0  0  0  0
    2.0920   13.1910   27.1710 C   0  0  0  0  0  0  0  0  0  0  0  0
    0.8770   13.2900   27.7880 C   0  0  0  0  0  0  0  0  0  0  0  0
    0.1010   14.4310   27.6430 C   0  0  0  0  0  0  0  0  0  0  0  0
    0.5390   15.4770   26.8830 C   0  0  0  0  0  0  0  0  0  0  0  0
    1.7990   15.4230   26.2350 C   0  0  0  0  0  0  0  0  0  0  0  0
    2.3200   16.4970   25.4790 C   0  0  0  0  0  0  0  0  0  0  0  0
    3.5540   16.4150   24.9030 C   0  0  0  0  0  0  0  0  0  0  0  0
    6.5380   14.1280   24.8280 N   0  0  0  0  0  0  0  0  0  0  0  0
    7.3580   14.2770   25.8750 C   0  0  0  0  0  0  0  0  0  0  0  0
    7.5860   15.3720   26.3820 O   0  0  0  0  0  0  0  0  0  0  0  0
    7.9830   13.0250   26.4510 C   0  0  0  0  0  0  0  0  0  0  0  0
    7.9820   11.7740   25.6120 C   0  0  0  0  0  0  0  0  0  0  0  0
    7.2080   10.6070   25.8160 C   0  0  0  0  0  0  0  0  0  0  0  0
    6.0700   10.4080   26.7630 C   0  0  0  0  0  0  0  0  0  0  0  0
    8.8440   11.4130   24.5800 C   0  0  0  0  0  0  0  0  0  0  0  0
    9.8480   12.2510   23.8680 C   0  0  0  0  0  0  0  0  0  0  0  0
    8.5980   10.1340   24.2750 N   0  0  0  0  0  0  0  0  0  0  0  0
    7.5840    9.6190   25.0210 N   0  0  0  0  0  0  0  0  0  0  0  0
    9.2900    9.2790   23.3180 C   0  0  0  0  0  0  0  0  0  0  0  0
 24 23  1  0
 23 28  2  0
 28 27  1  0
 29 27  1  0
 27 25  1  0
 26 25  1  0
 25 22  2  0
 23 22  1  0
 22 21  1  0
 21 19  1  0
 20 19  2  0
 19 18  1  0
 18  7  1  0
  7  6  1  6
  6  5  1  0
  5  3  1  0
  4  3  2  0
  3  2  1  0
  2  1  1  0
  8  7  1  0
  8 17  2  0
 17 16  1  0
 16 15  2  0
 15 14  1  0
 14 13  2  0
 13 12  1  0
 12 11  2  0
 11 10  1  0
 15 10  1  0
 10  9  2  0
  9  8  1  0
M  END
>  <id>  (119) 
119

>  <inchikey>  (119) 
BKBFLODZEQEWBQ-FQEVSTJZSA-N

>  <alias>  (119) 
A1346a

>  <smiles>  (119) 
Cc1nn(C)c(C)c1CC(=O)N[C@@H](CNC(=O)CCl)c1ccc2ccccc2c1

>  <path>  (119) 
/opt/xchem-fragalysis-2/maxwin/BulkDock/TARGETS/A71EV2A/aligned_files/A1346a/A1346a.pdb

>  <distance_score>  (119) 
None

>  <energy_score>  (119) 
None

>  <compound>  (119) 
BKBFLODZEQEWBQ-UHFFFAOYSA-N

>  <compound_id>  (119) 
94

>  <target>  (119) 
A71EV2A

>  <tags>  (119) 
['GOOD count', 'MEDIOCRE count', '[Other] S1 site', 'hits', '[Other] S2 site', '[Other] fff_i1_design', '[Other] P2 Wave 1', '[Other] upload_1 2025-02-12', 'Main status', 'BAD count']

>  <inspirations>  (119) 
None

>  <subsites>  (119) 
None

>  <reference>  (119) 


>  <observation_longname>  (119) 
A71EV2A-x1346_E_250_v1

>  <ConformerSites alias>  (119) 
1b - A0911/A/147

>  <CanonSites alias>  (119) 
1 - Active Site

>  <CrystalformSites alias>  (119) 
F3c - A0487/A/250

>  <Quatassemblies alias>  (119) 
A1 - monomer

>  <Crystalforms alias>  (119) 
F3 - A71_2A_open_long_cell

>  <ConformerSites upload name>  (119) 
1b - A71EV2A-x0911/A/147

>  <CanonSites upload name>  (119) 
1 - A71EV2A-x0911/A/147/1

>  <CrystalformSites upload name>  (119) 
F3c - A71EV2A-x0487/A/250/1

>  <Quatassemblies upload name>  (119) 
A1 - monomer

>  <Crystalforms upload name>  (119) 
F3 - A71_2A_open_long_cell

>  <ConformerSites short tag>  (119) 
1b - A0911/A/147

>  <CanonSites short tag>  (119) 
1 - A0911/A/147/1

>  <CrystalformSites short tag>  (119) 
F3c - A0487/A/250

>  <Quatassemblies short tag>  (119) 
A1 - monomer

>  <Crystalforms short tag>  (119) 
F3 - A71_2A_open_long_cell

>  <Centroid res>  (119) 
A71EV2A-x0911/A/133/A_v1

>  <Experiment code>  (119) 
A71EV2A-x1346

>  <Pose>  (119) 
A1346a

$$$$
A1445a
     RDKit          3D

 18 18  0  0  0  0  0  0  0  0999 V2000
    0.9940   11.4570   29.1410 F   0  0  0  0  0  0  0  0  0  0  0  0
    1.7660   10.5610   29.7610 C   0  0  0  0  0  0  0  0  0  0  0  0
    1.4840   10.6480   31.0600 F   0  0  0  0  0  0  0  0  0  0  0  0
    1.3480    9.3610   29.3610 F   0  0  0  0  0  0  0  0  0  0  0  0
    3.2300   10.7820   29.4780 C   0  0  2  0  0  0  0  0  0  0  0  0
    3.5830   12.2460   29.7450 C   0  0  0  0  0  0  0  0  0  0  0  0
    3.5430   10.3850   28.0280 C   0  0  0  0  0  0  0  0  0  0  0  0
    4.9460   10.7160   27.5420 C   0  0  0  0  0  0  0  0  0  0  0  0
    5.8150   11.1610   28.2890 O   0  0  0  0  0  0  0  0  0  0  0  0
    5.1510   10.5150   26.2080 N   0  0  0  0  0  0  0  0  0  0  0  0
    6.3460   10.7510   25.5290 C   0  0  0  0  0  0  0  0  0  0  0  0
    7.2030    9.9020   24.8840 C   0  0  0  0  0  0  0  0  0  0  0  0
    6.8180   12.0180   25.3340 N   0  0  0  0  0  0  0  0  0  0  0  0
    6.2670   13.2920   25.7800 C   0  0  0  0  0  0  0  0  0  0  0  0
    7.9510   12.0160   24.5820 N   0  0  0  0  0  0  0  0  0  0  0  0
    8.1810   10.7130   24.2900 C   0  0  0  0  0  0  0  0  0  0  0  0
    9.1840   10.3500   23.4860 O   0  0  0  0  0  0  0  0  0  0  0  0
    9.3570    8.9380   23.2060 C   0  0  0  0  0  0  0  0  0  0  0  0
 18 17  1  0
 17 16  1  0
 16 12  1  0
 12 11  2  0
 11 10  1  0
 10  8  1  0
  9  8  2  0
  8  7  1  0
  7  5  1  0
  5  6  1  6
  5  2  1  0
  3  2  1  0
  4  2  1  0
  2  1  1  0
 13 11  1  0
 14 13  1  0
 15 13  1  0
 16 15  2  0
M  END
>  <id>  (120) 
120

>  <inchikey>  (120) 
NZVJBVJDSSUPIL-ZCFIWIBFSA-N

>  <alias>  (120) 
A1445a

>  <smiles>  (120) 
COc1cc(NC(=O)C[C@@H](C)C(F)(F)F)n(C)n1

>  <path>  (120) 
/opt/xchem-fragalysis-2/maxwin/BulkDock/TARGETS/A71EV2A/aligned_files/A1445a/A1445a.pdb

>  <distance_score>  (120) 
None

>  <energy_score>  (120) 
None

>  <compound>  (120) 
NZVJBVJDSSUPIL-UHFFFAOYSA-N

>  <compound_id>  (120) 
95

>  <target>  (120) 
A71EV2A

>  <tags>  (120) 
['GOOD count', "[Other] S1' site", 'MEDIOCRE count', '[Other] S1 site', 'hits', '[Other] fff_i1_design', '[Other] upload_1 2024-12-06', 'Main status', 'BAD count']

>  <inspirations>  (120) 
None

>  <subsites>  (120) 
None

>  <reference>  (120) 


>  <observation_longname>  (120) 
A71EV2A-x1445_B_201_v1

>  <ConformerSites alias>  (120) 
1b - A0911/A/147

>  <CanonSites alias>  (120) 
1 - Active Site

>  <CrystalformSites alias>  (120) 
F3c - A0487/A/250

>  <Quatassemblies alias>  (120) 
A1 - monomer

>  <Crystalforms alias>  (120) 
F3 - A71_2A_open_long_cell

>  <ConformerSites upload name>  (120) 
1b - A71EV2A-x0911/A/147

>  <CanonSites upload name>  (120) 
1 - A71EV2A-x0911/A/147/1

>  <CrystalformSites upload name>  (120) 
F3c - A71EV2A-x0487/A/250/1

>  <Quatassemblies upload name>  (120) 
A1 - monomer

>  <Crystalforms upload name>  (120) 
F3 - A71_2A_open_long_cell

>  <ConformerSites short tag>  (120) 
1b - A0911/A/147

>  <CanonSites short tag>  (120) 
1 - A0911/A/147/1

>  <CrystalformSites short tag>  (120) 
F3c - A0487/A/250

>  <Quatassemblies short tag>  (120) 
A1 - monomer

>  <Crystalforms short tag>  (120) 
F3 - A71_2A_open_long_cell

>  <Centroid res>  (120) 
A71EV2A-x0911/A/133/A_v1

>  <Experiment code>  (120) 
A71EV2A-x1445

>  <Pose>  (120) 
A1445a

$$$$
A1445b
     RDKit          3D

 18 18  0  0  0  0  0  0  0  0999 V2000
    3.9510   13.0020   19.6020 F   0  0  0  0  0  0  0  0  0  0  0  0
    3.0520   12.2250   18.9920 C   0  0  0  0  0  0  0  0  0  0  0  0
    3.3940   10.9690   19.2660 F   0  0  0  0  0  0  0  0  0  0  0  0
    3.2350   12.3960   17.6780 F   0  0  0  0  0  0  0  0  0  0  0  0
    1.6360   12.5100   19.4240 C   0  0  2  0  0  0  0  0  0  0  0  0
    0.6590   12.0220   18.3580 C   0  0  0  0  0  0  0  0  0  0  0  0
    1.4130   14.0100   19.6230 C   0  0  0  0  0  0  0  0  0  0  0  0
    2.2420   14.6490   20.7150 C   0  0  0  0  0  0  0  0  0  0  0  0
    3.0640   15.5180   20.4610 O   0  0  0  0  0  0  0  0  0  0  0  0
    2.0220   14.1880   21.9890 N   0  0  0  0  0  0  0  0  0  0  0  0
    2.6590   14.7090   23.1160 C   0  0  0  0  0  0  0  0  0  0  0  0
    2.1690   15.2440   24.2750 C   0  0  0  0  0  0  0  0  0  0  0  0
    4.0060   14.8970   23.1290 N   0  0  0  0  0  0  0  0  0  0  0  0
    5.0070   14.4600   22.1650 C   0  0  0  0  0  0  0  0  0  0  0  0
    4.4020   15.5720   24.2520 N   0  0  0  0  0  0  0  0  0  0  0  0
    3.2610   15.7930   24.9690 C   0  0  0  0  0  0  0  0  0  0  0  0
    3.1690   16.4760   26.1250 O   0  0  0  0  0  0  0  0  0  0  0  0
    4.0760   16.1140   27.1940 C   0  0  0  0  0  0  0  0  0  0  0  0
 18 17  1  0
 17 16  1  0
 16 12  1  0
 12 11  2  0
 11 10  1  0
 10  8  1  0
  9  8  2  0
  8  7  1  0
  7  5  1  0
  5  6  1  6
  5  2  1  0
  3  2  1  0
  4  2  1  0
  2  1  1  0
 13 11  1  0
 14 13  1  0
 15 13  1  0
 16 15  2  0
M  END
>  <id>  (121) 
121

>  <inchikey>  (121) 
NZVJBVJDSSUPIL-ZCFIWIBFSA-N

>  <alias>  (121) 
A1445b

>  <smiles>  (121) 
COc1cc(NC(=O)C[C@@H](C)C(F)(F)F)n(C)n1

>  <path>  (121) 
/opt/xchem-fragalysis-2/maxwin/BulkDock/TARGETS/A71EV2A/aligned_files/A1445b/A1445b.pdb

>  <distance_score>  (121) 
None

>  <energy_score>  (121) 
None

>  <compound>  (121) 
NZVJBVJDSSUPIL-UHFFFAOYSA-N

>  <compound_id>  (121) 
95

>  <target>  (121) 
A71EV2A

>  <tags>  (121) 
['GOOD count', "[Other] S1' site", 'MEDIOCRE count', '[Other] S1 site', 'hits', '[Other] fff_i1_design', '[Other] P2 Wave 1', '[Other] upload_1 2024-12-06', 'Main status', 'BAD count']

>  <inspirations>  (121) 
None

>  <subsites>  (121) 
None

>  <reference>  (121) 


>  <observation_longname>  (121) 
A71EV2A-x1445_B_301_v1

>  <ConformerSites alias>  (121) 
1b - A0911/A/147

>  <CanonSites alias>  (121) 
1 - Active Site

>  <CrystalformSites alias>  (121) 
F3c - A0487/A/250

>  <Quatassemblies alias>  (121) 
A1 - monomer

>  <Crystalforms alias>  (121) 
F3 - A71_2A_open_long_cell

>  <ConformerSites upload name>  (121) 
1b - A71EV2A-x0911/A/147

>  <CanonSites upload name>  (121) 
1 - A71EV2A-x0911/A/147/1

>  <CrystalformSites upload name>  (121) 
F3c - A71EV2A-x0487/A/250/1

>  <Quatassemblies upload name>  (121) 
A1 - monomer

>  <Crystalforms upload name>  (121) 
F3 - A71_2A_open_long_cell

>  <ConformerSites short tag>  (121) 
1b - A0911/A/147

>  <CanonSites short tag>  (121) 
1 - A0911/A/147/1

>  <CrystalformSites short tag>  (121) 
F3c - A0487/A/250

>  <Quatassemblies short tag>  (121) 
A1 - monomer

>  <Crystalforms short tag>  (121) 
F3 - A71_2A_open_long_cell

>  <Centroid res>  (121) 
A71EV2A-x0911/A/133/A_v1

>  <Experiment code>  (121) 
A71EV2A-x1445

>  <Pose>  (121) 
A1445a

$$$$
A1775a
     RDKit          3D

 13 13  0  0  0  0  0  0  0  0999 V2000
   12.3120    9.0470   21.5260 O   0  0  0  0  0  0  0  0  0  0  0  0
   12.2440   10.1160   22.1090 C   0  0  0  0  0  0  0  0  0  0  0  0
   13.1670   11.2610   21.7910 C   0  0  0  0  0  0  0  0  0  0  0  0
   14.2250   10.9600   20.7460 C   0  0  0  0  0  0  0  0  0  0  0  0
   11.1720   10.3660   23.1130 C   0  0  0  0  0  0  0  0  0  0  0  0
   11.0310   11.5950   23.7540 C   0  0  0  0  0  0  0  0  0  0  0  0
    9.9440   11.8430   24.5730 C   0  0  0  0  0  0  0  0  0  0  0  0
   10.2210    9.3770   23.3480 C   0  0  0  0  0  0  0  0  0  0  0  0
    9.1410    9.6160   24.1780 C   0  0  0  0  0  0  0  0  0  0  0  0
    8.9920   10.8510   24.7760 C   0  0  0  0  0  0  0  0  0  0  0  0
    7.8390   10.9720   25.5210 O   0  0  0  0  0  0  0  0  0  0  0  0
    7.4740   12.2870   25.9910 C   0  0  0  0  0  0  0  0  0  0  0  0
    6.1310   12.1990   26.5390 C   0  0  0  0  0  0  0  0  0  0  0  0
 13 12  1  0
 12 11  1  0
 11 10  1  0
 10  7  2  0
  7  6  1  0
  6  5  2  0
  5  2  1  0
  2  1  2  0
  3  2  1  0
  4  3  1  0
  8  5  1  0
  9  8  2  0
 10  9  1  0
M  END
>  <id>  (122) 
122

>  <inchikey>  (122) 
XZJXCESWBMDSBO-UHFFFAOYSA-N

>  <alias>  (122) 
A1775a

>  <smiles>  (122) 
CCOc1ccc(C(=O)CC)cc1

>  <path>  (122) 
/opt/xchem-fragalysis-2/maxwin/BulkDock/TARGETS/A71EV2A/aligned_files/A1775a/A1775a.pdb

>  <distance_score>  (122) 
None

>  <energy_score>  (122) 
None

>  <compound>  (122) 
XZJXCESWBMDSBO-UHFFFAOYSA-N

>  <compound_id>  (122) 
96

>  <target>  (122) 
A71EV2A

>  <tags>  (122) 
['GOOD count', "[Other] S1' site", 'MEDIOCRE count', '[Other] S1 site', 'hits', '[Other] upload_1 2024-12-06', 'Main status', '[Other] Covalent', 'BAD count', '[Other] Bogyo covalents']

>  <inspirations>  (122) 
None

>  <subsites>  (122) 
None

>  <reference>  (122) 


>  <observation_longname>  (122) 
A71EV2A-x1775_E_201_v1

>  <ConformerSites alias>  (122) 
1b - A0911/A/147

>  <CanonSites alias>  (122) 
1 - Active Site

>  <CrystalformSites alias>  (122) 
F1a - A0375/A/201

>  <Quatassemblies alias>  (122) 
A1 - monomer

>  <Crystalforms alias>  (122) 
F1 - A71_2A_open

>  <ConformerSites upload name>  (122) 
1b - A71EV2A-x0911/A/147

>  <CanonSites upload name>  (122) 
1 - A71EV2A-x0911/A/147/1

>  <CrystalformSites upload name>  (122) 
F1a - A71EV2A-x0375/A/201/1

>  <Quatassemblies upload name>  (122) 
A1 - monomer

>  <Crystalforms upload name>  (122) 
F1 - A71_2A_open

>  <ConformerSites short tag>  (122) 
1b - A0911/A/147

>  <CanonSites short tag>  (122) 
1 - A0911/A/147/1

>  <CrystalformSites short tag>  (122) 
F1a - A0375/A/201

>  <Quatassemblies short tag>  (122) 
A1 - monomer

>  <Crystalforms short tag>  (122) 
F1 - A71_2A_open

>  <Centroid res>  (122) 
A71EV2A-x0911/A/133/A_v1

>  <Experiment code>  (122) 
A71EV2A-x1775

>  <Pose>  (122) 
A1775a

$$$$
A1776a
     RDKit          3D

 15 15  0  0  0  0  0  0  0  0999 V2000
    8.2200   12.8230   27.0020 O   0  0  0  0  0  0  0  0  0  0  0  0
    7.3830   12.0380   26.5790 C   0  0  0  0  0  0  0  0  0  0  0  0
    5.9680   12.0100   27.0990 C   0  0  0  0  0  0  0  0  0  0  0  0
    7.6560   11.1260   25.6300 N   0  0  0  0  0  0  0  0  0  0  0  0
    8.8640   10.9550   24.9070 C   0  0  0  0  0  0  0  0  0  0  0  0
    8.9280    9.7890   24.1730 C   0  0  0  0  0  0  0  0  0  0  0  0
   10.0350    9.5130   23.3980 C   0  0  0  0  0  0  0  0  0  0  0  0
    9.9380   11.8450   24.8710 C   0  0  0  0  0  0  0  0  0  0  0  0
   11.0420   11.5710   24.0820 C   0  0  0  0  0  0  0  0  0  0  0  0
   11.1010   10.4070   23.3290 C   0  0  0  0  0  0  0  0  0  0  0  0
   12.2170   10.1290   22.3760 C   0  0  0  0  0  0  0  0  0  0  0  0
   12.1130    9.2350   21.5500 O   0  0  0  0  0  0  0  0  0  0  0  0
   13.4610   10.9750   22.4000 C   0  0  2  0  0  0  0  0  0  0  0  0
   14.1990   11.0830   21.0250 C   0  0  0  0  0  0  0  0  0  0  0  0
   14.5070   10.2450   23.7650 S   0  0  0  0  0  0  0  0  0  0  0  0
 13 14  1  6
 13 11  1  0
 12 11  2  0
 11 10  1  0
 10  7  2  0
  7  6  1  0
  6  5  2  0
  5  4  1  0
  4  2  1  0
  3  2  1  0
  2  1  2  0
  8  5  1  0
  9  8  2  0
 10  9  1  0
 15 13  1  0
M  END
>  <id>  (123) 
123

>  <inchikey>  (123) 
FBLBPROAKYHBCY-ZETCQYMHSA-N

>  <alias>  (123) 
A1776a

>  <smiles>  (123) 
CC(=O)Nc1ccc(C(=O)[C@H](C)S)cc1

>  <path>  (123) 
/opt/xchem-fragalysis-2/maxwin/BulkDock/TARGETS/A71EV2A/aligned_files/A1776a/A1776a.pdb

>  <distance_score>  (123) 
None

>  <energy_score>  (123) 
None

>  <compound>  (123) 
FBLBPROAKYHBCY-UHFFFAOYSA-N

>  <compound_id>  (123) 
97

>  <target>  (123) 
A71EV2A

>  <tags>  (123) 
['GOOD count', "[Other] S1' site", 'MEDIOCRE count', '[Other] S1 site', 'hits', '[Other] upload_1 2024-12-06', 'Main status', '[Other] New', '[Other] Covalent', 'BAD count', '[Other] Bogyo covalents']

>  <inspirations>  (123) 
None

>  <subsites>  (123) 
None

>  <reference>  (123) 


>  <observation_longname>  (123) 
A71EV2A-x1776_A_201_v1

>  <ConformerSites alias>  (123) 
1b - A0911/A/147

>  <CanonSites alias>  (123) 
1 - Active Site

>  <CrystalformSites alias>  (123) 
F1a - A0375/A/201

>  <Quatassemblies alias>  (123) 
A1 - monomer

>  <Crystalforms alias>  (123) 
F1 - A71_2A_open

>  <ConformerSites upload name>  (123) 
1b - A71EV2A-x0911/A/147

>  <CanonSites upload name>  (123) 
1 - A71EV2A-x0911/A/147/1

>  <CrystalformSites upload name>  (123) 
F1a - A71EV2A-x0375/A/201/1

>  <Quatassemblies upload name>  (123) 
A1 - monomer

>  <Crystalforms upload name>  (123) 
F1 - A71_2A_open

>  <ConformerSites short tag>  (123) 
1b - A0911/A/147

>  <CanonSites short tag>  (123) 
1 - A0911/A/147/1

>  <CrystalformSites short tag>  (123) 
F1a - A0375/A/201

>  <Quatassemblies short tag>  (123) 
A1 - monomer

>  <Crystalforms short tag>  (123) 
F1 - A71_2A_open

>  <Centroid res>  (123) 
A71EV2A-x0911/A/133/A_v1

>  <Experiment code>  (123) 
A71EV2A-x1776

>  <Pose>  (123) 
A1776a

$$$$
A1778a
     RDKit          3D

 17 18  0  0  0  0  0  0  0  0999 V2000
    6.6850   10.5040   25.8550 O   0  0  0  0  0  0  0  0  0  0  0  0
    6.9430   11.6980   25.9680 C   0  0  0  0  0  0  0  0  0  0  0  0
    5.9540   12.6420   26.5900 C   0  0  0  0  0  0  0  0  0  0  0  0
    8.1210   12.2450   25.5040 N   0  0  0  0  0  0  0  0  0  0  0  0
    9.1200   11.5780   24.7420 C   0  0  0  0  0  0  0  0  0  0  0  0
    9.1210   10.2680   24.2860 C   0  0  0  0  0  0  0  0  0  0  0  0
   10.1880    9.8610   23.5180 C   0  0  0  0  0  0  0  0  0  0  0  0
    8.4490   13.6790   25.5650 C   0  0  0  0  0  0  0  0  0  0  0  0
    9.8860   13.7990   25.0680 C   0  0  0  0  0  0  0  0  0  0  0  0
   10.1500   12.4620   24.4250 C   0  0  0  0  0  0  0  0  0  0  0  0
   11.2340   12.0360   23.6710 C   0  0  0  0  0  0  0  0  0  0  0  0
   11.2460   10.7270   23.1850 C   0  0  0  0  0  0  0  0  0  0  0  0
   12.3480   10.2250   22.3010 C   0  0  0  0  0  0  0  0  0  0  0  0
   12.1710    9.2050   21.6400 O   0  0  0  0  0  0  0  0  0  0  0  0
   13.7040   10.8560   22.2240 C   0  0  2  0  0  0  0  0  0  0  0  0
   14.2760   10.9760   20.8460 C   0  0  0  0  0  0  0  0  0  0  0  0
   14.7500   10.2170   23.5380 S   0  0  0  0  0  0  0  0  0  0  0  0
 15 16  1  6
 15 13  1  0
 14 13  2  0
 13 12  1  0
 12  7  1  0
  7  6  2  0
  6  5  1  0
  5 10  2  0
 11 10  1  0
 12 11  2  0
 10  9  1  0
  9  8  1  0
  8  4  1  0
  5  4  1  0
  4  2  1  0
  3  2  1  0
  2  1  2  0
 17 15  1  0
M  END
>  <id>  (124) 
124

>  <inchikey>  (124) 
CFBWWTWBRVSRSJ-QMMMGPOBSA-N

>  <alias>  (124) 
A1778a

>  <smiles>  (124) 
CC(=O)N1CCc2cc(C(=O)[C@H](C)S)ccc21

>  <path>  (124) 
/opt/xchem-fragalysis-2/maxwin/BulkDock/TARGETS/A71EV2A/aligned_files/A1778a/A1778a.pdb

>  <distance_score>  (124) 
None

>  <energy_score>  (124) 
None

>  <compound>  (124) 
CFBWWTWBRVSRSJ-UHFFFAOYSA-N

>  <compound_id>  (124) 
98

>  <target>  (124) 
A71EV2A

>  <tags>  (124) 
['GOOD count', "[Other] S1' site", 'MEDIOCRE count', '[Other] S1 site', 'hits', '[Other] upload_1 2024-12-06', 'Main status', '[Other] New', '[Other] Covalent', 'BAD count', '[Other] Bogyo covalents']

>  <inspirations>  (124) 
None

>  <subsites>  (124) 
None

>  <reference>  (124) 


>  <observation_longname>  (124) 
A71EV2A-x1778_A_201_v1

>  <ConformerSites alias>  (124) 
1b - A0911/A/147

>  <CanonSites alias>  (124) 
1 - Active Site

>  <CrystalformSites alias>  (124) 
F1a - A0375/A/201

>  <Quatassemblies alias>  (124) 
A1 - monomer

>  <Crystalforms alias>  (124) 
F1 - A71_2A_open

>  <ConformerSites upload name>  (124) 
1b - A71EV2A-x0911/A/147

>  <CanonSites upload name>  (124) 
1 - A71EV2A-x0911/A/147/1

>  <CrystalformSites upload name>  (124) 
F1a - A71EV2A-x0375/A/201/1

>  <Quatassemblies upload name>  (124) 
A1 - monomer

>  <Crystalforms upload name>  (124) 
F1 - A71_2A_open

>  <ConformerSites short tag>  (124) 
1b - A0911/A/147

>  <CanonSites short tag>  (124) 
1 - A0911/A/147/1

>  <CrystalformSites short tag>  (124) 
F1a - A0375/A/201

>  <Quatassemblies short tag>  (124) 
A1 - monomer

>  <Crystalforms short tag>  (124) 
F1 - A71_2A_open

>  <Centroid res>  (124) 
A71EV2A-x0911/A/133/A_v1

>  <Experiment code>  (124) 
A71EV2A-x1778

>  <Pose>  (124) 
A1778a

$$$$
A1779a
     RDKit          3D

 15 16  0  0  0  0  0  0  0  0999 V2000
    9.0900   14.1120   26.9080 O   0  0  0  0  0  0  0  0  0  0  0  0
    9.0920   13.0550   26.2870 C   0  0  0  0  0  0  0  0  0  0  0  0
    7.8910   12.0900   26.2510 C   0  0  0  0  0  0  0  0  0  0  0  0
    8.1000   10.7680   25.7420 O   0  0  0  0  0  0  0  0  0  0  0  0
   10.1630   12.6740   25.5650 N   0  0  0  0  0  0  0  0  0  0  0  0
   10.2220   11.5060   24.8040 C   0  0  0  0  0  0  0  0  0  0  0  0
    9.1580   10.5980   24.8800 C   0  0  0  0  0  0  0  0  0  0  0  0
    9.1550    9.4510   24.1100 C   0  0  0  0  0  0  0  0  0  0  0  0
   10.2210    9.1940   23.2690 C   0  0  0  0  0  0  0  0  0  0  0  0
   11.2920   11.2440   23.9540 C   0  0  0  0  0  0  0  0  0  0  0  0
   11.2900   10.0850   23.1790 C   0  0  0  0  0  0  0  0  0  0  0  0
   12.3990    9.7740   22.2340 C   0  0  0  0  0  0  0  0  0  0  0  0
   12.3160    8.8270   21.4740 O   0  0  0  0  0  0  0  0  0  0  0  0
   13.6060   10.6490   22.2070 C   0  0  0  0  0  0  0  0  0  0  0  0
   14.3730   10.6030   20.8990 C   0  0  0  0  0  0  0  0  0  0  0  0
 15 14  1  0
 14 12  1  0
 13 12  2  0
 12 11  1  0
 11  9  1  0
  9  8  2  0
  8  7  1  0
  7  4  1  0
  4  3  1  0
  3  2  1  0
  2  1  2  0
  5  2  1  0
  6  5  1  0
  7  6  2  0
 10  6  1  0
 11 10  2  0
M  END
>  <id>  (125) 
125

>  <inchikey>  (125) 
SGXMEUBMGXFRJY-UHFFFAOYSA-N

>  <alias>  (125) 
A1779a

>  <smiles>  (125) 
CCC(=O)c1ccc2c(c1)NC(=O)CO2

>  <path>  (125) 
/opt/xchem-fragalysis-2/maxwin/BulkDock/TARGETS/A71EV2A/aligned_files/A1779a/A1779a.pdb

>  <distance_score>  (125) 
None

>  <energy_score>  (125) 
None

>  <compound>  (125) 
SGXMEUBMGXFRJY-UHFFFAOYSA-N

>  <compound_id>  (125) 
99

>  <target>  (125) 
A71EV2A

>  <tags>  (125) 
['GOOD count', "[Other] S1' site", 'MEDIOCRE count', '[Other] S1 site', 'hits', '[Other] upload_1 2024-12-06', 'Main status', '[Other] Covalent', 'BAD count', '[Other] Bogyo covalents']

>  <inspirations>  (125) 
None

>  <subsites>  (125) 
None

>  <reference>  (125) 


>  <observation_longname>  (125) 
A71EV2A-x1779_F_201_v1

>  <ConformerSites alias>  (125) 
1b - A0911/A/147

>  <CanonSites alias>  (125) 
1 - Active Site

>  <CrystalformSites alias>  (125) 
F1a - A0375/A/201

>  <Quatassemblies alias>  (125) 
A1 - monomer

>  <Crystalforms alias>  (125) 
F1 - A71_2A_open

>  <ConformerSites upload name>  (125) 
1b - A71EV2A-x0911/A/147

>  <CanonSites upload name>  (125) 
1 - A71EV2A-x0911/A/147/1

>  <CrystalformSites upload name>  (125) 
F1a - A71EV2A-x0375/A/201/1

>  <Quatassemblies upload name>  (125) 
A1 - monomer

>  <Crystalforms upload name>  (125) 
F1 - A71_2A_open

>  <ConformerSites short tag>  (125) 
1b - A0911/A/147

>  <CanonSites short tag>  (125) 
1 - A0911/A/147/1

>  <CrystalformSites short tag>  (125) 
F1a - A0375/A/201

>  <Quatassemblies short tag>  (125) 
A1 - monomer

>  <Crystalforms short tag>  (125) 
F1 - A71_2A_open

>  <Centroid res>  (125) 
A71EV2A-x0911/A/133/A_v1

>  <Experiment code>  (125) 
A71EV2A-x1779

>  <Pose>  (125) 
A1779a

$$$$
A2290a
     RDKit          3D

 14 15  0  0  0  0  0  0  0  0999 V2000
   11.0400   13.9860   24.3770 O   0  0  0  0  0  0  0  0  0  0  0  0
   10.8880   13.1340   23.5180 C   0  0  0  0  0  0  0  0  0  0  0  0
   11.5040   13.1710   22.3390 N   0  0  0  0  0  0  0  0  0  0  0  0
   12.5070   14.1800   22.0440 C   0  0  0  0  0  0  0  0  0  0  0  0
    9.9980   11.9410   23.7680 C   0  0  0  0  0  0  0  0  0  0  0  0
    8.8850   11.8100   24.6670 C   0  0  0  0  0  0  0  0  0  0  0  0
    8.4980   10.4670   24.5630 C   0  0  0  0  0  0  0  0  0  0  0  0
    9.3160    9.9040   23.6260 N   0  0  0  0  0  0  0  0  0  0  0  0
    9.2010    8.5970   22.9870 C   0  0  0  0  0  0  0  0  0  0  0  0
   10.2530   10.7900   23.1620 N   0  0  0  0  0  0  0  0  0  0  0  0
    8.2100   12.6390   25.5510 C   0  0  0  0  0  0  0  0  0  0  0  0
    7.1670   12.1270   26.3040 C   0  0  0  0  0  0  0  0  0  0  0  0
    6.8050   10.7920   26.2060 C   0  0  0  0  0  0  0  0  0  0  0  0
    7.4730    9.9350   25.3380 C   0  0  0  0  0  0  0  0  0  0  0  0
  4  3  1  0
  3  2  1  0
  2  1  2  0
  5  2  1  0
  5 10  2  0
 10  8  1  0
  9  8  1  0
  8  7  1  0
  7 14  2  0
 14 13  1  0
 13 12  2  0
 12 11  1  0
 11  6  2  0
  6  5  1  0
  7  6  1  0
M  END
>  <id>  (126) 
126

>  <inchikey>  (126) 
DXESIOGIYNKDQX-UHFFFAOYSA-N

>  <alias>  (126) 
A2290a

>  <smiles>  (126) 
CNC(=O)c1nn(C)c2ccccc12

>  <path>  (126) 
/opt/xchem-fragalysis-2/maxwin/BulkDock/TARGETS/A71EV2A/aligned_files/A2290a/A2290a.pdb

>  <distance_score>  (126) 
None

>  <energy_score>  (126) 
None

>  <compound>  (126) 
DXESIOGIYNKDQX-UHFFFAOYSA-N

>  <compound_id>  (126) 
100

>  <target>  (126) 
A71EV2A

>  <tags>  (126) 
['GOOD count', 'MEDIOCRE count', '[Other] S1 site', 'hits', '[Other] S2 site', '[Other] P3 compound design', '[Other] upload_1 2024-12-06', 'Main status', '[Series] Indazole series', 'BAD count']

>  <inspirations>  (126) 
None

>  <subsites>  (126) 
None

>  <reference>  (126) 


>  <observation_longname>  (126) 
A71EV2A-x2290_F_301_v1

>  <ConformerSites alias>  (126) 
1b - A0911/A/147

>  <CanonSites alias>  (126) 
1 - Active Site

>  <CrystalformSites alias>  (126) 
F1a - A0375/A/201

>  <Quatassemblies alias>  (126) 
A1 - monomer

>  <Crystalforms alias>  (126) 
F1 - A71_2A_open

>  <ConformerSites upload name>  (126) 
1b - A71EV2A-x0911/A/147

>  <CanonSites upload name>  (126) 
1 - A71EV2A-x0911/A/147/1

>  <CrystalformSites upload name>  (126) 
F1a - A71EV2A-x0375/A/201/1

>  <Quatassemblies upload name>  (126) 
A1 - monomer

>  <Crystalforms upload name>  (126) 
F1 - A71_2A_open

>  <ConformerSites short tag>  (126) 
1b - A0911/A/147

>  <CanonSites short tag>  (126) 
1 - A0911/A/147/1

>  <CrystalformSites short tag>  (126) 
F1a - A0375/A/201

>  <Quatassemblies short tag>  (126) 
A1 - monomer

>  <Crystalforms short tag>  (126) 
F1 - A71_2A_open

>  <Centroid res>  (126) 
A71EV2A-x0911/A/133/A_v1

>  <Experiment code>  (126) 
A71EV2A-x2290

>  <Pose>  (126) 
A2290a

$$$$
A2293a
     RDKit          3D

 24 27  0  0  0  0  0  0  0  0999 V2000
   10.3290   14.5820   23.3500 O   0  0  0  0  0  0  0  0  0  0  0  0
   10.7010   13.5310   22.8360 C   0  0  0  0  0  0  0  0  0  0  0  0
   10.0260   12.2380   23.1870 C   0  0  0  0  0  0  0  0  0  0  0  0
   10.3760   11.0940   22.6150 N   0  0  0  0  0  0  0  0  0  0  0  0
    9.0290   12.0210   24.1840 C   0  0  0  0  0  0  0  0  0  0  0  0
    8.7680   10.6440   24.1480 C   0  0  0  0  0  0  0  0  0  0  0  0
    7.8150   10.0500   24.9630 C   0  0  0  0  0  0  0  0  0  0  0  0
    7.1280   10.8830   25.8430 C   0  0  0  0  0  0  0  0  0  0  0  0
    7.3870   12.2410   25.8920 C   0  0  0  0  0  0  0  0  0  0  0  0
    8.3430   12.8280   25.0830 C   0  0  0  0  0  0  0  0  0  0  0  0
    9.6150   10.1230   23.2150 N   0  0  0  0  0  0  0  0  0  0  0  0
    9.8690    8.7200   22.9110 C   0  0  0  0  0  0  0  0  0  0  0  0
   11.7210   13.4440   21.9840 N   0  0  0  0  0  0  0  0  0  0  0  0
   12.4830   14.6440   21.5960 C   0  0  0  0  0  0  0  0  0  0  0  0
   12.5950   14.7620   20.0630 C   0  0  1  0  0  0  0  0  0  0  0  0
   11.2680   14.6390   19.4510 N   0  0  0  0  0  0  0  0  0  0  0  0
   10.3470   15.7240   19.7600 C   0  0  0  0  0  0  0  0  0  0  0  0
   10.9750   17.0910   19.6580 C   0  0  0  0  0  0  0  0  0  0  0  0
   12.3730   17.2490   19.6600 C   0  0  0  0  0  0  0  0  0  0  0  0
   13.2890   16.0450   19.6200 C   0  0  0  0  0  0  0  0  0  0  0  0
   10.1580   18.2150   19.5290 C   0  0  0  0  0  0  0  0  0  0  0  0
   10.7060   19.4810   19.4090 C   0  0  0  0  0  0  0  0  0  0  0  0
   12.0750   19.6410   19.4360 C   0  0  0  0  0  0  0  0  0  0  0  0
   12.9070   18.5360   19.5610 C   0  0  0  0  0  0  0  0  0  0  0  0
 12 11  1  0
 11  4  1  0
  4  3  2  0
  3  2  1  0
  2  1  2  0
 13  2  1  0
 14 13  1  0
 15 14  1  1
 15 20  1  0
 20 19  1  0
 19 24  2  0
 24 23  1  0
 23 22  2  0
 22 21  1  0
 21 18  2  0
 19 18  1  0
 18 17  1  0
 17 16  1  0
 16 15  1  0
  5  3  1  0
  5 10  2  0
 10  9  1  0
  9  8  2  0
  8  7  1  0
  7  6  2  0
  6  5  1  0
 11  6  1  0
M  END
>  <id>  (127) 
127

>  <inchikey>  (127) 
FCRASUWOKLJVQY-HNNXBMFYSA-N

>  <alias>  (127) 
A2293a

>  <smiles>  (127) 
Cn1nc(C(=O)NC[C@@H]2Cc3ccccc3CN2)c2ccccc21

>  <path>  (127) 
/opt/xchem-fragalysis-2/maxwin/BulkDock/TARGETS/A71EV2A/aligned_files/A2293a/A2293a.pdb

>  <distance_score>  (127) 
None

>  <energy_score>  (127) 
None

>  <compound>  (127) 
FCRASUWOKLJVQY-UHFFFAOYSA-N

>  <compound_id>  (127) 
101

>  <target>  (127) 
A71EV2A

>  <tags>  (127) 
['GOOD count', 'MEDIOCRE count', '[Other] S1 site', 'hits', '[Other] Sun-roof open', '[Other] S2 site', '[Other] P3 compound design', '[Other] upload_1 2024-12-06', 'Main status', '[Series] Indazole series', 'BAD count']

>  <inspirations>  (127) 
None

>  <subsites>  (127) 
None

>  <reference>  (127) 


>  <observation_longname>  (127) 
A71EV2A-x2293_E_201_v1

>  <ConformerSites alias>  (127) 
1b - A0911/A/147

>  <CanonSites alias>  (127) 
1 - Active Site

>  <CrystalformSites alias>  (127) 
F1a - A0375/A/201

>  <Quatassemblies alias>  (127) 
A1 - monomer

>  <Crystalforms alias>  (127) 
F1 - A71_2A_open

>  <ConformerSites upload name>  (127) 
1b - A71EV2A-x0911/A/147

>  <CanonSites upload name>  (127) 
1 - A71EV2A-x0911/A/147/1

>  <CrystalformSites upload name>  (127) 
F1a - A71EV2A-x0375/A/201/1

>  <Quatassemblies upload name>  (127) 
A1 - monomer

>  <Crystalforms upload name>  (127) 
F1 - A71_2A_open

>  <ConformerSites short tag>  (127) 
1b - A0911/A/147

>  <CanonSites short tag>  (127) 
1 - A0911/A/147/1

>  <CrystalformSites short tag>  (127) 
F1a - A0375/A/201

>  <Quatassemblies short tag>  (127) 
A1 - monomer

>  <Crystalforms short tag>  (127) 
F1 - A71_2A_open

>  <Centroid res>  (127) 
A71EV2A-x0911/A/133/A_v1

>  <Experiment code>  (127) 
A71EV2A-x2293

>  <Pose>  (127) 
A2293a

$$$$
A2304a
     RDKit          3D

 18 20  0  0  0  0  0  0  0  0999 V2000
   10.7260   14.6060   23.7040 O   0  0  0  0  0  0  0  0  0  0  0  0
   10.7390   13.5900   22.9910 C   0  0  0  0  0  0  0  0  0  0  0  0
   11.3590   13.5330   21.7810 N   0  0  0  0  0  0  0  0  0  0  0  0
   11.9640   14.6240   21.1270 C   0  0  0  0  0  0  0  0  0  0  0  0
   12.3910   15.8430   21.6160 C   0  0  0  0  0  0  0  0  0  0  0  0
   12.8810   16.5180   20.5690 N   0  0  0  0  0  0  0  0  0  0  0  0
   12.7940   15.8050   19.4310 N   0  0  0  0  0  0  0  0  0  0  0  0
   12.2220   14.6470   19.7550 C   0  0  0  0  0  0  0  0  0  0  0  0
   10.0800   12.3090   23.4390 C   0  0  0  0  0  0  0  0  0  0  0  0
   10.3770   11.1480   22.8490 N   0  0  0  0  0  0  0  0  0  0  0  0
    9.0450   12.1360   24.4120 C   0  0  0  0  0  0  0  0  0  0  0  0
    8.7330   10.7670   24.3600 C   0  0  0  0  0  0  0  0  0  0  0  0
    9.5440   10.2150   23.4140 N   0  0  0  0  0  0  0  0  0  0  0  0
    9.6750    8.8120   23.0560 C   0  0  0  0  0  0  0  0  0  0  0  0
    7.7550   10.2050   25.1750 C   0  0  0  0  0  0  0  0  0  0  0  0
    7.0760   11.0490   26.0510 C   0  0  0  0  0  0  0  0  0  0  0  0
    7.3700   12.4030   26.1070 C   0  0  0  0  0  0  0  0  0  0  0  0
    8.3460   12.9610   25.2960 C   0  0  0  0  0  0  0  0  0  0  0  0
 14 13  1  0
 13 10  1  0
 10  9  2  0
  9  2  1  0
  2  1  2  0
  3  2  1  0
  4  3  1  0
  4  8  1  0
  8  7  2  0
  7  6  1  0
  6  5  1  0
  5  4  2  0
 11  9  1  0
 11 18  2  0
 18 17  1  0
 17 16  2  0
 16 15  1  0
 15 12  2  0
 12 11  1  0
 13 12  1  0
M  END
>  <id>  (128) 
128

>  <inchikey>  (128) 
JXKYXHWVMLLNCD-UHFFFAOYSA-N

>  <alias>  (128) 
A2304a

>  <smiles>  (128) 
Cn1nc(C(=O)Nc2cn[nH]c2)c2ccccc21

>  <path>  (128) 
/opt/xchem-fragalysis-2/maxwin/BulkDock/TARGETS/A71EV2A/aligned_files/A2304a/A2304a.pdb

>  <distance_score>  (128) 
None

>  <energy_score>  (128) 
None

>  <compound>  (128) 
JXKYXHWVMLLNCD-UHFFFAOYSA-N

>  <compound_id>  (128) 
102

>  <target>  (128) 
A71EV2A

>  <tags>  (128) 
['GOOD count', 'MEDIOCRE count', '[Other] S1 site', 'hits', '[Other] Sun-roof open', '[Other] S2 site', '[Other] P3 compound design', '[Other] upload_1 2024-12-06', 'Main status', '[Series] Indazole series', 'BAD count']

>  <inspirations>  (128) 
None

>  <subsites>  (128) 
None

>  <reference>  (128) 


>  <observation_longname>  (128) 
A71EV2A-x2304_E_246_v1

>  <ConformerSites alias>  (128) 
1b - A0911/A/147

>  <CanonSites alias>  (128) 
1 - Active Site

>  <CrystalformSites alias>  (128) 
F1a - A0375/A/201

>  <Quatassemblies alias>  (128) 
A1 - monomer

>  <Crystalforms alias>  (128) 
F1 - A71_2A_open

>  <ConformerSites upload name>  (128) 
1b - A71EV2A-x0911/A/147

>  <CanonSites upload name>  (128) 
1 - A71EV2A-x0911/A/147/1

>  <CrystalformSites upload name>  (128) 
F1a - A71EV2A-x0375/A/201/1

>  <Quatassemblies upload name>  (128) 
A1 - monomer

>  <Crystalforms upload name>  (128) 
F1 - A71_2A_open

>  <ConformerSites short tag>  (128) 
1b - A0911/A/147

>  <CanonSites short tag>  (128) 
1 - A0911/A/147/1

>  <CrystalformSites short tag>  (128) 
F1a - A0375/A/201

>  <Quatassemblies short tag>  (128) 
A1 - monomer

>  <Crystalforms short tag>  (128) 
F1 - A71_2A_open

>  <Centroid res>  (128) 
A71EV2A-x0911/A/133/A_v1

>  <Experiment code>  (128) 
A71EV2A-x2304

>  <Pose>  (128) 
A2304a

$$$$
A2339a
     RDKit          3D

 17 19  0  0  0  0  0  0  0  0999 V2000
    5.8280   12.4150   27.1850 F   0  0  0  0  0  0  0  0  0  0  0  0
    6.5740   11.7590   26.2550 C   0  0  0  0  0  0  0  0  0  0  0  0
    7.4470   12.5030   25.4950 C   0  0  0  0  0  0  0  0  0  0  0  0
    6.4300   10.3880   26.1460 C   0  0  0  0  0  0  0  0  0  0  0  0
    7.2200    9.7060   25.2300 C   0  0  0  0  0  0  0  0  0  0  0  0
    8.1300   10.4280   24.4680 C   0  0  0  0  0  0  0  0  0  0  0  0
    9.0540   10.0360   23.5430 N   0  0  0  0  0  0  0  0  0  0  0  0
    9.3790    8.6870   23.1090 C   0  0  0  0  0  0  0  0  0  0  0  0
    8.2470   11.8170   24.5830 C   0  0  0  0  0  0  0  0  0  0  0  0
    9.2770   12.1800   23.6540 C   0  0  0  0  0  0  0  0  0  0  0  0
    9.7630   11.1030   23.0400 N   0  0  0  0  0  0  0  0  0  0  0  0
    9.7990   13.5490   23.3260 C   0  0  0  0  0  0  0  0  0  0  0  0
    9.5650   14.5000   24.0640 O   0  0  0  0  0  0  0  0  0  0  0  0
   10.5110   13.6480   22.1960 N   0  0  0  0  0  0  0  0  0  0  0  0
   11.0950   14.9050   21.7290 C   0  0  0  0  0  0  0  0  0  0  0  0
   12.1060   14.8480   20.6600 C   0  0  0  0  0  0  0  0  0  0  0  0
   10.7550   15.3730   20.3720 C   0  0  0  0  0  0  0  0  0  0  0  0
  8  7  1  0
  7 11  1  0
 11 10  2  0
 12 10  1  0
 13 12  2  0
 14 12  1  0
 15 14  1  0
 15 17  1  0
 17 16  1  0
 16 15  1  0
 10  9  1  0
  9  3  1  0
  3  2  2  0
  2  1  1  0
  4  2  1  0
  5  4  2  0
  6  5  1  0
  9  6  2  0
  7  6  1  0
M  END
>  <id>  (129) 
129

>  <inchikey>  (129) 
LJCPETRSDJEEFS-UHFFFAOYSA-N

>  <alias>  (129) 
A2339a

>  <smiles>  (129) 
Cn1nc(C(=O)NC2CC2)c2cc(F)ccc21

>  <path>  (129) 
/opt/xchem-fragalysis-2/maxwin/BulkDock/TARGETS/A71EV2A/aligned_files/A2339a/A2339a.pdb

>  <distance_score>  (129) 
None

>  <energy_score>  (129) 
None

>  <compound>  (129) 
LJCPETRSDJEEFS-UHFFFAOYSA-N

>  <compound_id>  (129) 
103

>  <target>  (129) 
A71EV2A

>  <tags>  (129) 
['GOOD count', 'MEDIOCRE count', '[Other] S1 site', 'hits', '[Other] S2 site', '[Other] P3 compound design', '[Other] upload_1 2024-12-06', 'Main status', '[Series] Indazole series', 'BAD count']

>  <inspirations>  (129) 
None

>  <subsites>  (129) 
None

>  <reference>  (129) 


>  <observation_longname>  (129) 
A71EV2A-x2339_E_246_v1

>  <ConformerSites alias>  (129) 
1b - A0911/A/147

>  <CanonSites alias>  (129) 
1 - Active Site

>  <CrystalformSites alias>  (129) 
F1a - A0375/A/201

>  <Quatassemblies alias>  (129) 
A1 - monomer

>  <Crystalforms alias>  (129) 
F1 - A71_2A_open

>  <ConformerSites upload name>  (129) 
1b - A71EV2A-x0911/A/147

>  <CanonSites upload name>  (129) 
1 - A71EV2A-x0911/A/147/1

>  <CrystalformSites upload name>  (129) 
F1a - A71EV2A-x0375/A/201/1

>  <Quatassemblies upload name>  (129) 
A1 - monomer

>  <Crystalforms upload name>  (129) 
F1 - A71_2A_open

>  <ConformerSites short tag>  (129) 
1b - A0911/A/147

>  <CanonSites short tag>  (129) 
1 - A0911/A/147/1

>  <CrystalformSites short tag>  (129) 
F1a - A0375/A/201

>  <Quatassemblies short tag>  (129) 
A1 - monomer

>  <Crystalforms short tag>  (129) 
F1 - A71_2A_open

>  <Centroid res>  (129) 
A71EV2A-x0911/A/133/A_v1

>  <Experiment code>  (129) 
A71EV2A-x2339

>  <Pose>  (129) 
A2339a

$$$$
A2351a
     RDKit          3D

 14 15  0  0  0  0  0  0  0  0999 V2000
    5.6080   13.6730   25.9990 F   0  0  0  0  0  0  0  0  0  0  0  0
    6.3790   12.8180   25.2790 C   0  0  0  0  0  0  0  0  0  0  0  0
    7.3760   13.3540   24.4950 C   0  0  0  0  0  0  0  0  0  0  0  0
    6.1330   11.4690   25.3960 C   0  0  0  0  0  0  0  0  0  0  0  0
    6.9410   10.5860   24.7010 C   0  0  0  0  0  0  0  0  0  0  0  0
    7.9580   11.0910   23.9050 C   0  0  0  0  0  0  0  0  0  0  0  0
    8.8830   10.4710   23.1190 N   0  0  0  0  0  0  0  0  0  0  0  0
    9.0230    9.0490   22.8550 C   0  0  0  0  0  0  0  0  0  0  0  0
    8.1850   12.4650   23.7920 C   0  0  0  0  0  0  0  0  0  0  0  0
    9.3040   12.5790   22.8960 C   0  0  0  0  0  0  0  0  0  0  0  0
    9.7150   11.3750   22.4950 N   0  0  0  0  0  0  0  0  0  0  0  0
    9.9790   13.8300   22.4630 C   0  0  0  0  0  0  0  0  0  0  0  0
    9.5400   14.9290   22.8320 O   0  0  0  0  0  0  0  0  0  0  0  0
   11.0660   13.7110   21.7080 N   0  0  0  0  0  0  0  0  0  0  0  0
  8  7  1  0
  7 11  1  0
 11 10  2  0
 12 10  1  0
 14 12  1  0
 13 12  2  0
 10  9  1  0
  9  3  1  0
  3  2  2  0
  2  1  1  0
  4  2  1  0
  5  4  2  0
  6  5  1  0
  9  6  2  0
  7  6  1  0
M  END
>  <id>  (130) 
130

>  <inchikey>  (130) 
GDGNASXSZYDGJM-UHFFFAOYSA-N

>  <alias>  (130) 
A2351a

>  <smiles>  (130) 
Cn1nc(C(N)=O)c2cc(F)ccc21

>  <path>  (130) 
/opt/xchem-fragalysis-2/maxwin/BulkDock/TARGETS/A71EV2A/aligned_files/A2351a/A2351a.pdb

>  <distance_score>  (130) 
None

>  <energy_score>  (130) 
None

>  <compound>  (130) 
GDGNASXSZYDGJM-UHFFFAOYSA-N

>  <compound_id>  (130) 
104

>  <target>  (130) 
A71EV2A

>  <tags>  (130) 
['GOOD count', 'MEDIOCRE count', '[Other] S1 site', 'hits', '[Other] S2 site', '[Other] P3 compound design', '[Other] upload_1 2024-12-06', 'Main status', '[Series] Indazole series', 'BAD count']

>  <inspirations>  (130) 
None

>  <subsites>  (130) 
None

>  <reference>  (130) 


>  <observation_longname>  (130) 
A71EV2A-x2351_E_246_v1

>  <ConformerSites alias>  (130) 
1b - A0911/A/147

>  <CanonSites alias>  (130) 
1 - Active Site

>  <CrystalformSites alias>  (130) 
F1a - A0375/A/201

>  <Quatassemblies alias>  (130) 
A1 - monomer

>  <Crystalforms alias>  (130) 
F1 - A71_2A_open

>  <ConformerSites upload name>  (130) 
1b - A71EV2A-x0911/A/147

>  <CanonSites upload name>  (130) 
1 - A71EV2A-x0911/A/147/1

>  <CrystalformSites upload name>  (130) 
F1a - A71EV2A-x0375/A/201/1

>  <Quatassemblies upload name>  (130) 
A1 - monomer

>  <Crystalforms upload name>  (130) 
F1 - A71_2A_open

>  <ConformerSites short tag>  (130) 
1b - A0911/A/147

>  <CanonSites short tag>  (130) 
1 - A0911/A/147/1

>  <CrystalformSites short tag>  (130) 
F1a - A0375/A/201

>  <Quatassemblies short tag>  (130) 
A1 - monomer

>  <Crystalforms short tag>  (130) 
F1 - A71_2A_open

>  <Centroid res>  (130) 
A71EV2A-x0911/A/133/A_v1

>  <Experiment code>  (130) 
A71EV2A-x2351

>  <Pose>  (130) 
A2351a

$$$$
A2448a
     RDKit          3D

 12 12  0  0  0  0  0  0  0  0999 V2000
    7.1950   14.2250    5.8790 O   0  0  0  0  0  0  0  0  0  0  0  0
    7.0220   13.2910    4.8120 S   0  0  0  0  0  0  0  0  0  0  0  0
    7.3110   11.9060    5.0100 O   0  0  0  0  0  0  0  0  0  0  0  0
    7.8350   13.8200    3.5010 N   0  0  0  0  0  0  0  0  0  0  0  0
    8.5000   12.8220    2.6550 C   0  0  0  0  0  0  0  0  0  0  0  0
    8.4750   15.1400    3.5730 C   0  0  0  0  0  0  0  0  0  0  0  0
    5.3840   13.4510    4.1760 C   0  0  0  0  0  0  0  0  0  0  0  0
    4.6370   12.3340    3.8470 C   0  0  0  0  0  0  0  0  0  0  0  0
    3.4050   12.4080    3.3270 N   0  0  0  0  0  0  0  0  0  0  0  0
    2.9020   13.6290    3.1060 C   0  0  0  0  0  0  0  0  0  0  0  0
    3.5830   14.7970    3.3960 C   0  0  0  0  0  0  0  0  0  0  0  0
    4.8480   14.7070    3.9510 C   0  0  0  0  0  0  0  0  0  0  0  0
  6  4  1  0
  5  4  1  0
  4  2  1  0
  3  2  2  0
  2  1  2  0
  7  2  1  0
  7 12  2  0
 12 11  1  0
 11 10  2  0
 10  9  1  0
  9  8  2  0
  8  7  1  0
M  END
>  <id>  (131) 
131

>  <inchikey>  (131) 
HGZULNNLLFYOFI-UHFFFAOYSA-N

>  <alias>  (131) 
A2448a

>  <smiles>  (131) 
CN(C)S(=O)(=O)c1cccnc1

>  <path>  (131) 
/opt/xchem-fragalysis-2/maxwin/BulkDock/TARGETS/A71EV2A/aligned_files/A2448a/A2448a.pdb

>  <distance_score>  (131) 
None

>  <energy_score>  (131) 
None

>  <compound>  (131) 
HGZULNNLLFYOFI-UHFFFAOYSA-N

>  <compound_id>  (131) 
57

>  <target>  (131) 
A71EV2A

>  <tags>  (131) 
['GOOD count', 'MEDIOCRE count', 'hits', '[Other] upload_1 2025-02-12', 'Main status', 'BAD count']

>  <inspirations>  (131) 
None

>  <subsites>  (131) 
None

>  <reference>  (131) 


>  <observation_longname>  (131) 
A71EV2A-x2448_E_246_v1

>  <ConformerSites alias>  (131) 
3a - A0541/A/147

>  <CanonSites alias>  (131) 
3 - A0541/A/147/1

>  <CrystalformSites alias>  (131) 
F1x - A0541/A/147

>  <Quatassemblies alias>  (131) 
A1 - monomer

>  <Crystalforms alias>  (131) 
F1 - A71_2A_open

>  <ConformerSites upload name>  (131) 
3a - A71EV2A-x0541/A/147

>  <CanonSites upload name>  (131) 
3 - A71EV2A-x0541/A/147/1

>  <CrystalformSites upload name>  (131) 
F1x - A71EV2A-x0541/A/147/1

>  <Quatassemblies upload name>  (131) 
A1 - monomer

>  <Crystalforms upload name>  (131) 
F1 - A71_2A_open

>  <ConformerSites short tag>  (131) 
3a - A0541/A/147

>  <CanonSites short tag>  (131) 
3 - A0541/A/147/1

>  <CrystalformSites short tag>  (131) 
F1x - A0541/A/147

>  <Quatassemblies short tag>  (131) 
A1 - monomer

>  <Crystalforms short tag>  (131) 
F1 - A71_2A_open

>  <Centroid res>  (131) 
A71EV2A-x0541/A/97/A_v1

>  <Experiment code>  (131) 
A71EV2A-x2448

>  <Pose>  (131) 
A2448a

$$$$
A2454a
     RDKit          3D

 14 14  0  0  0  0  0  0  0  0999 V2000
    5.5060   13.7100   26.6430 O   0  0  0  0  0  0  0  0  0  0  0  0
    6.3000   13.3380   25.7680 C   0  0  0  0  0  0  0  0  0  0  0  0
    6.6130   14.0950   24.7150 N   0  0  0  0  0  0  0  0  0  0  0  0
    6.8710   12.0950   25.8040 N   0  0  0  0  0  0  0  0  0  0  0  0
    7.7870   11.4920   24.9080 C   0  0  0  0  0  0  0  0  0  0  0  0
    7.5990   10.1530   24.5900 C   0  0  0  0  0  0  0  0  0  0  0  0
    8.4700    9.5230   23.7170 C   0  0  0  0  0  0  0  0  0  0  0  0
    9.5290   10.2150   23.1530 C   0  0  0  0  0  0  0  0  0  0  0  0
    8.8570   12.1890   24.3530 C   0  0  0  0  0  0  0  0  0  0  0  0
    9.7230   11.5540   23.4670 C   0  0  0  0  0  0  0  0  0  0  0  0
   10.7920   12.2820   22.8950 N   0  0  0  0  0  0  0  0  0  0  0  0
   11.5160   13.2770   23.4650 C   0  0  0  0  0  0  0  0  0  0  0  0
   11.5180   13.4890   24.6750 O   0  0  0  0  0  0  0  0  0  0  0  0
   12.3030   14.1220   22.5090 C   0  0  0  0  0  0  0  0  0  0  0  0
 14 12  1  0
 13 12  2  0
 12 11  1  0
 11 10  1  0
 10  8  1  0
  8  7  2  0
  7  6  1  0
  6  5  2  0
  5  4  1  0
  4  2  1  0
  3  2  1  0
  2  1  2  0
  9  5  1  0
 10  9  2  0
M  END
>  <id>  (132) 
132

>  <inchikey>  (132) 
GVNXANNAMKHSRF-UHFFFAOYSA-N

>  <alias>  (132) 
A2454a

>  <smiles>  (132) 
CC(=O)Nc1cccc(NC(N)=O)c1

>  <path>  (132) 
/opt/xchem-fragalysis-2/maxwin/BulkDock/TARGETS/A71EV2A/aligned_files/A2454a/A2454a.pdb

>  <distance_score>  (132) 
None

>  <energy_score>  (132) 
None

>  <compound>  (132) 
GVNXANNAMKHSRF-UHFFFAOYSA-N

>  <compound_id>  (132) 
72

>  <target>  (132) 
A71EV2A

>  <tags>  (132) 
['GOOD count', 'MEDIOCRE count', '[Other] S1 site', 'hits', '[Other] P3 compound design', '[Other] upload_2 2024-12-12', 'Main status', 'BAD count']

>  <inspirations>  (132) 
None

>  <subsites>  (132) 
None

>  <reference>  (132) 


>  <observation_longname>  (132) 
A71EV2A-x2454_E_246_v1

>  <ConformerSites alias>  (132) 
1b - A0911/A/147

>  <CanonSites alias>  (132) 
1 - Active Site

>  <CrystalformSites alias>  (132) 
F1a - A0375/A/201

>  <Quatassemblies alias>  (132) 
A1 - monomer

>  <Crystalforms alias>  (132) 
F1 - A71_2A_open

>  <ConformerSites upload name>  (132) 
1b - A71EV2A-x0911/A/147

>  <CanonSites upload name>  (132) 
1 - A71EV2A-x0911/A/147/1

>  <CrystalformSites upload name>  (132) 
F1a - A71EV2A-x0375/A/201/1

>  <Quatassemblies upload name>  (132) 
A1 - monomer

>  <Crystalforms upload name>  (132) 
F1 - A71_2A_open

>  <ConformerSites short tag>  (132) 
1b - A0911/A/147

>  <CanonSites short tag>  (132) 
1 - A0911/A/147/1

>  <CrystalformSites short tag>  (132) 
F1a - A0375/A/201

>  <Quatassemblies short tag>  (132) 
A1 - monomer

>  <Crystalforms short tag>  (132) 
F1 - A71_2A_open

>  <Centroid res>  (132) 
A71EV2A-x0911/A/133/A_v1

>  <Experiment code>  (132) 
A71EV2A-x2454

>  <Pose>  (132) 
A2454a

$$$$
A2458a
     RDKit          3D

 12 12  0  0  0  0  0  0  0  0999 V2000
    7.9620   11.3300    2.6050 Cl  0  0  0  0  0  0  0  0  0  0  0  0
    8.4200   13.0000    2.5310 C   0  0  0  0  0  0  0  0  0  0  0  0
    9.2260   13.4120    1.4810 C   0  0  0  0  0  0  0  0  0  0  0  0
    9.6410   14.7290    1.4150 C   0  0  0  0  0  0  0  0  0  0  0  0
    9.2500   15.6320    2.3740 C   0  0  0  0  0  0  0  0  0  0  0  0
    8.4380   15.2340    3.4230 C   0  0  0  0  0  0  0  0  0  0  0  0
    8.0190   13.9130    3.5140 C   0  0  0  0  0  0  0  0  0  0  0  0
    7.0040   13.4620    4.9000 S   0  0  0  0  0  0  0  0  0  0  0  0
    7.3610   12.1320    5.2860 O   0  0  0  0  0  0  0  0  0  0  0  0
    7.0550   14.5150    5.8660 O   0  0  0  0  0  0  0  0  0  0  0  0
    5.4790   13.3830    4.3620 N   0  0  0  0  0  0  0  0  0  0  0  0
    4.7200   14.6110    4.1560 C   0  0  0  0  0  0  0  0  0  0  0  0
 12 11  1  0
 11  8  1  0
  9  8  2  0
 10  8  2  0
  8  7  1  0
  7  6  2  0
  6  5  1  0
  5  4  2  0
  4  3  1  0
  3  2  2  0
  7  2  1  0
  2  1  1  0
M  END
>  <id>  (133) 
133

>  <inchikey>  (133) 
OSFAUZAAZLLTSW-UHFFFAOYSA-N

>  <alias>  (133) 
A2458a

>  <smiles>  (133) 
CNS(=O)(=O)c1ccccc1Cl

>  <path>  (133) 
/opt/xchem-fragalysis-2/maxwin/BulkDock/TARGETS/A71EV2A/aligned_files/A2458a/A2458a.pdb

>  <distance_score>  (133) 
None

>  <energy_score>  (133) 
None

>  <compound>  (133) 
OSFAUZAAZLLTSW-UHFFFAOYSA-N

>  <compound_id>  (133) 
43

>  <target>  (133) 
A71EV2A

>  <tags>  (133) 
['GOOD count', 'MEDIOCRE count', 'hits', '[Other] upload_1 2025-02-12', 'Main status', 'BAD count']

>  <inspirations>  (133) 
None

>  <subsites>  (133) 
None

>  <reference>  (133) 


>  <observation_longname>  (133) 
A71EV2A-x2458_E_246_v1

>  <ConformerSites alias>  (133) 
3a - A0541/A/147

>  <CanonSites alias>  (133) 
3 - A0541/A/147/1

>  <CrystalformSites alias>  (133) 
F1x - A0541/A/147

>  <Quatassemblies alias>  (133) 
A1 - monomer

>  <Crystalforms alias>  (133) 
F1 - A71_2A_open

>  <ConformerSites upload name>  (133) 
3a - A71EV2A-x0541/A/147

>  <CanonSites upload name>  (133) 
3 - A71EV2A-x0541/A/147/1

>  <CrystalformSites upload name>  (133) 
F1x - A71EV2A-x0541/A/147/1

>  <Quatassemblies upload name>  (133) 
A1 - monomer

>  <Crystalforms upload name>  (133) 
F1 - A71_2A_open

>  <ConformerSites short tag>  (133) 
3a - A0541/A/147

>  <CanonSites short tag>  (133) 
3 - A0541/A/147/1

>  <CrystalformSites short tag>  (133) 
F1x - A0541/A/147

>  <Quatassemblies short tag>  (133) 
A1 - monomer

>  <Crystalforms short tag>  (133) 
F1 - A71_2A_open

>  <Centroid res>  (133) 
A71EV2A-x0541/A/97/A_v1

>  <Experiment code>  (133) 
A71EV2A-x2458

>  <Pose>  (133) 
A2458a

$$$$
A2513a
     RDKit          3D

 14 15  0  0  0  0  0  0  0  0999 V2000
   13.5330    9.2550   25.4940 O   0  0  0  0  0  0  0  0  0  0  0  0
   12.6460   10.0500   25.1160 C   0  0  0  0  0  0  0  0  0  0  0  0
   11.2590    9.9900   25.2570 N   0  0  0  0  0  0  0  0  0  0  0  0
   10.6150   11.0210   24.5880 C   0  0  0  0  0  0  0  0  0  0  0  0
    9.2650   11.3600   24.5440 C   0  0  0  0  0  0  0  0  0  0  0  0
    8.0950   10.3630   25.3480 Cl  0  0  0  0  0  0  0  0  0  0  0  0
    8.8470   12.5070   23.8910 C   0  0  0  0  0  0  0  0  0  0  0  0
    9.7800   13.3220   23.2690 C   0  0  0  0  0  0  0  0  0  0  0  0
   12.8640   11.2820   24.2790 C   0  0  0  0  0  0  0  0  0  0  0  0
   13.8730   11.8010   24.0410 O   0  0  0  0  0  0  0  0  0  0  0  0
   11.5780   11.8260   23.9600 C   0  0  0  0  0  0  0  0  0  0  0  0
   11.1340   12.9790   23.2760 C   0  0  0  0  0  0  0  0  0  0  0  0
   12.1300   13.6790   22.6370 O   0  0  0  0  0  0  0  0  0  0  0  0
   11.7490   14.6470   21.6540 C   0  0  0  0  0  0  0  0  0  0  0  0
 14 13  1  0
 13 12  1  0
 12  8  2  0
  8  7  1  0
  7  5  2  0
  6  5  1  0
  5  4  1  0
  4 11  2  0
 12 11  1  0
 11  9  1  0
 10  9  2  0
  9  2  1  0
  2  1  2  0
  3  2  1  0
  4  3  1  0
M  END
>  <id>  (134) 
134

>  <inchikey>  (134) 
DVVWQQZWRTXTMK-UHFFFAOYSA-N

>  <alias>  (134) 
A2513a

>  <smiles>  (134) 
COc1ccc(Cl)c2c1C(=O)C(=O)N2

>  <path>  (134) 
/opt/xchem-fragalysis-2/maxwin/BulkDock/TARGETS/A71EV2A/aligned_files/A2513a/A2513a.pdb

>  <distance_score>  (134) 
None

>  <energy_score>  (134) 
None

>  <compound>  (134) 
DVVWQQZWRTXTMK-UHFFFAOYSA-N

>  <compound_id>  (134) 
105

>  <target>  (134) 
A71EV2A

>  <tags>  (134) 
['GOOD count', "[Other] S1' site", 'MEDIOCRE count', '[Other] S1 site', 'hits', '[Other] P3 compound design', '[Other] upload_2 2024-12-12', 'Main status', 'BAD count']

>  <inspirations>  (134) 
None

>  <subsites>  (134) 
None

>  <reference>  (134) 


>  <observation_longname>  (134) 
A71EV2A-x2513_D_301_v1

>  <ConformerSites alias>  (134) 
1b - A0911/A/147

>  <CanonSites alias>  (134) 
1 - Active Site

>  <CrystalformSites alias>  (134) 
F1a - A0375/A/201

>  <Quatassemblies alias>  (134) 
A1 - monomer

>  <Crystalforms alias>  (134) 
F1 - A71_2A_open

>  <ConformerSites upload name>  (134) 
1b - A71EV2A-x0911/A/147

>  <CanonSites upload name>  (134) 
1 - A71EV2A-x0911/A/147/1

>  <CrystalformSites upload name>  (134) 
F1a - A71EV2A-x0375/A/201/1

>  <Quatassemblies upload name>  (134) 
A1 - monomer

>  <Crystalforms upload name>  (134) 
F1 - A71_2A_open

>  <ConformerSites short tag>  (134) 
1b - A0911/A/147

>  <CanonSites short tag>  (134) 
1 - A0911/A/147/1

>  <CrystalformSites short tag>  (134) 
F1a - A0375/A/201

>  <Quatassemblies short tag>  (134) 
A1 - monomer

>  <Crystalforms short tag>  (134) 
F1 - A71_2A_open

>  <Centroid res>  (134) 
A71EV2A-x0911/A/133/A_v1

>  <Experiment code>  (134) 
A71EV2A-x2513

>  <Pose>  (134) 
A2513a

$$$$
A2629a
     RDKit          3D

 18 19  0  0  0  0  0  0  0  0999 V2000
   10.8550   14.7860   22.6500 O   0  0  0  0  0  0  0  0  0  0  0  0
   11.2280   13.7550   22.0930 C   0  0  0  0  0  0  0  0  0  0  0  0
   10.8670   12.4920   22.4900 N   0  0  0  0  0  0  0  0  0  0  0  0
   10.0260   12.1360   23.5760 C   0  0  0  0  0  0  0  0  0  0  0  0
    9.5550   13.0330   24.5360 C   0  0  0  0  0  0  0  0  0  0  0  0
    8.6490   12.6020   25.4940 C   0  0  0  0  0  0  0  0  0  0  0  0
    8.2270   11.2840   25.5220 C   0  0  0  0  0  0  0  0  0  0  0  0
    8.7110   10.3700   24.5960 C   0  0  0  0  0  0  0  0  0  0  0  0
    9.5980   10.7960   23.6170 C   0  0  0  0  0  0  0  0  0  0  0  0
   10.0640   10.0240   22.5870 O   0  0  0  0  0  0  0  0  0  0  0  0
    9.9530    8.6030   22.6960 C   0  0  0  0  0  0  0  0  0  0  0  0
   12.0490   13.7430   20.9940 N   0  0  0  0  0  0  0  0  0  0  0  0
   12.6170   14.8630   20.3470 C   0  0  0  0  0  0  0  0  0  0  0  0
   13.1490   15.9090   21.1000 C   0  0  0  0  0  0  0  0  0  0  0  0
   13.7860   16.9540   20.5640 N   0  0  0  0  0  0  0  0  0  0  0  0
   13.9050   16.9850   19.2320 C   0  0  0  0  0  0  0  0  0  0  0  0
   13.4010   16.0070   18.3990 C   0  0  0  0  0  0  0  0  0  0  0  0
   12.7440   14.9290   18.9670 C   0  0  0  0  0  0  0  0  0  0  0  0
 11 10  1  0
 10  9  1  0
  9  8  1  0
  8  7  2  0
  7  6  1  0
  6  5  2  0
  5  4  1  0
  9  4  2  0
  4  3  1  0
  3  2  1  0
  2  1  2  0
 12  2  1  0
 13 12  1  0
 13 18  2  0
 18 17  1  0
 17 16  2  0
 16 15  1  0
 15 14  2  0
 14 13  1  0
M  END
>  <id>  (135) 
135

>  <inchikey>  (135) 
GXPNSFDRGMRUJM-UHFFFAOYSA-N

>  <alias>  (135) 
A2629a

>  <smiles>  (135) 
COc1ccccc1NC(=O)Nc1cccnc1

>  <path>  (135) 
/opt/xchem-fragalysis-2/maxwin/BulkDock/TARGETS/A71EV2A/aligned_files/A2629a/A2629a.pdb

>  <distance_score>  (135) 
None

>  <energy_score>  (135) 
None

>  <compound>  (135) 
GXPNSFDRGMRUJM-UHFFFAOYSA-N

>  <compound_id>  (135) 
106

>  <target>  (135) 
A71EV2A

>  <tags>  (135) 
['GOOD count', 'MEDIOCRE count', '[Other] S1 site', 'hits', '[Other] Sun-roof open', '[Other] S2 site', '[Other] P3 compound design', '[Other] upload_1 2025-02-12', 'Main status', 'BAD count']

>  <inspirations>  (135) 
None

>  <subsites>  (135) 
None

>  <reference>  (135) 


>  <observation_longname>  (135) 
A71EV2A-x2629_D_246_v1

>  <ConformerSites alias>  (135) 
1b - A0911/A/147

>  <CanonSites alias>  (135) 
1 - Active Site

>  <CrystalformSites alias>  (135) 
F1a - A0375/A/201

>  <Quatassemblies alias>  (135) 
A1 - monomer

>  <Crystalforms alias>  (135) 
F1 - A71_2A_open

>  <ConformerSites upload name>  (135) 
1b - A71EV2A-x0911/A/147

>  <CanonSites upload name>  (135) 
1 - A71EV2A-x0911/A/147/1

>  <CrystalformSites upload name>  (135) 
F1a - A71EV2A-x0375/A/201/1

>  <Quatassemblies upload name>  (135) 
A1 - monomer

>  <Crystalforms upload name>  (135) 
F1 - A71_2A_open

>  <ConformerSites short tag>  (135) 
1b - A0911/A/147

>  <CanonSites short tag>  (135) 
1 - A0911/A/147/1

>  <CrystalformSites short tag>  (135) 
F1a - A0375/A/201

>  <Quatassemblies short tag>  (135) 
A1 - monomer

>  <Crystalforms short tag>  (135) 
F1 - A71_2A_open

>  <Centroid res>  (135) 
A71EV2A-x0911/A/133/A_v1

>  <Experiment code>  (135) 
A71EV2A-x2629

>  <Pose>  (135) 
A2629a

$$$$
A2846a
     RDKit          3D

 20 22  0  0  0  0  0  0  0  0999 V2000
   10.2800   14.1940   24.6720 O   0  0  0  0  0  0  0  0  0  0  0  0
   10.3520   13.3380   23.7910 C   0  0  0  0  0  0  0  0  0  0  0  0
    9.5840   12.0480   23.9080 C   0  0  0  0  0  0  0  0  0  0  0  0
    9.9420   10.9660   23.2140 N   0  0  0  0  0  0  0  0  0  0  0  0
    8.4760   11.7600   24.7700 C   0  0  0  0  0  0  0  0  0  0  0  0
    8.2090   10.4010   24.5590 C   0  0  0  0  0  0  0  0  0  0  0  0
    7.2280    9.7310   25.2760 C   0  0  0  0  0  0  0  0  0  0  0  0
    6.4980   10.4500   26.2140 C   0  0  0  0  0  0  0  0  0  0  0  0
    6.7430   11.8000   26.4240 C   0  0  0  0  0  0  0  0  0  0  0  0
    7.7230   12.4640   25.7050 C   0  0  0  0  0  0  0  0  0  0  0  0
    9.0920    9.9690   23.6140 N   0  0  0  0  0  0  0  0  0  0  0  0
    9.1980    8.6470   23.0260 C   0  0  0  0  0  0  0  0  0  0  0  0
   11.1030   13.4660   22.6980 N   0  0  0  0  0  0  0  0  0  0  0  0
   12.0910   14.5240   22.5610 C   0  0  0  0  0  0  0  0  0  0  0  0
   12.3860   14.8450   21.1130 C   0  0  0  0  0  0  0  0  0  0  0  0
   11.2600   15.5580   20.4330 C   0  0  0  0  0  0  0  0  0  0  0  0
   10.6040   16.6180   21.0290 N   0  0  0  0  0  0  0  0  0  0  0  0
    9.7260   16.9670   20.1640 C   0  0  0  0  0  0  0  0  0  0  0  0
    9.7250   16.2530   19.0180 O   0  0  0  0  0  0  0  0  0  0  0  0
   10.7290   15.3500   19.2210 C   0  0  0  0  0  0  0  0  0  0  0  0
 12 11  1  0
 11  4  1  0
  4  3  2  0
  3  2  1  0
  2  1  2  0
 13  2  1  0
 14 13  1  0
 15 14  1  0
 16 15  1  0
 16 20  2  0
 20 19  1  0
 19 18  1  0
 18 17  2  0
 17 16  1  0
  5  3  1  0
  5 10  2  0
 10  9  1  0
  9  8  2  0
  8  7  1  0
  7  6  2  0
  6  5  1  0
 11  6  1  0
M  END
>  <id>  (136) 
136

>  <inchikey>  (136) 
ONGQCMNCDUWDOR-UHFFFAOYSA-N

>  <alias>  (136) 
A2846a

>  <smiles>  (136) 
Cn1nc(C(=O)NCCc2cocn2)c2ccccc21

>  <path>  (136) 
/opt/xchem-fragalysis-2/maxwin/BulkDock/TARGETS/A71EV2A/aligned_files/A2846a/A2846a.pdb

>  <distance_score>  (136) 
None

>  <energy_score>  (136) 
None

>  <compound>  (136) 
ONGQCMNCDUWDOR-UHFFFAOYSA-N

>  <compound_id>  (136) 
107

>  <target>  (136) 
A71EV2A

>  <tags>  (136) 
['GOOD count', 'MEDIOCRE count', '[Other] S1 site', 'hits', '[Other] S2 site', '[Other] P3 compound design', '[Other] upload_1 2024-12-06', 'Main status', '[Series] Indazole series', 'BAD count']

>  <inspirations>  (136) 
None

>  <subsites>  (136) 
None

>  <reference>  (136) 


>  <observation_longname>  (136) 
A71EV2A-x2846_E_301_v1

>  <ConformerSites alias>  (136) 
1b - A0911/A/147

>  <CanonSites alias>  (136) 
1 - Active Site

>  <CrystalformSites alias>  (136) 
F1a - A0375/A/201

>  <Quatassemblies alias>  (136) 
A1 - monomer

>  <Crystalforms alias>  (136) 
F1 - A71_2A_open

>  <ConformerSites upload name>  (136) 
1b - A71EV2A-x0911/A/147

>  <CanonSites upload name>  (136) 
1 - A71EV2A-x0911/A/147/1

>  <CrystalformSites upload name>  (136) 
F1a - A71EV2A-x0375/A/201/1

>  <Quatassemblies upload name>  (136) 
A1 - monomer

>  <Crystalforms upload name>  (136) 
F1 - A71_2A_open

>  <ConformerSites short tag>  (136) 
1b - A0911/A/147

>  <CanonSites short tag>  (136) 
1 - A0911/A/147/1

>  <CrystalformSites short tag>  (136) 
F1a - A0375/A/201

>  <Quatassemblies short tag>  (136) 
A1 - monomer

>  <Crystalforms short tag>  (136) 
F1 - A71_2A_open

>  <Centroid res>  (136) 
A71EV2A-x0911/A/133/A_v1

>  <Experiment code>  (136) 
A71EV2A-x2846

>  <Pose>  (136) 
A2846a

$$$$
A2972a
     RDKit          3D

 19 21  0  0  0  0  0  0  0  0999 V2000
   11.0450   13.9570   24.5530 O   0  0  0  0  0  0  0  0  0  0  0  0
   10.9000   13.1160   23.6690 C   0  0  0  0  0  0  0  0  0  0  0  0
   10.0430   11.8880   23.9120 C   0  0  0  0  0  0  0  0  0  0  0  0
   10.2800   10.7670   23.2370 N   0  0  0  0  0  0  0  0  0  0  0  0
    8.9530   11.7070   24.8410 C   0  0  0  0  0  0  0  0  0  0  0  0
    8.5620   10.3720   24.6630 C   0  0  0  0  0  0  0  0  0  0  0  0
    7.5330    9.8100   25.4050 C   0  0  0  0  0  0  0  0  0  0  0  0
    6.8890   10.6000   26.3460 C   0  0  0  0  0  0  0  0  0  0  0  0
    7.2620   11.9220   26.5340 C   0  0  0  0  0  0  0  0  0  0  0  0
    8.2880   12.4850   25.7880 C   0  0  0  0  0  0  0  0  0  0  0  0
    9.3890    9.8410   23.7190 N   0  0  0  0  0  0  0  0  0  0  0  0
    9.5050    8.4520   23.3030 C   0  0  0  0  0  0  0  0  0  0  0  0
   11.4860   13.1930   22.4680 N   0  0  0  0  0  0  0  0  0  0  0  0
   12.2020   14.3860   22.0470 C   0  0  0  0  0  0  0  0  0  0  0  0
   11.6070   15.0280   20.8330 C   0  0  0  0  0  0  0  0  0  0  0  0
   10.6980   16.0710   20.9490 N   0  0  0  0  0  0  0  0  0  0  0  0
   10.2770   16.3060   19.7140 C   0  0  0  0  0  0  0  0  0  0  0  0
   10.8790   15.5080   18.8220 N   0  0  0  0  0  0  0  0  0  0  0  0
   11.7320   14.6940   19.5200 C   0  0  0  0  0  0  0  0  0  0  0  0
 12 11  1  0
 11  4  1  0
  4  3  2  0
  3  2  1  0
  2  1  2  0
 13  2  1  0
 14 13  1  0
 15 14  1  0
 15 19  2  0
 19 18  1  0
 18 17  1  0
 17 16  2  0
 16 15  1  0
  5  3  1  0
  5 10  2  0
 10  9  1  0
  9  8  2  0
  8  7  1  0
  7  6  2  0
  6  5  1  0
 11  6  1  0
M  END
>  <id>  (137) 
137

>  <inchikey>  (137) 
FWZMGOFFERWMMX-UHFFFAOYSA-N

>  <alias>  (137) 
A2972a

>  <smiles>  (137) 
Cn1nc(C(=O)NCc2c[nH]cn2)c2ccccc21

>  <path>  (137) 
/opt/xchem-fragalysis-2/maxwin/BulkDock/TARGETS/A71EV2A/aligned_files/A2972a/A2972a.pdb

>  <distance_score>  (137) 
None

>  <energy_score>  (137) 
None

>  <compound>  (137) 
FWZMGOFFERWMMX-UHFFFAOYSA-N

>  <compound_id>  (137) 
108

>  <target>  (137) 
A71EV2A

>  <tags>  (137) 
['GOOD count', 'MEDIOCRE count', '[Other] S1 site', 'hits', '[Other] S2 site', '[Other] P3 compound design', '[Other] upload_1 2024-12-06', 'Main status', '[Other] New', '[Series] Indazole series', 'BAD count']

>  <inspirations>  (137) 
None

>  <subsites>  (137) 
None

>  <reference>  (137) 


>  <observation_longname>  (137) 
A71EV2A-x2972_A_201_v1

>  <ConformerSites alias>  (137) 
1b - A0911/A/147

>  <CanonSites alias>  (137) 
1 - Active Site

>  <CrystalformSites alias>  (137) 
F1a - A0375/A/201

>  <Quatassemblies alias>  (137) 
A1 - monomer

>  <Crystalforms alias>  (137) 
F1 - A71_2A_open

>  <ConformerSites upload name>  (137) 
1b - A71EV2A-x0911/A/147

>  <CanonSites upload name>  (137) 
1 - A71EV2A-x0911/A/147/1

>  <CrystalformSites upload name>  (137) 
F1a - A71EV2A-x0375/A/201/1

>  <Quatassemblies upload name>  (137) 
A1 - monomer

>  <Crystalforms upload name>  (137) 
F1 - A71_2A_open

>  <ConformerSites short tag>  (137) 
1b - A0911/A/147

>  <CanonSites short tag>  (137) 
1 - A0911/A/147/1

>  <CrystalformSites short tag>  (137) 
F1a - A0375/A/201

>  <Quatassemblies short tag>  (137) 
A1 - monomer

>  <Crystalforms short tag>  (137) 
F1 - A71_2A_open

>  <Centroid res>  (137) 
A71EV2A-x0911/A/133/A_v1

>  <Experiment code>  (137) 
A71EV2A-x2972

>  <Pose>  (137) 
A2972a

$$$$
A3054a
     RDKit          3D

 19 20  0  0  0  0  0  0  0  0999 V2000
   10.3950   16.8700   19.1650 O   0  0  0  0  0  0  0  0  0  0  0  0
   10.6090   15.6850   19.4330 C   0  0  0  0  0  0  0  0  0  0  0  0
   10.9110   14.7820   18.5150 N   0  0  0  0  0  0  0  0  0  0  0  0
   10.5730   15.1880   20.8670 C   0  0  1  0  0  0  0  0  0  0  0  0
   11.8070   15.6690   21.6440 C   0  0  0  0  0  0  0  0  0  0  0  0
   11.7340   15.3130   23.1320 C   0  0  0  0  0  0  0  0  0  0  0  0
   10.4220   15.7840   23.7350 C   0  0  0  0  0  0  0  0  0  0  0  0
    9.3360   15.7640   21.5610 C   0  0  0  0  0  0  0  0  0  0  0  0
    9.2890   15.2800   22.9430 N   0  0  0  0  0  0  0  0  0  0  0  0
    8.7170   14.0580   23.1680 C   0  0  0  0  0  0  0  0  0  0  0  0
    7.9860   13.5210   22.3440 O   0  0  0  0  0  0  0  0  0  0  0  0
    8.8940   13.5300   24.3980 N   0  0  0  0  0  0  0  0  0  0  0  0
    8.4530   12.2300   24.7130 C   0  0  0  0  0  0  0  0  0  0  0  0
    7.4520   11.9400   25.6280 C   0  0  0  0  0  0  0  0  0  0  0  0
    7.0150   10.6360   25.7660 C   0  0  0  0  0  0  0  0  0  0  0  0
    7.5930    9.6250   25.0100 C   0  0  0  0  0  0  0  0  0  0  0  0
    9.0430   11.2070   23.9750 C   0  0  0  0  0  0  0  0  0  0  0  0
    8.6240    9.8930   24.1180 C   0  0  0  0  0  0  0  0  0  0  0  0
    9.2720    8.7870   23.3200 C   0  0  0  0  0  0  0  0  0  0  0  0
 19 18  1  0
 18 16  2  0
 16 15  1  0
 15 14  2  0
 14 13  1  0
 13 12  1  0
 12 10  1  0
 11 10  2  0
 10  9  1  0
  9  7  1  0
  7  6  1  0
  6  5  1  0
  5  4  1  0
  4  2  1  6
  3  2  1  0
  2  1  2  0
  8  4  1  0
  9  8  1  0
 17 13  2  0
 18 17  1  0
M  END
>  <id>  (138) 
138

>  <inchikey>  (138) 
PUSSAGYROFRULS-NSHDSACASA-N

>  <alias>  (138) 
A3054a

>  <smiles>  (138) 
Cc1cccc(NC(=O)N2CCC[C@H](C(N)=O)C2)c1

>  <path>  (138) 
/opt/xchem-fragalysis-2/maxwin/BulkDock/TARGETS/A71EV2A/aligned_files/A3054a/A3054a.pdb

>  <distance_score>  (138) 
None

>  <energy_score>  (138) 
None

>  <compound>  (138) 
PUSSAGYROFRULS-UHFFFAOYSA-N

>  <compound_id>  (138) 
109

>  <target>  (138) 
A71EV2A

>  <tags>  (138) 
['GOOD count', 'MEDIOCRE count', '[Other] S1 site', 'hits', '[Other] S2 site', '[Other] P3 compound design', '[Other] upload_1 2024-12-06', 'Main status', '[Other] New', '[Series] Piperidine series', 'BAD count']

>  <inspirations>  (138) 
None

>  <subsites>  (138) 
None

>  <reference>  (138) 


>  <observation_longname>  (138) 
A71EV2A-x3054_A_201_v1

>  <ConformerSites alias>  (138) 
1b - A0911/A/147

>  <CanonSites alias>  (138) 
1 - Active Site

>  <CrystalformSites alias>  (138) 
F8h - A0884/A/147

>  <Quatassemblies alias>  (138) 
A1 - monomer

>  <Crystalforms alias>  (138) 
F8 - A712A_x4271_2.1_refmac1_1st_ref

>  <ConformerSites upload name>  (138) 
1b - A71EV2A-x0911/A/147

>  <CanonSites upload name>  (138) 
1 - A71EV2A-x0911/A/147/1

>  <CrystalformSites upload name>  (138) 
F8h - A71EV2A-x0884/A/147/1

>  <Quatassemblies upload name>  (138) 
A1 - monomer

>  <Crystalforms upload name>  (138) 
F8 - A712A_x4271_2.1_refmac1_1st_ref

>  <ConformerSites short tag>  (138) 
1b - A0911/A/147

>  <CanonSites short tag>  (138) 
1 - A0911/A/147/1

>  <CrystalformSites short tag>  (138) 
F8h - A0884/A/147

>  <Quatassemblies short tag>  (138) 
A1 - monomer

>  <Crystalforms short tag>  (138) 
F8 - A712A_x4271_2.1_refmac1_1st_ref

>  <Centroid res>  (138) 
A71EV2A-x0911/A/133/A_v1

>  <Experiment code>  (138) 
A71EV2A-x3054

>  <Pose>  (138) 
A3054a

$$$$
A3066a
     RDKit          3D

 14 15  0  0  0  0  0  0  0  0999 V2000
   11.0310   14.0620   24.4790 O   0  0  0  0  0  0  0  0  0  0  0  0
   10.8820   13.2880   23.5340 C   0  0  0  0  0  0  0  0  0  0  0  0
   11.4910   13.4660   22.3690 N   0  0  0  0  0  0  0  0  0  0  0  0
   12.4080   14.5740   22.1450 C   0  0  0  0  0  0  0  0  0  0  0  0
   10.0580   12.0720   23.6730 C   0  0  0  0  0  0  0  0  0  0  0  0
    8.9440   11.8670   24.5670 C   0  0  0  0  0  0  0  0  0  0  0  0
    8.5660   10.5200   24.4390 C   0  0  0  0  0  0  0  0  0  0  0  0
    9.3940    9.9330   23.5030 N   0  0  0  0  0  0  0  0  0  0  0  0
    9.3820    8.5320   23.1040 C   0  0  0  0  0  0  0  0  0  0  0  0
   10.2710   10.8760   23.0480 C   0  0  0  0  0  0  0  0  0  0  0  0
    8.2380   12.6890   25.4500 C   0  0  0  0  0  0  0  0  0  0  0  0
    7.1860   12.1600   26.1790 C   0  0  0  0  0  0  0  0  0  0  0  0
    6.8330   10.8180   26.0450 C   0  0  0  0  0  0  0  0  0  0  0  0
    7.5190    9.9820   25.1740 C   0  0  0  0  0  0  0  0  0  0  0  0
  4  3  1  0
  3  2  1  0
  2  1  2  0
  5  2  1  0
  5 10  2  0
 10  8  1  0
  9  8  1  0
  8  7  1  0
  7 14  2  0
 14 13  1  0
 13 12  2  0
 12 11  1  0
 11  6  2  0
  6  5  1  0
  7  6  1  0
M  END
>  <id>  (139) 
139

>  <inchikey>  (139) 
OHXYWSIWHXTWCT-UHFFFAOYSA-N

>  <alias>  (139) 
A3066a

>  <smiles>  (139) 
CNC(=O)c1cn(C)c2ccccc12

>  <path>  (139) 
/opt/xchem-fragalysis-2/maxwin/BulkDock/TARGETS/A71EV2A/aligned_files/A3066a/A3066a.pdb

>  <distance_score>  (139) 
None

>  <energy_score>  (139) 
None

>  <compound>  (139) 
OHXYWSIWHXTWCT-UHFFFAOYSA-N

>  <compound_id>  (139) 
6

>  <target>  (139) 
A71EV2A

>  <tags>  (139) 
['GOOD count', 'MEDIOCRE count', '[Other] S1 site', 'hits', '[Other] P3 compound design', '[Other] upload_1 2024-12-06', 'Main status', '[Series] Indazole series', 'BAD count']

>  <inspirations>  (139) 
None

>  <subsites>  (139) 
None

>  <reference>  (139) 


>  <observation_longname>  (139) 
A71EV2A-x3066_E_301_v1

>  <ConformerSites alias>  (139) 
1b - A0911/A/147

>  <CanonSites alias>  (139) 
1 - Active Site

>  <CrystalformSites alias>  (139) 
F1a - A0375/A/201

>  <Quatassemblies alias>  (139) 
A1 - monomer

>  <Crystalforms alias>  (139) 
F1 - A71_2A_open

>  <ConformerSites upload name>  (139) 
1b - A71EV2A-x0911/A/147

>  <CanonSites upload name>  (139) 
1 - A71EV2A-x0911/A/147/1

>  <CrystalformSites upload name>  (139) 
F1a - A71EV2A-x0375/A/201/1

>  <Quatassemblies upload name>  (139) 
A1 - monomer

>  <Crystalforms upload name>  (139) 
F1 - A71_2A_open

>  <ConformerSites short tag>  (139) 
1b - A0911/A/147

>  <CanonSites short tag>  (139) 
1 - A0911/A/147/1

>  <CrystalformSites short tag>  (139) 
F1a - A0375/A/201

>  <Quatassemblies short tag>  (139) 
A1 - monomer

>  <Crystalforms short tag>  (139) 
F1 - A71_2A_open

>  <Centroid res>  (139) 
A71EV2A-x0911/A/133/A_v1

>  <Experiment code>  (139) 
A71EV2A-x3066

>  <Pose>  (139) 
A3066a

$$$$
A3175a
     RDKit          3D

 20 22  0  0  0  0  0  0  0  0999 V2000
    6.2300   12.0170   26.9990 O   0  0  0  0  0  0  0  0  0  0  0  0
    6.4460   10.9170   26.4770 C   0  0  0  0  0  0  0  0  0  0  0  0
    7.5230   10.7380   25.4740 C   0  0  0  0  0  0  0  0  0  0  0  0
    8.4330   11.7460   24.9720 C   0  0  0  0  0  0  0  0  0  0  0  0
    8.6550   13.0900   25.2630 C   0  0  0  0  0  0  0  0  0  0  0  0
    9.6610   13.7820   24.5980 C   0  0  0  0  0  0  0  0  0  0  0  0
   10.4440   13.1490   23.6400 C   0  0  0  0  0  0  0  0  0  0  0  0
   10.2420   11.8110   23.3330 C   0  0  0  0  0  0  0  0  0  0  0  0
    9.2420   11.1200   24.0090 C   0  0  0  0  0  0  0  0  0  0  0  0
    8.8720    9.7910   23.9400 N   0  0  0  0  0  0  0  0  0  0  0  0
    9.5060    8.7730   23.1120 C   0  0  0  0  0  0  0  0  0  0  0  0
    7.8420    9.5770   24.8170 C   0  0  0  0  0  0  0  0  0  0  0  0
    5.7520    9.8200   26.7930 N   0  0  0  0  0  0  0  0  0  0  0  0
    4.7150    9.8600   27.8020 C   0  0  0  0  0  0  0  0  0  0  0  0
    5.1360    9.2950   29.1100 C   0  0  0  0  0  0  0  0  0  0  0  0
    4.5680    8.4040   29.9400 C   0  0  0  0  0  0  0  0  0  0  0  0
    6.2690    9.7910   29.6530 O   0  0  0  0  0  0  0  0  0  0  0  0
    6.4400    9.2100   30.9400 N   0  0  0  0  0  0  0  0  0  0  0  0
    5.3890    8.3640   31.0770 C   0  0  0  0  0  0  0  0  0  0  0  0
    5.2080    7.5350   32.3110 C   0  0  0  0  0  0  0  0  0  0  0  0
 20 19  1  0
 19 16  1  0
 16 15  2  0
 15 14  1  0
 14 13  1  0
 13  2  1  0
  2  1  2  0
  3  2  1  0
  3 12  2  0
 12 10  1  0
 11 10  1  0
 10  9  1  0
  9  8  1  0
  8  7  2  0
  7  6  1  0
  6  5  2  0
  5  4  1  0
  4  3  1  0
  9  4  2  0
 17 15  1  0
 18 17  1  0
 19 18  2  0
M  END
>  <id>  (140) 
140

>  <inchikey>  (140) 
RYIGIXMEYULONZ-UHFFFAOYSA-N

>  <alias>  (140) 
A3175a

>  <smiles>  (140) 
Cc1cc(CNC(=O)c2cn(C)c3ccccc23)on1

>  <path>  (140) 
/opt/xchem-fragalysis-2/maxwin/BulkDock/TARGETS/A71EV2A/aligned_files/A3175a/A3175a.pdb

>  <distance_score>  (140) 
None

>  <energy_score>  (140) 
None

>  <compound>  (140) 
RYIGIXMEYULONZ-UHFFFAOYSA-N

>  <compound_id>  (140) 
110

>  <target>  (140) 
A71EV2A

>  <tags>  (140) 
['GOOD count', 'MEDIOCRE count', '[Other] S1 site', 'hits', '[Other] P3 compound design', '[Other] upload_1 2024-12-06', 'Main status', '[Other] New', '[Series] Indazole series', 'BAD count']

>  <inspirations>  (140) 
None

>  <subsites>  (140) 
None

>  <reference>  (140) 


>  <observation_longname>  (140) 
A71EV2A-x3175_A_201_v1

>  <ConformerSites alias>  (140) 
1b - A0911/A/147

>  <CanonSites alias>  (140) 
1 - Active Site

>  <CrystalformSites alias>  (140) 
F5i - A3175/A/201

>  <Quatassemblies alias>  (140) 
A1 - monomer

>  <Crystalforms alias>  (140) 
F5 - A71EV2A_x3178_new_long_dials_041024

>  <ConformerSites upload name>  (140) 
1b - A71EV2A-x0911/A/147

>  <CanonSites upload name>  (140) 
1 - A71EV2A-x0911/A/147/1

>  <CrystalformSites upload name>  (140) 
F5i - A71EV2A-x3175/A/201/1

>  <Quatassemblies upload name>  (140) 
A1 - monomer

>  <Crystalforms upload name>  (140) 
F5 - A71EV2A_x3178_new_long_dials_041024

>  <ConformerSites short tag>  (140) 
1b - A0911/A/147

>  <CanonSites short tag>  (140) 
1 - A0911/A/147/1

>  <CrystalformSites short tag>  (140) 
F5i - A3175/A/201

>  <Quatassemblies short tag>  (140) 
A1 - monomer

>  <Crystalforms short tag>  (140) 
F5 - A71EV2A_x3178_new_long_dials_041024

>  <Centroid res>  (140) 
A71EV2A-x0911/A/133/A_v1

>  <Experiment code>  (140) 
A71EV2A-x3175

>  <Pose>  (140) 
A3175a

$$$$
A3176a
     RDKit          3D

 18 19  0  0  0  0  0  0  0  0999 V2000
    9.2050   14.6080   24.1040 O   0  0  0  0  0  0  0  0  0  0  0  0
    9.6580   13.6160   23.5320 C   0  0  0  0  0  0  0  0  0  0  0  0
   10.6900   13.6770   22.6820 N   0  0  0  0  0  0  0  0  0  0  0  0
   11.5280   14.8730   22.6240 C   0  0  1  0  0  0  0  0  0  0  0  0
   12.6850   14.7690   23.6050 C   0  0  0  0  0  0  0  0  0  0  0  0
   12.0310   15.0670   21.1760 C   0  0  0  0  0  0  0  0  0  0  0  0
   10.9050   15.1610   20.3180 O   0  0  0  0  0  0  0  0  0  0  0  0
   11.2400   14.9010   18.9650 C   0  0  0  0  0  0  0  0  0  0  0  0
    9.0640   12.2510   23.7870 C   0  0  0  0  0  0  0  0  0  0  0  0
    7.9700   11.9280   24.6650 C   0  0  0  0  0  0  0  0  0  0  0  0
    7.8250   10.5370   24.5600 C   0  0  0  0  0  0  0  0  0  0  0  0
    8.7800   10.1070   23.6860 N   0  0  0  0  0  0  0  0  0  0  0  0
    9.0830    8.7380   23.2910 C   0  0  0  0  0  0  0  0  0  0  0  0
    9.5470   11.1520   23.2020 N   0  0  0  0  0  0  0  0  0  0  0  0
    7.1660   12.6250   25.5610 C   0  0  0  0  0  0  0  0  0  0  0  0
    6.2450   11.9300   26.3390 C   0  0  0  0  0  0  0  0  0  0  0  0
    6.1070   10.5540   26.2170 C   0  0  0  0  0  0  0  0  0  0  0  0
    6.8940    9.8410   25.3210 C   0  0  0  0  0  0  0  0  0  0  0  0
  8  7  1  0
  7  6  1  0
  6  4  1  0
  4  5  1  1
  4  3  1  0
  3  2  1  0
  2  1  2  0
  9  2  1  0
  9 14  2  0
 14 12  1  0
 13 12  1  0
 12 11  1  0
 11 18  2  0
 18 17  1  0
 17 16  2  0
 16 15  1  0
 15 10  2  0
 10  9  1  0
 11 10  1  0
M  END
>  <id>  (141) 
141

>  <inchikey>  (141) 
UFYNWTYMVOYUIH-VIFPVBQESA-N

>  <alias>  (141) 
A3176a

>  <smiles>  (141) 
COC[C@H](C)NC(=O)c1nn(C)c2ccccc12

>  <path>  (141) 
/opt/xchem-fragalysis-2/maxwin/BulkDock/TARGETS/A71EV2A/aligned_files/A3176a/A3176a.pdb

>  <distance_score>  (141) 
None

>  <energy_score>  (141) 
None

>  <compound>  (141) 
UFYNWTYMVOYUIH-UHFFFAOYSA-N

>  <compound_id>  (141) 
111

>  <target>  (141) 
A71EV2A

>  <tags>  (141) 
['GOOD count', "[Other] S1' site", 'MEDIOCRE count', '[Other] S1 site', 'hits', '[Other] S2 site', '[Other] P3 compound design', '[Other] upload_1 2024-12-06', 'Main status', '[Other] New', '[Series] Indazole series', 'BAD count']

>  <inspirations>  (141) 
None

>  <subsites>  (141) 
None

>  <reference>  (141) 


>  <observation_longname>  (141) 
A71EV2A-x3176_A_201_v1

>  <ConformerSites alias>  (141) 
1b - A0911/A/147

>  <CanonSites alias>  (141) 
1 - Active Site

>  <CrystalformSites alias>  (141) 
F5i - A3175/A/201

>  <Quatassemblies alias>  (141) 
A1 - monomer

>  <Crystalforms alias>  (141) 
F5 - A71EV2A_x3178_new_long_dials_041024

>  <ConformerSites upload name>  (141) 
1b - A71EV2A-x0911/A/147

>  <CanonSites upload name>  (141) 
1 - A71EV2A-x0911/A/147/1

>  <CrystalformSites upload name>  (141) 
F5i - A71EV2A-x3175/A/201/1

>  <Quatassemblies upload name>  (141) 
A1 - monomer

>  <Crystalforms upload name>  (141) 
F5 - A71EV2A_x3178_new_long_dials_041024

>  <ConformerSites short tag>  (141) 
1b - A0911/A/147

>  <CanonSites short tag>  (141) 
1 - A0911/A/147/1

>  <CrystalformSites short tag>  (141) 
F5i - A3175/A/201

>  <Quatassemblies short tag>  (141) 
A1 - monomer

>  <Crystalforms short tag>  (141) 
F5 - A71EV2A_x3178_new_long_dials_041024

>  <Centroid res>  (141) 
A71EV2A-x0911/A/133/A_v1

>  <Experiment code>  (141) 
A71EV2A-x3176

>  <Pose>  (141) 
A3176a

$$$$
A3177a
     RDKit          3D

 18 20  0  0  0  0  0  0  0  0999 V2000
    9.4750   14.3050   24.5310 O   0  0  0  0  0  0  0  0  0  0  0  0
    9.8730   13.3810   23.8280 C   0  0  0  0  0  0  0  0  0  0  0  0
   10.8390   13.5450   22.8970 N   0  0  0  0  0  0  0  0  0  0  0  0
   11.5400   14.8210   22.7830 C   0  0  2  0  0  0  0  0  0  0  0  0
   11.1480   15.7850   21.7080 C   0  0  2  0  0  0  0  0  0  0  0  0
   10.0220   15.4620   20.7440 C   0  0  0  0  0  0  0  0  0  0  0  0
    8.7460   15.6360   21.3340 O   0  0  0  0  0  0  0  0  0  0  0  0
   12.4390   15.0340   21.6060 C   0  0  0  0  0  0  0  0  0  0  0  0
    9.2420   12.0110   23.9700 C   0  0  0  0  0  0  0  0  0  0  0  0
    9.7110   10.9320   23.3470 N   0  0  0  0  0  0  0  0  0  0  0  0
    8.1230   11.6680   24.8250 C   0  0  0  0  0  0  0  0  0  0  0  0
    7.9480   10.2910   24.6430 C   0  0  0  0  0  0  0  0  0  0  0  0
    8.9130    9.8810   23.7690 N   0  0  0  0  0  0  0  0  0  0  0  0
    9.1500    8.5350   23.2670 C   0  0  0  0  0  0  0  0  0  0  0  0
    6.9710    9.5810   25.3300 C   0  0  0  0  0  0  0  0  0  0  0  0
    6.1950   10.2580   26.2610 C   0  0  0  0  0  0  0  0  0  0  0  0
    6.3790   11.6230   26.4810 C   0  0  0  0  0  0  0  0  0  0  0  0
    7.3240   12.3350   25.7540 C   0  0  0  0  0  0  0  0  0  0  0  0
 14 13  1  0
 13 10  1  0
 10  9  2  0
  9  2  1  0
  2  1  2  0
  3  2  1  0
  4  3  1  6
  4  8  1  0
  8  5  1  0
  5  4  1  0
  5  6  1  6
  7  6  1  0
 11  9  1  0
 11 18  2  0
 18 17  1  0
 17 16  2  0
 16 15  1  0
 15 12  2  0
 12 11  1  0
 13 12  1  0
M  END
>  <id>  (142) 
142

>  <inchikey>  (142) 
KPYFSQUXIWVGBB-WPRPVWTQSA-N

>  <alias>  (142) 
A3177a

>  <smiles>  (142) 
Cn1nc(C(=O)N[C@H]2C[C@H]2CO)c2ccccc21

>  <path>  (142) 
/opt/xchem-fragalysis-2/maxwin/BulkDock/TARGETS/A71EV2A/aligned_files/A3177a/A3177a.pdb

>  <distance_score>  (142) 
None

>  <energy_score>  (142) 
None

>  <compound>  (142) 
KPYFSQUXIWVGBB-UHFFFAOYSA-N

>  <compound_id>  (142) 
112

>  <target>  (142) 
A71EV2A

>  <tags>  (142) 
['GOOD count', 'MEDIOCRE count', '[Other] S1 site', 'hits', '[Other] S2 site', '[Other] P3 compound design', '[Other] upload_1 2024-12-06', 'Main status', '[Other] New', '[Series] Indazole series', 'BAD count']

>  <inspirations>  (142) 
None

>  <subsites>  (142) 
None

>  <reference>  (142) 


>  <observation_longname>  (142) 
A71EV2A-x3177_A_201_v1

>  <ConformerSites alias>  (142) 
1b - A0911/A/147

>  <CanonSites alias>  (142) 
1 - Active Site

>  <CrystalformSites alias>  (142) 
F5i - A3175/A/201

>  <Quatassemblies alias>  (142) 
A1 - monomer

>  <Crystalforms alias>  (142) 
F5 - A71EV2A_x3178_new_long_dials_041024

>  <ConformerSites upload name>  (142) 
1b - A71EV2A-x0911/A/147

>  <CanonSites upload name>  (142) 
1 - A71EV2A-x0911/A/147/1

>  <CrystalformSites upload name>  (142) 
F5i - A71EV2A-x3175/A/201/1

>  <Quatassemblies upload name>  (142) 
A1 - monomer

>  <Crystalforms upload name>  (142) 
F5 - A71EV2A_x3178_new_long_dials_041024

>  <ConformerSites short tag>  (142) 
1b - A0911/A/147

>  <CanonSites short tag>  (142) 
1 - A0911/A/147/1

>  <CrystalformSites short tag>  (142) 
F5i - A3175/A/201

>  <Quatassemblies short tag>  (142) 
A1 - monomer

>  <Crystalforms short tag>  (142) 
F5 - A71EV2A_x3178_new_long_dials_041024

>  <Centroid res>  (142) 
A71EV2A-x0911/A/133/A_v1

>  <Experiment code>  (142) 
A71EV2A-x3177

>  <Pose>  (142) 
A3177a

$$$$
A3178a
     RDKit          3D

 18 20  0  0  0  0  0  0  0  0999 V2000
    9.1660   14.8090   23.8050 O   0  0  0  0  0  0  0  0  0  0  0  0
    9.5120   13.7970   23.1620 C   0  0  0  0  0  0  0  0  0  0  0  0
   10.2650   13.8700   22.0630 N   0  0  0  0  0  0  0  0  0  0  0  0
   10.7510   15.1610   21.5720 C   0  0  2  0  0  0  0  0  0  0  0  0
   10.3040   15.5170   20.1510 C   0  0  0  0  0  0  0  0  0  0  0  0
   11.4120   15.1090   19.3000 O   0  0  0  0  0  0  0  0  0  0  0  0
   12.5720   15.0260   20.1220 C   0  0  0  0  0  0  0  0  0  0  0  0
   12.2390   15.2260   21.5550 C   0  0  0  0  0  0  0  0  0  0  0  0
    9.0180   12.4440   23.5530 C   0  0  0  0  0  0  0  0  0  0  0  0
    9.5300   11.3520   22.9740 N   0  0  0  0  0  0  0  0  0  0  0  0
    7.9730   12.0920   24.4770 C   0  0  0  0  0  0  0  0  0  0  0  0
    7.8930   10.6910   24.4060 C   0  0  0  0  0  0  0  0  0  0  0  0
    8.8230   10.2870   23.4950 N   0  0  0  0  0  0  0  0  0  0  0  0
    9.1880    8.9250   23.1260 C   0  0  0  0  0  0  0  0  0  0  0  0
    6.9920    9.9710   25.1820 C   0  0  0  0  0  0  0  0  0  0  0  0
    6.1420   10.6730   26.0330 C   0  0  0  0  0  0  0  0  0  0  0  0
    6.1940   12.0680   26.0950 C   0  0  0  0  0  0  0  0  0  0  0  0
    7.1090   12.7810   25.3320 C   0  0  0  0  0  0  0  0  0  0  0  0
 14 13  1  0
 13 10  1  0
 10  9  2  0
  9  2  1  0
  2  1  2  0
  3  2  1  0
  4  3  1  6
  4  8  1  0
  8  7  1  0
  7  6  1  0
  6  5  1  0
  5  4  1  0
 11  9  1  0
 11 18  2  0
 18 17  1  0
 17 16  2  0
 16 15  1  0
 15 12  2  0
 12 11  1  0
 13 12  1  0
M  END
>  <id>  (143) 
143

>  <inchikey>  (143) 
OUXJTKZWAHXWFL-VIFPVBQESA-N

>  <alias>  (143) 
A3178a

>  <smiles>  (143) 
Cn1nc(C(=O)N[C@H]2CCOC2)c2ccccc21

>  <path>  (143) 
/opt/xchem-fragalysis-2/maxwin/BulkDock/TARGETS/A71EV2A/aligned_files/A3178a/A3178a.pdb

>  <distance_score>  (143) 
None

>  <energy_score>  (143) 
None

>  <compound>  (143) 
OUXJTKZWAHXWFL-UHFFFAOYSA-N

>  <compound_id>  (143) 
113

>  <target>  (143) 
A71EV2A

>  <tags>  (143) 
['GOOD count', 'MEDIOCRE count', '[Other] S1 site', 'hits', '[Other] S2 site', '[Other] P3 compound design', '[Other] upload_1 2024-12-06', 'Main status', '[Other] New', '[Series] Indazole series', 'BAD count']

>  <inspirations>  (143) 
None

>  <subsites>  (143) 
None

>  <reference>  (143) 


>  <observation_longname>  (143) 
A71EV2A-x3178_A_201_v1

>  <ConformerSites alias>  (143) 
1b - A0911/A/147

>  <CanonSites alias>  (143) 
1 - Active Site

>  <CrystalformSites alias>  (143) 
F5i - A3175/A/201

>  <Quatassemblies alias>  (143) 
A1 - monomer

>  <Crystalforms alias>  (143) 
F5 - A71EV2A_x3178_new_long_dials_041024

>  <ConformerSites upload name>  (143) 
1b - A71EV2A-x0911/A/147

>  <CanonSites upload name>  (143) 
1 - A71EV2A-x0911/A/147/1

>  <CrystalformSites upload name>  (143) 
F5i - A71EV2A-x3175/A/201/1

>  <Quatassemblies upload name>  (143) 
A1 - monomer

>  <Crystalforms upload name>  (143) 
F5 - A71EV2A_x3178_new_long_dials_041024

>  <ConformerSites short tag>  (143) 
1b - A0911/A/147

>  <CanonSites short tag>  (143) 
1 - A0911/A/147/1

>  <CrystalformSites short tag>  (143) 
F5i - A3175/A/201

>  <Quatassemblies short tag>  (143) 
A1 - monomer

>  <Crystalforms short tag>  (143) 
F5 - A71EV2A_x3178_new_long_dials_041024

>  <Centroid res>  (143) 
A71EV2A-x0911/A/133/A_v1

>  <Experiment code>  (143) 
A71EV2A-x3178

>  <Pose>  (143) 
A3178a

$$$$
A3181a
     RDKit          3D

 20 22  0  0  0  0  0  0  0  0999 V2000
   10.0590   14.3710   24.6280 O   0  0  0  0  0  0  0  0  0  0  0  0
   10.1800   13.4730   23.7940 C   0  0  0  0  0  0  0  0  0  0  0  0
    9.4030   12.1970   23.9340 C   0  0  0  0  0  0  0  0  0  0  0  0
    9.8110   11.1350   23.2410 N   0  0  0  0  0  0  0  0  0  0  0  0
    8.3140   11.8530   24.8060 C   0  0  0  0  0  0  0  0  0  0  0  0
    8.1030   10.4840   24.5930 C   0  0  0  0  0  0  0  0  0  0  0  0
    7.1280    9.7740   25.2880 C   0  0  0  0  0  0  0  0  0  0  0  0
    6.3740   10.4610   26.2310 C   0  0  0  0  0  0  0  0  0  0  0  0
    6.5850   11.8220   26.4630 C   0  0  0  0  0  0  0  0  0  0  0  0
    7.5290   12.5330   25.7390 C   0  0  0  0  0  0  0  0  0  0  0  0
    9.0130   10.0890   23.6650 N   0  0  0  0  0  0  0  0  0  0  0  0
    9.2240    8.7590   23.1100 C   0  0  0  0  0  0  0  0  0  0  0  0
   11.0000   13.5230   22.7420 N   0  0  0  0  0  0  0  0  0  0  0  0
   12.0520   14.5290   22.6290 C   0  0  0  0  0  0  0  0  0  0  0  0
   12.3670   14.8400   21.1830 C   0  0  0  0  0  0  0  0  0  0  0  0
   11.2780   15.5410   20.5070 N   0  0  0  0  0  0  0  0  0  0  0  0
   10.7360   16.6680   21.0360 N   0  0  0  0  0  0  0  0  0  0  0  0
    9.8510   17.0030   20.1200 C   0  0  0  0  0  0  0  0  0  0  0  0
    9.7970   16.1890   19.0430 N   0  0  0  0  0  0  0  0  0  0  0  0
   10.7060   15.2830   19.3330 C   0  0  0  0  0  0  0  0  0  0  0  0
 12 11  1  0
 11  4  1  0
  4  3  2  0
  3  2  1  0
  2  1  2  0
 13  2  1  0
 14 13  1  0
 15 14  1  0
 16 15  1  0
 16 20  1  0
 20 19  2  0
 19 18  1  0
 18 17  2  0
 17 16  1  0
  5  3  1  0
  5 10  2  0
 10  9  1  0
  9  8  2  0
  8  7  1  0
  7  6  2  0
  6  5  1  0
 11  6  1  0
M  END
>  <id>  (144) 
144

>  <inchikey>  (144) 
UIOOLKZMABSWFR-UHFFFAOYSA-N

>  <alias>  (144) 
A3181a

>  <smiles>  (144) 
Cn1nc(C(=O)NCCn2cncn2)c2ccccc21

>  <path>  (144) 
/opt/xchem-fragalysis-2/maxwin/BulkDock/TARGETS/A71EV2A/aligned_files/A3181a/A3181a.pdb

>  <distance_score>  (144) 
None

>  <energy_score>  (144) 
None

>  <compound>  (144) 
UIOOLKZMABSWFR-UHFFFAOYSA-N

>  <compound_id>  (144) 
114

>  <target>  (144) 
A71EV2A

>  <tags>  (144) 
['GOOD count', 'MEDIOCRE count', '[Other] S1 site', 'hits', '[Other] S2 site', '[Other] P3 compound design', '[Other] upload_1 2024-12-06', 'Main status', '[Other] New', '[Series] Indazole series', 'BAD count']

>  <inspirations>  (144) 
None

>  <subsites>  (144) 
None

>  <reference>  (144) 


>  <observation_longname>  (144) 
A71EV2A-x3181_A_201_v1

>  <ConformerSites alias>  (144) 
1b - A0911/A/147

>  <CanonSites alias>  (144) 
1 - Active Site

>  <CrystalformSites alias>  (144) 
F1a - A0375/A/201

>  <Quatassemblies alias>  (144) 
A1 - monomer

>  <Crystalforms alias>  (144) 
F1 - A71_2A_open

>  <ConformerSites upload name>  (144) 
1b - A71EV2A-x0911/A/147

>  <CanonSites upload name>  (144) 
1 - A71EV2A-x0911/A/147/1

>  <CrystalformSites upload name>  (144) 
F1a - A71EV2A-x0375/A/201/1

>  <Quatassemblies upload name>  (144) 
A1 - monomer

>  <Crystalforms upload name>  (144) 
F1 - A71_2A_open

>  <ConformerSites short tag>  (144) 
1b - A0911/A/147

>  <CanonSites short tag>  (144) 
1 - A0911/A/147/1

>  <CrystalformSites short tag>  (144) 
F1a - A0375/A/201

>  <Quatassemblies short tag>  (144) 
A1 - monomer

>  <Crystalforms short tag>  (144) 
F1 - A71_2A_open

>  <Centroid res>  (144) 
A71EV2A-x0911/A/133/A_v1

>  <Experiment code>  (144) 
A71EV2A-x3181

>  <Pose>  (144) 
A3181a

$$$$
A3181b
     RDKit          3D

 20 22  0  0  0  0  0  0  0  0999 V2000
   23.4590   19.8740   22.7410 O   0  0  0  0  0  0  0  0  0  0  0  0
   22.8550   20.5390   21.8860 C   0  0  0  0  0  0  0  0  0  0  0  0
   23.5570   21.0260   20.6620 C   0  0  0  0  0  0  0  0  0  0  0  0
   22.8780   21.5940   19.6670 N   0  0  0  0  0  0  0  0  0  0  0  0
   24.9660   20.9970   20.3710 C   0  0  0  0  0  0  0  0  0  0  0  0
   25.0760   21.6090   19.1150 C   0  0  0  0  0  0  0  0  0  0  0  0
   26.3130   21.8050   18.5060 C   0  0  0  0  0  0  0  0  0  0  0  0
   27.4470   21.3750   19.1730 C   0  0  0  0  0  0  0  0  0  0  0  0
   27.3570   20.7630   20.4180 C   0  0  0  0  0  0  0  0  0  0  0  0
   26.1150   20.5690   21.0230 C   0  0  0  0  0  0  0  0  0  0  0  0
   23.8090   21.9500   18.7320 N   0  0  0  0  0  0  0  0  0  0  0  0
   23.3800   22.5880   17.4930 C   0  0  0  0  0  0  0  0  0  0  0  0
   21.5750   20.9220   22.0040 N   0  0  0  0  0  0  0  0  0  0  0  0
   20.7060   20.3650   23.0390 C   0  0  0  0  0  0  0  0  0  0  0  0
   20.1270   19.0250   22.5420 C   0  0  0  0  0  0  0  0  0  0  0  0
   19.2540   19.2460   21.3920 N   0  0  0  0  0  0  0  0  0  0  0  0
   19.7310   19.2830   20.1230 N   0  0  0  0  0  0  0  0  0  0  0  0
   18.6340   19.4550   19.4180 C   0  0  0  0  0  0  0  0  0  0  0  0
   17.4980   19.5600   20.1420 N   0  0  0  0  0  0  0  0  0  0  0  0
   17.9370   19.4210   21.3740 C   0  0  0  0  0  0  0  0  0  0  0  0
 12 11  1  0
 11  4  1  0
  4  3  2  0
  3  2  1  0
  2  1  2  0
 13  2  1  0
 14 13  1  0
 15 14  1  0
 16 15  1  0
 16 20  1  0
 20 19  2  0
 19 18  1  0
 18 17  2  0
 17 16  1  0
  5  3  1  0
  5 10  2  0
 10  9  1  0
  9  8  2  0
  8  7  1  0
  7  6  2  0
  6  5  1  0
 11  6  1  0
M  END
>  <id>  (145) 
145

>  <inchikey>  (145) 
UIOOLKZMABSWFR-UHFFFAOYSA-N

>  <alias>  (145) 
A3181b

>  <smiles>  (145) 
Cn1nc(C(=O)NCCn2cncn2)c2ccccc21

>  <path>  (145) 
/opt/xchem-fragalysis-2/maxwin/BulkDock/TARGETS/A71EV2A/aligned_files/A3181b/A3181b.pdb

>  <distance_score>  (145) 
None

>  <energy_score>  (145) 
None

>  <compound>  (145) 
UIOOLKZMABSWFR-UHFFFAOYSA-N

>  <compound_id>  (145) 
114

>  <target>  (145) 
A71EV2A

>  <tags>  (145) 
['GOOD count', 'MEDIOCRE count', 'hits', '[Other] upload_1 2024-12-06', 'Main status', '[Other] New', '[Other] upload_1 2025-02-12', 'BAD count']

>  <inspirations>  (145) 
None

>  <subsites>  (145) 
None

>  <reference>  (145) 


>  <observation_longname>  (145) 
A71EV2A-x3181_A_202_v1

>  <ConformerSites alias>  (145) 
5a - A3181/A/202

>  <CanonSites alias>  (145) 
5 - A3181/A/202/1

>  <CrystalformSites alias>  (145) 
F1ab - A3181/A/202

>  <Quatassemblies alias>  (145) 
A1 - monomer

>  <Crystalforms alias>  (145) 
F1 - A71_2A_open

>  <ConformerSites upload name>  (145) 
5a - A71EV2A-x3181/A/202

>  <CanonSites upload name>  (145) 
5 - A71EV2A-x3181/A/202/1

>  <CrystalformSites upload name>  (145) 
F1ab - A71EV2A-x3181/A/202/1

>  <Quatassemblies upload name>  (145) 
A1 - monomer

>  <Crystalforms upload name>  (145) 
F1 - A71_2A_open

>  <ConformerSites short tag>  (145) 
5a - A3181/A/202

>  <CanonSites short tag>  (145) 
5 - A3181/A/202/1

>  <CrystalformSites short tag>  (145) 
F1ab - A3181/A/202

>  <Quatassemblies short tag>  (145) 
A1 - monomer

>  <Crystalforms short tag>  (145) 
F1 - A71_2A_open

>  <Centroid res>  (145) 
A71EV2A-x3181/A/20/A_v1

>  <Experiment code>  (145) 
A71EV2A-x3181

>  <Pose>  (145) 
A3181b

$$$$
A3186a
     RDKit          3D

 20 21  0  0  0  0  0  0  0  0999 V2000
   10.4420   16.8590   19.2070 O   0  0  0  0  0  0  0  0  0  0  0  0
   10.6280   15.6530   19.3820 C   0  0  0  0  0  0  0  0  0  0  0  0
   10.7590   14.7950   18.3880 N   0  0  0  0  0  0  0  0  0  0  0  0
   10.7620   15.0740   20.7800 C   0  0  1  0  0  0  0  0  0  0  0  0
   11.9130   15.7360   21.5360 C   0  0  0  0  0  0  0  0  0  0  0  0
   12.1080   15.0700   22.8940 C   0  0  0  0  0  0  0  0  0  0  0  0
   10.8440   15.1700   23.6990 C   0  0  0  0  0  0  0  0  0  0  0  0
    9.5290   15.3020   21.6510 C   0  0  0  0  0  0  0  0  0  0  0  0
    9.7030   14.6390   22.9450 N   0  0  0  0  0  0  0  0  0  0  0  0
    8.8690   13.6660   23.3730 C   0  0  0  0  0  0  0  0  0  0  0  0
    7.9930   13.1990   22.6610 O   0  0  0  0  0  0  0  0  0  0  0  0
    9.0680   13.1850   24.7990 C   0  0  0  0  0  0  0  0  0  0  0  0
    8.0380   12.1620   25.2180 C   0  0  0  0  0  0  0  0  0  0  0  0
    8.0020   10.8950   24.6310 C   0  0  0  0  0  0  0  0  0  0  0  0
    8.9020   10.6940   23.6200 O   0  0  0  0  0  0  0  0  0  0  0  0
    9.6830    9.5050   23.6490 C   0  0  0  0  0  0  0  0  0  0  0  0
    7.1000   12.4570   26.2040 C   0  0  0  0  0  0  0  0  0  0  0  0
    6.1530   11.5270   26.5860 C   0  0  0  0  0  0  0  0  0  0  0  0
    6.1250   10.2900   25.9970 C   0  0  0  0  0  0  0  0  0  0  0  0
    7.0540    9.9590   25.0220 C   0  0  0  0  0  0  0  0  0  0  0  0
 16 15  1  0
 15 14  1  0
 14 20  2  0
 20 19  1  0
 19 18  2  0
 18 17  1  0
 17 13  2  0
 14 13  1  0
 13 12  1  0
 12 10  1  0
 11 10  2  0
 10  9  1  0
  9  7  1  0
  7  6  1  0
  6  5  1  0
  5  4  1  0
  4  2  1  6
  3  2  1  0
  2  1  2  0
  8  4  1  0
  9  8  1  0
M  END
>  <id>  (146) 
146

>  <inchikey>  (146) 
OPWHNDXSBIGKDG-LBPRGKRZSA-N

>  <alias>  (146) 
A3186a

>  <smiles>  (146) 
COc1ccccc1CC(=O)N1CCC[C@H](C(N)=O)C1

>  <path>  (146) 
/opt/xchem-fragalysis-2/maxwin/BulkDock/TARGETS/A71EV2A/aligned_files/A3186a/A3186a.pdb

>  <distance_score>  (146) 
None

>  <energy_score>  (146) 
None

>  <compound>  (146) 
OPWHNDXSBIGKDG-UHFFFAOYSA-N

>  <compound_id>  (146) 
115

>  <target>  (146) 
A71EV2A

>  <tags>  (146) 
['GOOD count', 'MEDIOCRE count', '[Other] S1 site', 'hits', '[Other] S2 site', '[Other] P3 compound design', '[Other] upload_1 2024-12-06', 'Main status', '[Series] Piperidine series', 'BAD count']

>  <inspirations>  (146) 
None

>  <subsites>  (146) 
None

>  <reference>  (146) 


>  <observation_longname>  (146) 
A71EV2A-x3186_D_245_v1

>  <ConformerSites alias>  (146) 
1b - A0911/A/147

>  <CanonSites alias>  (146) 
1 - Active Site

>  <CrystalformSites alias>  (146) 
F8h - A0884/A/147

>  <Quatassemblies alias>  (146) 
A1 - monomer

>  <Crystalforms alias>  (146) 
F8 - A712A_x4271_2.1_refmac1_1st_ref

>  <ConformerSites upload name>  (146) 
1b - A71EV2A-x0911/A/147

>  <CanonSites upload name>  (146) 
1 - A71EV2A-x0911/A/147/1

>  <CrystalformSites upload name>  (146) 
F8h - A71EV2A-x0884/A/147/1

>  <Quatassemblies upload name>  (146) 
A1 - monomer

>  <Crystalforms upload name>  (146) 
F8 - A712A_x4271_2.1_refmac1_1st_ref

>  <ConformerSites short tag>  (146) 
1b - A0911/A/147

>  <CanonSites short tag>  (146) 
1 - A0911/A/147/1

>  <CrystalformSites short tag>  (146) 
F8h - A0884/A/147

>  <Quatassemblies short tag>  (146) 
A1 - monomer

>  <Crystalforms short tag>  (146) 
F8 - A712A_x4271_2.1_refmac1_1st_ref

>  <Centroid res>  (146) 
A71EV2A-x0911/A/133/A_v1

>  <Experiment code>  (146) 
A71EV2A-x3186

>  <Pose>  (146) 
A3186a

$$$$
A3188a
     RDKit          3D

 22 24  0  0  0  0  0  0  0  0999 V2000
   10.3860   16.7120   19.0700 O   0  0  0  0  0  0  0  0  0  0  0  0
   10.8220   15.5840   19.3160 C   0  0  0  0  0  0  0  0  0  0  0  0
   11.2310   14.7450   18.3760 N   0  0  0  0  0  0  0  0  0  0  0  0
   10.8990   15.0680   20.7430 C   0  0  1  0  0  0  0  0  0  0  0  0
   11.9300   15.8560   21.5620 C   0  0  0  0  0  0  0  0  0  0  0  0
   12.0100   15.3240   22.9890 C   0  0  0  0  0  0  0  0  0  0  0  0
   10.6450   15.4010   23.6520 C   0  0  0  0  0  0  0  0  0  0  0  0
    9.5320   15.1530   21.4320 C   0  0  0  0  0  0  0  0  0  0  0  0
    9.6060   14.7400   22.8380 N   0  0  0  0  0  0  0  0  0  0  0  0
    8.6810   13.8980   23.3540 C   0  0  0  0  0  0  0  0  0  0  0  0
    7.8150   13.3800   22.6590 O   0  0  0  0  0  0  0  0  0  0  0  0
    8.7120   13.6780   24.8570 C   0  0  0  0  0  0  0  0  0  0  0  0
    7.9630   12.4310   25.2660 C   0  0  0  0  0  0  0  0  0  0  0  0
    6.9360   12.5030   26.2090 C   0  0  0  0  0  0  0  0  0  0  0  0
    6.2510   11.3710   26.6170 C   0  0  0  0  0  0  0  0  0  0  0  0
    6.5610   10.1320   26.0840 C   0  0  0  0  0  0  0  0  0  0  0  0
    7.5870   10.0150   25.1310 C   0  0  0  0  0  0  0  0  0  0  0  0
    8.2940   11.1680   24.7300 C   0  0  0  0  0  0  0  0  0  0  0  0
    9.2740   10.6880   23.8090 C   0  0  0  0  0  0  0  0  0  0  0  0
    8.0610    8.8800   24.5060 N   0  0  0  0  0  0  0  0  0  0  0  0
    9.0850    9.3660   23.7400 N   0  0  0  0  0  0  0  0  0  0  0  0
    9.9320    8.4480   22.9810 C   0  0  0  0  0  0  0  0  0  0  0  0
 22 21  1  0
 21 19  1  0
 19 18  2  0
 18 13  1  0
 13 12  1  0
 12 10  1  0
 11 10  2  0
 10  9  1  0
  9  7  1  0
  7  6  1  0
  6  5  1  0
  5  4  1  0
  4  2  1  6
  3  2  1  0
  2  1  2  0
  8  4  1  0
  9  8  1  0
 14 13  2  0
 15 14  1  0
 16 15  2  0
 17 16  1  0
 18 17  1  0
 20 17  2  0
 21 20  1  0
M  END
>  <id>  (147) 
147

>  <inchikey>  (147) 
GWEIDNCYZCGNCA-LBPRGKRZSA-N

>  <alias>  (147) 
A3188a

>  <smiles>  (147) 
Cn1cc2c(CC(=O)N3CCC[C@H](C(N)=O)C3)cccc2n1

>  <path>  (147) 
/opt/xchem-fragalysis-2/maxwin/BulkDock/TARGETS/A71EV2A/aligned_files/A3188a/A3188a.pdb

>  <distance_score>  (147) 
None

>  <energy_score>  (147) 
None

>  <compound>  (147) 
GWEIDNCYZCGNCA-UHFFFAOYSA-N

>  <compound_id>  (147) 
116

>  <target>  (147) 
A71EV2A

>  <tags>  (147) 
['GOOD count', 'MEDIOCRE count', '[Other] S1 site', 'hits', '[Other] S2 site', '[Other] P3 compound design', '[Other] upload_1 2024-12-06', 'Main status', '[Series] Piperidine series', 'BAD count']

>  <inspirations>  (147) 
None

>  <subsites>  (147) 
None

>  <reference>  (147) 


>  <observation_longname>  (147) 
A71EV2A-x3188_A_201_v1

>  <ConformerSites alias>  (147) 
1b - A0911/A/147

>  <CanonSites alias>  (147) 
1 - Active Site

>  <CrystalformSites alias>  (147) 
F8h - A0884/A/147

>  <Quatassemblies alias>  (147) 
A1 - monomer

>  <Crystalforms alias>  (147) 
F8 - A712A_x4271_2.1_refmac1_1st_ref

>  <ConformerSites upload name>  (147) 
1b - A71EV2A-x0911/A/147

>  <CanonSites upload name>  (147) 
1 - A71EV2A-x0911/A/147/1

>  <CrystalformSites upload name>  (147) 
F8h - A71EV2A-x0884/A/147/1

>  <Quatassemblies upload name>  (147) 
A1 - monomer

>  <Crystalforms upload name>  (147) 
F8 - A712A_x4271_2.1_refmac1_1st_ref

>  <ConformerSites short tag>  (147) 
1b - A0911/A/147

>  <CanonSites short tag>  (147) 
1 - A0911/A/147/1

>  <CrystalformSites short tag>  (147) 
F8h - A0884/A/147

>  <Quatassemblies short tag>  (147) 
A1 - monomer

>  <Crystalforms short tag>  (147) 
F8 - A712A_x4271_2.1_refmac1_1st_ref

>  <Centroid res>  (147) 
A71EV2A-x0911/A/133/A_v1

>  <Experiment code>  (147) 
A71EV2A-x3188

>  <Pose>  (147) 
A3188a

$$$$
A3189a
     RDKit          3D

 22 24  0  0  0  0  0  0  0  0999 V2000
   10.5290   16.6330   19.1640 O   0  0  0  0  0  0  0  0  0  0  0  0
   10.9410   15.4970   19.3970 C   0  0  0  0  0  0  0  0  0  0  0  0
   11.3960   14.6930   18.4510 N   0  0  0  0  0  0  0  0  0  0  0  0
   10.9770   14.9520   20.8140 C   0  0  1  0  0  0  0  0  0  0  0  0
   12.1160   15.6030   21.6150 C   0  0  0  0  0  0  0  0  0  0  0  0
   12.1300   15.1350   23.0690 C   0  0  0  0  0  0  0  0  0  0  0  0
   10.7840   15.3830   23.7180 C   0  0  0  0  0  0  0  0  0  0  0  0
    9.6470   15.2170   21.5290 C   0  0  0  0  0  0  0  0  0  0  0  0
    9.7040   14.7730   22.9270 N   0  0  0  0  0  0  0  0  0  0  0  0
    8.7890   13.9150   23.4320 C   0  0  0  0  0  0  0  0  0  0  0  0
    7.9920   13.3200   22.7150 O   0  0  0  0  0  0  0  0  0  0  0  0
    8.7640   13.7410   24.9390 C   0  0  0  0  0  0  0  0  0  0  0  0
    8.0210   12.4910   25.3480 C   0  0  0  0  0  0  0  0  0  0  0  0
    6.9810   12.5640   26.2740 C   0  0  0  0  0  0  0  0  0  0  0  0
    6.2900   11.4320   26.6750 C   0  0  0  0  0  0  0  0  0  0  0  0
    6.6140   10.1920   26.1530 C   0  0  0  0  0  0  0  0  0  0  0  0
    7.6520   10.0790   25.2140 C   0  0  0  0  0  0  0  0  0  0  0  0
    8.3570   11.2270   24.8150 C   0  0  0  0  0  0  0  0  0  0  0  0
    9.3450   10.7410   23.8870 C   0  0  0  0  0  0  0  0  0  0  0  0
    8.1360    8.9600   24.5950 N   0  0  0  0  0  0  0  0  0  0  0  0
    9.1550    9.4210   23.8150 N   0  0  0  0  0  0  0  0  0  0  0  0
    9.9140    8.4780   22.9950 C   0  0  0  0  0  0  0  0  0  0  0  0
 22 21  1  0
 21 19  1  0
 19 18  2  0
 18 13  1  0
 13 12  1  0
 12 10  1  0
 11 10  2  0
 10  9  1  0
  9  7  1  0
  7  6  1  0
  6  5  1  0
  5  4  1  0
  4  2  1  6
  3  2  1  0
  2  1  2  0
  8  4  1  0
  9  8  1  0
 14 13  2  0
 15 14  1  0
 16 15  2  0
 17 16  1  0
 18 17  1  0
 20 17  2  0
 21 20  1  0
M  END
>  <id>  (148) 
148

>  <inchikey>  (148) 
GWEIDNCYZCGNCA-LBPRGKRZSA-N

>  <alias>  (148) 
A3189a

>  <smiles>  (148) 
Cn1cc2c(CC(=O)N3CCC[C@H](C(N)=O)C3)cccc2n1

>  <path>  (148) 
/opt/xchem-fragalysis-2/maxwin/BulkDock/TARGETS/A71EV2A/aligned_files/A3189a/A3189a.pdb

>  <distance_score>  (148) 
None

>  <energy_score>  (148) 
None

>  <compound>  (148) 
GWEIDNCYZCGNCA-UHFFFAOYSA-N

>  <compound_id>  (148) 
116

>  <target>  (148) 
A71EV2A

>  <tags>  (148) 
['GOOD count', 'MEDIOCRE count', '[Other] S1 site', 'hits', '[Other] S2 site', '[Other] P3 compound design', '[Other] upload_1 2024-12-06', 'Main status', '[Other] New', '[Series] Piperidine series', 'BAD count']

>  <inspirations>  (148) 
None

>  <subsites>  (148) 
None

>  <reference>  (148) 


>  <observation_longname>  (148) 
A71EV2A-x3189_A_201_v1

>  <ConformerSites alias>  (148) 
1b - A0911/A/147

>  <CanonSites alias>  (148) 
1 - Active Site

>  <CrystalformSites alias>  (148) 
F8h - A0884/A/147

>  <Quatassemblies alias>  (148) 
A1 - monomer

>  <Crystalforms alias>  (148) 
F8 - A712A_x4271_2.1_refmac1_1st_ref

>  <ConformerSites upload name>  (148) 
1b - A71EV2A-x0911/A/147

>  <CanonSites upload name>  (148) 
1 - A71EV2A-x0911/A/147/1

>  <CrystalformSites upload name>  (148) 
F8h - A71EV2A-x0884/A/147/1

>  <Quatassemblies upload name>  (148) 
A1 - monomer

>  <Crystalforms upload name>  (148) 
F8 - A712A_x4271_2.1_refmac1_1st_ref

>  <ConformerSites short tag>  (148) 
1b - A0911/A/147

>  <CanonSites short tag>  (148) 
1 - A0911/A/147/1

>  <CrystalformSites short tag>  (148) 
F8h - A0884/A/147

>  <Quatassemblies short tag>  (148) 
A1 - monomer

>  <Crystalforms short tag>  (148) 
F8 - A712A_x4271_2.1_refmac1_1st_ref

>  <Centroid res>  (148) 
A71EV2A-x0911/A/133/A_v1

>  <Experiment code>  (148) 
A71EV2A-x3189

>  <Pose>  (148) 
A3189a

$$$$
A3191a
     RDKit          3D

 21 23  0  0  0  0  0  0  0  0999 V2000
    7.8510   13.4760   22.5870 O   0  0  0  0  0  0  0  0  0  0  0  0
    8.6660   13.9930   23.3360 C   0  0  0  0  0  0  0  0  0  0  0  0
    9.5300   14.9410   22.9040 N   0  0  0  0  0  0  0  0  0  0  0  0
   10.5240   15.6350   23.7390 C   0  0  0  0  0  0  0  0  0  0  0  0
   11.9130   15.5240   23.1370 C   0  0  0  0  0  0  0  0  0  0  0  0
   11.9150   15.9340   21.6620 C   0  0  0  0  0  0  0  0  0  0  0  0
    9.4840   15.4130   21.5180 C   0  0  0  0  0  0  0  0  0  0  0  0
   10.8400   15.1950   20.8480 C   0  0  1  0  0  0  0  0  0  0  0  0
   10.7980   15.6860   19.4110 C   0  0  0  0  0  0  0  0  0  0  0  0
   10.5230   16.8650   19.1420 O   0  0  0  0  0  0  0  0  0  0  0  0
   11.0960   14.7880   18.4900 N   0  0  0  0  0  0  0  0  0  0  0  0
    8.7110   13.6410   24.8140 C   0  0  0  0  0  0  0  0  0  0  0  0
    8.1240   12.2750   25.0900 C   0  0  0  0  0  0  0  0  0  0  0  0
    8.5910   11.1240   24.4210 C   0  0  0  0  0  0  0  0  0  0  0  0
    9.6320   10.8080   23.4760 C   0  0  0  0  0  0  0  0  0  0  0  0
    9.5700    9.4940   23.2720 C   0  0  0  0  0  0  0  0  0  0  0  0
    8.5600    8.8990   24.0000 O   0  0  0  0  0  0  0  0  0  0  0  0
    7.9690    9.9160   24.7070 C   0  0  0  0  0  0  0  0  0  0  0  0
    6.9190    9.7750   25.5970 C   0  0  0  0  0  0  0  0  0  0  0  0
    6.4880   10.9070   26.2630 C   0  0  0  0  0  0  0  0  0  0  0  0
    7.0900   12.1340   26.0240 C   0  0  0  0  0  0  0  0  0  0  0  0
 11  9  1  0
 10  9  2  0
  8  9  1  6
  8  6  1  0
  6  5  1  0
  5  4  1  0
  4  3  1  0
  3  2  1  0
  2  1  2  0
 12  2  1  0
 13 12  1  0
 13 21  1  0
 21 20  2  0
 20 19  1  0
 19 18  2  0
 18 17  1  0
 17 16  1  0
 16 15  2  0
 15 14  1  0
 14 13  2  0
 18 14  1  0
  7  3  1  0
  8  7  1  0
M  END
>  <id>  (149) 
149

>  <inchikey>  (149) 
CRNUDQYYIFSPOP-LBPRGKRZSA-N

>  <alias>  (149) 
A3191a

>  <smiles>  (149) 
NC(=O)[C@H]1CCCN(C(=O)Cc2cccc3occc23)C1

>  <path>  (149) 
/opt/xchem-fragalysis-2/maxwin/BulkDock/TARGETS/A71EV2A/aligned_files/A3191a/A3191a.pdb

>  <distance_score>  (149) 
None

>  <energy_score>  (149) 
None

>  <compound>  (149) 
CRNUDQYYIFSPOP-UHFFFAOYSA-N

>  <compound_id>  (149) 
117

>  <target>  (149) 
A71EV2A

>  <tags>  (149) 
['GOOD count', 'MEDIOCRE count', '[Other] S1 site', 'hits', '[Other] S2 site', '[Other] P3 compound design', '[Other] upload_1 2024-12-06', 'Main status', '[Other] New', '[Series] Piperidine series', 'BAD count']

>  <inspirations>  (149) 
None

>  <subsites>  (149) 
None

>  <reference>  (149) 


>  <observation_longname>  (149) 
A71EV2A-x3191_A_201_v1

>  <ConformerSites alias>  (149) 
1b - A0911/A/147

>  <CanonSites alias>  (149) 
1 - Active Site

>  <CrystalformSites alias>  (149) 
F8h - A0884/A/147

>  <Quatassemblies alias>  (149) 
A1 - monomer

>  <Crystalforms alias>  (149) 
F8 - A712A_x4271_2.1_refmac1_1st_ref

>  <ConformerSites upload name>  (149) 
1b - A71EV2A-x0911/A/147

>  <CanonSites upload name>  (149) 
1 - A71EV2A-x0911/A/147/1

>  <CrystalformSites upload name>  (149) 
F8h - A71EV2A-x0884/A/147/1

>  <Quatassemblies upload name>  (149) 
A1 - monomer

>  <Crystalforms upload name>  (149) 
F8 - A712A_x4271_2.1_refmac1_1st_ref

>  <ConformerSites short tag>  (149) 
1b - A0911/A/147

>  <CanonSites short tag>  (149) 
1 - A0911/A/147/1

>  <CrystalformSites short tag>  (149) 
F8h - A0884/A/147

>  <Quatassemblies short tag>  (149) 
A1 - monomer

>  <Crystalforms short tag>  (149) 
F8 - A712A_x4271_2.1_refmac1_1st_ref

>  <Centroid res>  (149) 
A71EV2A-x0911/A/133/A_v1

>  <Experiment code>  (149) 
A71EV2A-x3191

>  <Pose>  (149) 
A3191a

$$$$
A3193a
     RDKit          3D

 20 21  0  0  0  0  0  0  0  0999 V2000
   10.5820   11.1230   23.1700 Br  0  0  0  0  0  0  0  0  0  0  0  0
    9.0730   10.6640   24.2210 C   0  0  0  0  0  0  0  0  0  0  0  0
    8.7260    9.3280   24.4010 C   0  0  0  0  0  0  0  0  0  0  0  0
    9.5690    8.0880   23.5240 Cl  0  0  0  0  0  0  0  0  0  0  0  0
    7.8000    8.9160   25.2470 N   0  0  0  0  0  0  0  0  0  0  0  0
    7.1810    9.8590   25.9710 C   0  0  0  0  0  0  0  0  0  0  0  0
    7.4440   11.2090   25.8600 C   0  0  0  0  0  0  0  0  0  0  0  0
    8.4040   11.6490   24.9540 C   0  0  0  0  0  0  0  0  0  0  0  0
    8.7000   13.1280   24.8370 C   0  0  0  0  0  0  0  0  0  0  0  0
    8.5410   13.6520   23.4210 C   0  0  0  0  0  0  0  0  0  0  0  0
    7.7190   13.1710   22.6570 O   0  0  0  0  0  0  0  0  0  0  0  0
    9.3660   14.6550   23.0460 N   0  0  0  0  0  0  0  0  0  0  0  0
   10.4070   15.2710   23.8830 C   0  0  0  0  0  0  0  0  0  0  0  0
   11.7790   15.1720   23.2140 C   0  0  0  0  0  0  0  0  0  0  0  0
   11.7340   15.6870   21.7720 C   0  0  0  0  0  0  0  0  0  0  0  0
    9.3040   15.2040   21.6870 C   0  0  0  0  0  0  0  0  0  0  0  0
   10.6350   14.9830   20.9620 C   0  0  1  0  0  0  0  0  0  0  0  0
   10.5470   15.5140   19.5400 C   0  0  0  0  0  0  0  0  0  0  0  0
   10.1700   16.6670   19.3140 O   0  0  0  0  0  0  0  0  0  0  0  0
   10.8610   14.6580   18.5800 N   0  0  0  0  0  0  0  0  0  0  0  0
 20 18  1  0
 19 18  2  0
 17 18  1  6
 17 15  1  0
 15 14  1  0
 14 13  1  0
 13 12  1  0
 12 10  1  0
 11 10  2  0
 10  9  1  0
  9  8  1  0
  8  7  2  0
  7  6  1  0
  6  5  2  0
  5  3  1  0
  4  3  1  0
  3  2  2  0
  8  2  1  0
  2  1  1  0
 16 12  1  0
 17 16  1  0
M  END
>  <id>  (150) 
150

>  <inchikey>  (150) 
AIIHQTSFOFCJLB-VIFPVBQESA-N

>  <alias>  (150) 
A3193a

>  <smiles>  (150) 
NC(=O)[C@H]1CCCN(C(=O)Cc2ccnc(Cl)c2Br)C1

>  <path>  (150) 
/opt/xchem-fragalysis-2/maxwin/BulkDock/TARGETS/A71EV2A/aligned_files/A3193a/A3193a.pdb

>  <distance_score>  (150) 
None

>  <energy_score>  (150) 
None

>  <compound>  (150) 
AIIHQTSFOFCJLB-UHFFFAOYSA-N

>  <compound_id>  (150) 
118

>  <target>  (150) 
A71EV2A

>  <tags>  (150) 
['GOOD count', 'MEDIOCRE count', '[Other] S1 site', 'hits', '[Other] S2 site', '[Other] P3 compound design', '[Other] upload_1 2024-12-06', 'Main status', '[Other] New', '[Series] Piperidine series', 'BAD count']

>  <inspirations>  (150) 
None

>  <subsites>  (150) 
None

>  <reference>  (150) 


>  <observation_longname>  (150) 
A71EV2A-x3193_A_201_v1

>  <ConformerSites alias>  (150) 
1b - A0911/A/147

>  <CanonSites alias>  (150) 
1 - Active Site

>  <CrystalformSites alias>  (150) 
F8h - A0884/A/147

>  <Quatassemblies alias>  (150) 
A1 - monomer

>  <Crystalforms alias>  (150) 
F8 - A712A_x4271_2.1_refmac1_1st_ref

>  <ConformerSites upload name>  (150) 
1b - A71EV2A-x0911/A/147

>  <CanonSites upload name>  (150) 
1 - A71EV2A-x0911/A/147/1

>  <CrystalformSites upload name>  (150) 
F8h - A71EV2A-x0884/A/147/1

>  <Quatassemblies upload name>  (150) 
A1 - monomer

>  <Crystalforms upload name>  (150) 
F8 - A712A_x4271_2.1_refmac1_1st_ref

>  <ConformerSites short tag>  (150) 
1b - A0911/A/147

>  <CanonSites short tag>  (150) 
1 - A0911/A/147/1

>  <CrystalformSites short tag>  (150) 
F8h - A0884/A/147

>  <Quatassemblies short tag>  (150) 
A1 - monomer

>  <Crystalforms short tag>  (150) 
F8 - A712A_x4271_2.1_refmac1_1st_ref

>  <Centroid res>  (150) 
A71EV2A-x0911/A/133/A_v1

>  <Experiment code>  (150) 
A71EV2A-x3193

>  <Pose>  (150) 
A3193a

$$$$
A3194a
     RDKit          3D

 19 20  0  0  0  0  0  0  0  0999 V2000
   10.4080   16.6580   19.1920 O   0  0  0  0  0  0  0  0  0  0  0  0
   10.7760   15.5040   19.4290 C   0  0  0  0  0  0  0  0  0  0  0  0
   11.1690   14.6690   18.4810 N   0  0  0  0  0  0  0  0  0  0  0  0
   10.7930   14.9600   20.8500 C   0  0  1  0  0  0  0  0  0  0  0  0
   11.9130   15.6040   21.6900 C   0  0  0  0  0  0  0  0  0  0  0  0
   11.8730   15.1260   23.1450 C   0  0  0  0  0  0  0  0  0  0  0  0
   10.4820   15.3340   23.7450 C   0  0  0  0  0  0  0  0  0  0  0  0
    9.4470   15.2410   21.5240 C   0  0  0  0  0  0  0  0  0  0  0  0
    9.4510   14.7170   22.8950 N   0  0  0  0  0  0  0  0  0  0  0  0
    8.5850   13.7510   23.2750 C   0  0  0  0  0  0  0  0  0  0  0  0
    7.7520   13.2810   22.5050 O   0  0  0  0  0  0  0  0  0  0  0  0
    8.6930   13.2480   24.7040 C   0  0  0  0  0  0  0  0  0  0  0  0
    8.4450   11.7560   24.7740 C   0  0  0  0  0  0  0  0  0  0  0  0
    9.1610   10.8810   23.9680 C   0  0  0  0  0  0  0  0  0  0  0  0
    7.4630   11.2210   25.5850 C   0  0  0  0  0  0  0  0  0  0  0  0
    7.2240    9.8600   25.5450 C   0  0  0  0  0  0  0  0  0  0  0  0
    7.9210    9.0110   24.7740 N   0  0  0  0  0  0  0  0  0  0  0  0
    8.8830    9.5230   23.9850 C   0  0  0  0  0  0  0  0  0  0  0  0
    9.6290    8.5660   23.1090 C   0  0  0  0  0  0  0  0  0  0  0  0
 19 18  1  0
 18 14  2  0
 14 13  1  0
 13 12  1  0
 12 10  1  0
 11 10  2  0
 10  9  1  0
  9  7  1  0
  7  6  1  0
  6  5  1  0
  5  4  1  0
  4  2  1  6
  3  2  1  0
  2  1  2  0
  8  4  1  0
  9  8  1  0
 15 13  2  0
 16 15  1  0
 17 16  2  0
 18 17  1  0
M  END
>  <id>  (151) 
151

>  <inchikey>  (151) 
MJQJNTRPVVBPCI-LBPRGKRZSA-N

>  <alias>  (151) 
A3194a

>  <smiles>  (151) 
Cc1cc(CC(=O)N2CCC[C@H](C(N)=O)C2)ccn1

>  <path>  (151) 
/opt/xchem-fragalysis-2/maxwin/BulkDock/TARGETS/A71EV2A/aligned_files/A3194a/A3194a.pdb

>  <distance_score>  (151) 
None

>  <energy_score>  (151) 
None

>  <compound>  (151) 
MJQJNTRPVVBPCI-UHFFFAOYSA-N

>  <compound_id>  (151) 
119

>  <target>  (151) 
A71EV2A

>  <tags>  (151) 
['GOOD count', 'MEDIOCRE count', '[Other] S1 site', 'hits', '[Other] S2 site', '[Other] P3 compound design', '[Other] upload_1 2024-12-06', 'Main status', '[Other] New', '[Series] Piperidine series', 'BAD count']

>  <inspirations>  (151) 
None

>  <subsites>  (151) 
None

>  <reference>  (151) 


>  <observation_longname>  (151) 
A71EV2A-x3194_A_201_v1

>  <ConformerSites alias>  (151) 
1b - A0911/A/147

>  <CanonSites alias>  (151) 
1 - Active Site

>  <CrystalformSites alias>  (151) 
F8h - A0884/A/147

>  <Quatassemblies alias>  (151) 
A1 - monomer

>  <Crystalforms alias>  (151) 
F8 - A712A_x4271_2.1_refmac1_1st_ref

>  <ConformerSites upload name>  (151) 
1b - A71EV2A-x0911/A/147

>  <CanonSites upload name>  (151) 
1 - A71EV2A-x0911/A/147/1

>  <CrystalformSites upload name>  (151) 
F8h - A71EV2A-x0884/A/147/1

>  <Quatassemblies upload name>  (151) 
A1 - monomer

>  <Crystalforms upload name>  (151) 
F8 - A712A_x4271_2.1_refmac1_1st_ref

>  <ConformerSites short tag>  (151) 
1b - A0911/A/147

>  <CanonSites short tag>  (151) 
1 - A0911/A/147/1

>  <CrystalformSites short tag>  (151) 
F8h - A0884/A/147

>  <Quatassemblies short tag>  (151) 
A1 - monomer

>  <Crystalforms short tag>  (151) 
F8 - A712A_x4271_2.1_refmac1_1st_ref

>  <Centroid res>  (151) 
A71EV2A-x0911/A/133/A_v1

>  <Experiment code>  (151) 
A71EV2A-x3194

>  <Pose>  (151) 
A3194a

$$$$
A3201a
     RDKit          3D

 20 21  0  0  0  0  0  0  0  0999 V2000
   10.1450   16.2400   19.3030 O   0  0  0  0  0  0  0  0  0  0  0  0
   10.6980   15.1570   19.5140 C   0  0  0  0  0  0  0  0  0  0  0  0
   11.1900   14.4010   18.5440 N   0  0  0  0  0  0  0  0  0  0  0  0
   10.8180   14.6010   20.9230 C   0  0  1  0  0  0  0  0  0  0  0  0
   12.0300   15.1940   21.6610 C   0  0  0  0  0  0  0  0  0  0  0  0
   12.1660   14.6120   23.0700 C   0  0  0  0  0  0  0  0  0  0  0  0
   10.8710   14.7630   23.8700 C   0  0  0  0  0  0  0  0  0  0  0  0
    9.5590   14.8570   21.7580 C   0  0  0  0  0  0  0  0  0  0  0  0
    9.6950   14.3020   23.1100 N   0  0  0  0  0  0  0  0  0  0  0  0
    8.7270   13.5030   23.6110 C   0  0  0  0  0  0  0  0  0  0  0  0
    7.6300   13.3960   23.0800 O   0  0  0  0  0  0  0  0  0  0  0  0
    9.0620   12.7000   24.8520 C   0  0  0  0  0  0  0  0  0  0  0  0
    9.0650   11.2240   24.5320 C   0  0  0  0  0  0  0  0  0  0  0  0
    8.0770   10.3100   24.9440 C   0  0  0  0  0  0  0  0  0  0  0  0
    7.1490   10.8180   25.7890 O   0  0  0  0  0  0  0  0  0  0  0  0
    6.2220    9.9100   26.3910 C   0  0  0  0  0  0  0  0  0  0  0  0
   10.0500   10.7140   23.6980 C   0  0  0  0  0  0  0  0  0  0  0  0
   10.0220    9.3930   23.3100 C   0  0  0  0  0  0  0  0  0  0  0  0
    9.0040    8.6050   23.7620 C   0  0  0  0  0  0  0  0  0  0  0  0
    8.0300    9.0410   24.5700 N   0  0  0  0  0  0  0  0  0  0  0  0
 16 15  1  0
 15 14  1  0
 14 20  2  0
 20 19  1  0
 19 18  2  0
 18 17  1  0
 17 13  2  0
 14 13  1  0
 13 12  1  0
 12 10  1  0
 11 10  2  0
 10  9  1  0
  9  7  1  0
  7  6  1  0
  6  5  1  0
  5  4  1  0
  4  2  1  6
  3  2  1  0
  2  1  2  0
  8  4  1  0
  9  8  1  0
M  END
>  <id>  (152) 
152

>  <inchikey>  (152) 
DPQNQDXNIINHJH-NSHDSACASA-N

>  <alias>  (152) 
A3201a

>  <smiles>  (152) 
COc1ncccc1CC(=O)N1CCC[C@H](C(N)=O)C1

>  <path>  (152) 
/opt/xchem-fragalysis-2/maxwin/BulkDock/TARGETS/A71EV2A/aligned_files/A3201a/A3201a.pdb

>  <distance_score>  (152) 
None

>  <energy_score>  (152) 
None

>  <compound>  (152) 
DPQNQDXNIINHJH-UHFFFAOYSA-N

>  <compound_id>  (152) 
120

>  <target>  (152) 
A71EV2A

>  <tags>  (152) 
['GOOD count', 'MEDIOCRE count', '[Other] S1 site', 'hits', '[Other] S2 site', '[Other] P3 compound design', '[Other] upload_1 2024-12-06', 'Main status', 'BAD count']

>  <inspirations>  (152) 
None

>  <subsites>  (152) 
None

>  <reference>  (152) 


>  <observation_longname>  (152) 
A71EV2A-x3201_A_201_v1

>  <ConformerSites alias>  (152) 
1b - A0911/A/147

>  <CanonSites alias>  (152) 
1 - Active Site

>  <CrystalformSites alias>  (152) 
F8h - A0884/A/147

>  <Quatassemblies alias>  (152) 
A1 - monomer

>  <Crystalforms alias>  (152) 
F8 - A712A_x4271_2.1_refmac1_1st_ref

>  <ConformerSites upload name>  (152) 
1b - A71EV2A-x0911/A/147

>  <CanonSites upload name>  (152) 
1 - A71EV2A-x0911/A/147/1

>  <CrystalformSites upload name>  (152) 
F8h - A71EV2A-x0884/A/147/1

>  <Quatassemblies upload name>  (152) 
A1 - monomer

>  <Crystalforms upload name>  (152) 
F8 - A712A_x4271_2.1_refmac1_1st_ref

>  <ConformerSites short tag>  (152) 
1b - A0911/A/147

>  <CanonSites short tag>  (152) 
1 - A0911/A/147/1

>  <CrystalformSites short tag>  (152) 
F8h - A0884/A/147

>  <Quatassemblies short tag>  (152) 
A1 - monomer

>  <Crystalforms short tag>  (152) 
F8 - A712A_x4271_2.1_refmac1_1st_ref

>  <Centroid res>  (152) 
A71EV2A-x0911/A/133/A_v1

>  <Experiment code>  (152) 
A71EV2A-x3201

>  <Pose>  (152) 
A3201a

$$$$
A3207a
     RDKit          3D

 19 20  0  0  0  0  0  0  0  0999 V2000
    7.8670   13.2600   22.5100 O   0  0  0  0  0  0  0  0  0  0  0  0
    8.7650   13.7120   23.2170 C   0  0  0  0  0  0  0  0  0  0  0  0
    9.5030   14.7790   22.8470 N   0  0  0  0  0  0  0  0  0  0  0  0
   10.5030   15.4670   23.6810 C   0  0  0  0  0  0  0  0  0  0  0  0
   11.8980   15.3280   23.0730 C   0  0  0  0  0  0  0  0  0  0  0  0
   11.9030   15.7520   21.5990 C   0  0  0  0  0  0  0  0  0  0  0  0
    9.4660   15.2780   21.4710 C   0  0  0  0  0  0  0  0  0  0  0  0
   10.8170   15.0140   20.7980 C   0  0  1  0  0  0  0  0  0  0  0  0
   10.7240   15.5090   19.3650 C   0  0  0  0  0  0  0  0  0  0  0  0
   10.3510   16.6550   19.1150 O   0  0  0  0  0  0  0  0  0  0  0  0
   10.9970   14.6210   18.4180 N   0  0  0  0  0  0  0  0  0  0  0  0
    9.1400   13.0660   24.5370 C   0  0  0  0  0  0  0  0  0  0  0  0
    8.7180   11.6180   24.5980 C   0  0  0  0  0  0  0  0  0  0  0  0
    7.7290   11.2140   25.4890 C   0  0  0  0  0  0  0  0  0  0  0  0
    7.3850    9.8630   25.5430 C   0  0  0  0  0  0  0  0  0  0  0  0
    6.4440    9.4250   26.3920 N   0  0  0  0  0  0  0  0  0  0  0  0
    7.9800    8.9320   24.7570 N   0  0  0  0  0  0  0  0  0  0  0  0
    8.9320    9.3480   23.9130 C   0  0  0  0  0  0  0  0  0  0  0  0
    9.3240   10.6610   23.8010 C   0  0  0  0  0  0  0  0  0  0  0  0
 11  9  1  0
 10  9  2  0
  8  9  1  6
  8  6  1  0
  6  5  1  0
  5  4  1  0
  4  3  1  0
  3  2  1  0
  2  1  2  0
 12  2  1  0
 13 12  1  0
 13 19  2  0
 19 18  1  0
 18 17  2  0
 17 15  1  0
 16 15  1  0
 15 14  2  0
 14 13  1  0
  7  3  1  0
  8  7  1  0
M  END
>  <id>  (153) 
153

>  <inchikey>  (153) 
MKGWZERGGHSXDY-JTQLQIEISA-N

>  <alias>  (153) 
A3207a

>  <smiles>  (153) 
NC(=O)[C@H]1CCCN(C(=O)Cc2ccnc(N)c2)C1

>  <path>  (153) 
/opt/xchem-fragalysis-2/maxwin/BulkDock/TARGETS/A71EV2A/aligned_files/A3207a/A3207a.pdb

>  <distance_score>  (153) 
None

>  <energy_score>  (153) 
None

>  <compound>  (153) 
MKGWZERGGHSXDY-UHFFFAOYSA-N

>  <compound_id>  (153) 
121

>  <target>  (153) 
A71EV2A

>  <tags>  (153) 
['GOOD count', 'MEDIOCRE count', '[Other] S1 site', 'hits', '[Other] S2 site', '[Other] P3 compound design', '[Other] upload_1 2024-12-06', 'Main status', '[Other] New', '[Series] Piperidine series', 'BAD count']

>  <inspirations>  (153) 
None

>  <subsites>  (153) 
None

>  <reference>  (153) 


>  <observation_longname>  (153) 
A71EV2A-x3207_A_201_v1

>  <ConformerSites alias>  (153) 
1b - A0911/A/147

>  <CanonSites alias>  (153) 
1 - Active Site

>  <CrystalformSites alias>  (153) 
F8h - A0884/A/147

>  <Quatassemblies alias>  (153) 
A1 - monomer

>  <Crystalforms alias>  (153) 
F8 - A712A_x4271_2.1_refmac1_1st_ref

>  <ConformerSites upload name>  (153) 
1b - A71EV2A-x0911/A/147

>  <CanonSites upload name>  (153) 
1 - A71EV2A-x0911/A/147/1

>  <CrystalformSites upload name>  (153) 
F8h - A71EV2A-x0884/A/147/1

>  <Quatassemblies upload name>  (153) 
A1 - monomer

>  <Crystalforms upload name>  (153) 
F8 - A712A_x4271_2.1_refmac1_1st_ref

>  <ConformerSites short tag>  (153) 
1b - A0911/A/147

>  <CanonSites short tag>  (153) 
1 - A0911/A/147/1

>  <CrystalformSites short tag>  (153) 
F8h - A0884/A/147

>  <Quatassemblies short tag>  (153) 
A1 - monomer

>  <Crystalforms short tag>  (153) 
F8 - A712A_x4271_2.1_refmac1_1st_ref

>  <Centroid res>  (153) 
A71EV2A-x0911/A/133/A_v1

>  <Experiment code>  (153) 
A71EV2A-x3207

>  <Pose>  (153) 
A3207a

$$$$
A3208a
     RDKit          3D

 23 24  0  0  0  0  0  0  0  0999 V2000
    9.4220   10.3180   23.4460 Cl  0  0  0  0  0  0  0  0  0  0  0  0
    8.1390   10.7170   24.5470 C   0  0  0  0  0  0  0  0  0  0  0  0
    7.2920    9.7090   24.9670 C   0  0  0  0  0  0  0  0  0  0  0  0
    6.2560    9.9990   25.8370 C   0  0  0  0  0  0  0  0  0  0  0  0
    6.0720   11.2970   26.3000 C   0  0  0  0  0  0  0  0  0  0  0  0
    5.0710   11.6100   27.3670 C   0  0  0  0  0  0  0  0  0  0  0  0
    5.5940   12.2970   28.3530 F   0  0  0  0  0  0  0  0  0  0  0  0
    4.6150   10.5330   27.9750 F   0  0  0  0  0  0  0  0  0  0  0  0
    4.0210   12.3330   26.9250 F   0  0  0  0  0  0  0  0  0  0  0  0
    6.9270   12.2940   25.8410 C   0  0  0  0  0  0  0  0  0  0  0  0
    7.9810   12.0300   24.9700 C   0  0  0  0  0  0  0  0  0  0  0  0
    8.9600   13.1180   24.6030 C   0  0  0  0  0  0  0  0  0  0  0  0
    8.6670   13.7040   23.2340 C   0  0  0  0  0  0  0  0  0  0  0  0
    7.7590   13.2790   22.5380 O   0  0  0  0  0  0  0  0  0  0  0  0
    9.4750   14.7050   22.8240 N   0  0  0  0  0  0  0  0  0  0  0  0
   10.5530   15.2860   23.6420 C   0  0  0  0  0  0  0  0  0  0  0  0
   11.8940   15.0660   22.9570 C   0  0  0  0  0  0  0  0  0  0  0  0
   11.8580   15.6340   21.5380 C   0  0  0  0  0  0  0  0  0  0  0  0
    9.3950   15.2250   21.4550 C   0  0  0  0  0  0  0  0  0  0  0  0
   10.7210   14.9830   20.7260 C   0  0  1  0  0  0  0  0  0  0  0  0
   10.6860   15.4780   19.2900 C   0  0  0  0  0  0  0  0  0  0  0  0
   10.3080   16.6230   19.0200 O   0  0  0  0  0  0  0  0  0  0  0  0
   11.0280   14.5890   18.3620 N   0  0  0  0  0  0  0  0  0  0  0  0
 23 21  1  0
 22 21  2  0
 20 21  1  6
 20 18  1  0
 18 17  1  0
 17 16  1  0
 16 15  1  0
 15 13  1  0
 14 13  2  0
 13 12  1  0
 12 11  1  0
 11 10  2  0
 10  5  1  0
  6  5  1  0
  9  6  1  0
  8  6  1  0
  7  6  1  0
  5  4  2  0
  4  3  1  0
  3  2  2  0
 11  2  1  0
  2  1  1  0
 19 15  1  0
 20 19  1  0
M  END
>  <id>  (154) 
154

>  <inchikey>  (154) 
PQWPTZNVERXTJW-VIFPVBQESA-N

>  <alias>  (154) 
A3208a

>  <smiles>  (154) 
NC(=O)[C@H]1CCCN(C(=O)Cc2cc(C(F)(F)F)ccc2Cl)C1

>  <path>  (154) 
/opt/xchem-fragalysis-2/maxwin/BulkDock/TARGETS/A71EV2A/aligned_files/A3208a/A3208a.pdb

>  <distance_score>  (154) 
None

>  <energy_score>  (154) 
None

>  <compound>  (154) 
PQWPTZNVERXTJW-UHFFFAOYSA-N

>  <compound_id>  (154) 
122

>  <target>  (154) 
A71EV2A

>  <tags>  (154) 
['GOOD count', 'MEDIOCRE count', '[Other] S1 site', 'hits', '[Other] S2 site', '[Other] P3 compound design', '[Other] upload_2 2024-12-12', 'Main status', '[Other] New', '[Series] Piperidine series', 'BAD count']

>  <inspirations>  (154) 
None

>  <subsites>  (154) 
None

>  <reference>  (154) 


>  <observation_longname>  (154) 
A71EV2A-x3208_A_201_v1

>  <ConformerSites alias>  (154) 
1b - A0911/A/147

>  <CanonSites alias>  (154) 
1 - Active Site

>  <CrystalformSites alias>  (154) 
F5i - A3175/A/201

>  <Quatassemblies alias>  (154) 
A1 - monomer

>  <Crystalforms alias>  (154) 
F5 - A71EV2A_x3178_new_long_dials_041024

>  <ConformerSites upload name>  (154) 
1b - A71EV2A-x0911/A/147

>  <CanonSites upload name>  (154) 
1 - A71EV2A-x0911/A/147/1

>  <CrystalformSites upload name>  (154) 
F5i - A71EV2A-x3175/A/201/1

>  <Quatassemblies upload name>  (154) 
A1 - monomer

>  <Crystalforms upload name>  (154) 
F5 - A71EV2A_x3178_new_long_dials_041024

>  <ConformerSites short tag>  (154) 
1b - A0911/A/147

>  <CanonSites short tag>  (154) 
1 - A0911/A/147/1

>  <CrystalformSites short tag>  (154) 
F5i - A3175/A/201

>  <Quatassemblies short tag>  (154) 
A1 - monomer

>  <Crystalforms short tag>  (154) 
F5 - A71EV2A_x3178_new_long_dials_041024

>  <Centroid res>  (154) 
A71EV2A-x0911/A/133/A_v1

>  <Experiment code>  (154) 
A71EV2A-x3208

>  <Pose>  (154) 
A3208a

$$$$
A3210a
     RDKit          3D

 21 23  0  0  0  0  0  0  0  0999 V2000
    7.8570   13.6280   22.5470 O   0  0  0  0  0  0  0  0  0  0  0  0
    8.6280   14.1490   23.3440 C   0  0  0  0  0  0  0  0  0  0  0  0
    9.4840   15.1260   22.9700 N   0  0  0  0  0  0  0  0  0  0  0  0
   10.5680   15.6980   23.7820 C   0  0  0  0  0  0  0  0  0  0  0  0
   11.9150   15.4770   23.1110 C   0  0  0  0  0  0  0  0  0  0  0  0
   11.8910   15.9070   21.6370 C   0  0  0  0  0  0  0  0  0  0  0  0
    9.4240   15.6950   21.6210 C   0  0  0  0  0  0  0  0  0  0  0  0
   10.6990   15.3140   20.8660 C   0  0  1  0  0  0  0  0  0  0  0  0
   10.6870   15.7710   19.4170 C   0  0  0  0  0  0  0  0  0  0  0  0
   10.4130   16.9390   19.1160 O   0  0  0  0  0  0  0  0  0  0  0  0
   10.9810   14.8460   18.5170 N   0  0  0  0  0  0  0  0  0  0  0  0
    8.6320   13.7410   24.8070 C   0  0  0  0  0  0  0  0  0  0  0  0
    8.0430   12.3620   25.0180 C   0  0  0  0  0  0  0  0  0  0  0  0
    8.5590   11.2340   24.3720 C   0  0  0  0  0  0  0  0  0  0  0  0
    9.6220   11.0870   23.5440 N   0  0  0  0  0  0  0  0  0  0  0  0
    9.8060    9.7810   23.1920 N   0  0  0  0  0  0  0  0  0  0  0  0
    8.8510    9.0990   23.7940 C   0  0  0  0  0  0  0  0  0  0  0  0
    8.0180    9.9470   24.5670 C   0  0  0  0  0  0  0  0  0  0  0  0
    6.9250    9.7980   25.4260 C   0  0  0  0  0  0  0  0  0  0  0  0
    6.4080   10.9070   26.0830 C   0  0  0  0  0  0  0  0  0  0  0  0
    6.9650   12.1650   25.8860 C   0  0  0  0  0  0  0  0  0  0  0  0
 11  9  1  0
 10  9  2  0
  8  9  1  6
  8  6  1  0
  6  5  1  0
  5  4  1  0
  4  3  1  0
  3  2  1  0
  2  1  2  0
 12  2  1  0
 13 12  1  0
 13 21  1  0
 21 20  2  0
 20 19  1  0
 19 18  2  0
 18 17  1  0
 17 16  2  0
 16 15  1  0
 15 14  1  0
 14 13  2  0
 18 14  1  0
  7  3  1  0
  8  7  1  0
M  END
>  <id>  (155) 
155

>  <inchikey>  (155) 
LGXQTWXKSGIVMI-LBPRGKRZSA-N

>  <alias>  (155) 
A3210a

>  <smiles>  (155) 
NC(=O)[C@H]1CCCN(C(=O)Cc2cccc3cn[nH]c23)C1

>  <path>  (155) 
/opt/xchem-fragalysis-2/maxwin/BulkDock/TARGETS/A71EV2A/aligned_files/A3210a/A3210a.pdb

>  <distance_score>  (155) 
None

>  <energy_score>  (155) 
None

>  <compound>  (155) 
LGXQTWXKSGIVMI-UHFFFAOYSA-N

>  <compound_id>  (155) 
123

>  <target>  (155) 
A71EV2A

>  <tags>  (155) 
['GOOD count', 'MEDIOCRE count', '[Other] S1 site', 'hits', '[Other] S2 site', '[Other] P3 compound design', '[Other] upload_2 2024-12-12', 'Main status', '[Other] New', '[Series] Piperidine series', 'BAD count']

>  <inspirations>  (155) 
None

>  <subsites>  (155) 
None

>  <reference>  (155) 


>  <observation_longname>  (155) 
A71EV2A-x3210_A_201_v1

>  <ConformerSites alias>  (155) 
1b - A0911/A/147

>  <CanonSites alias>  (155) 
1 - Active Site

>  <CrystalformSites alias>  (155) 
F8h - A0884/A/147

>  <Quatassemblies alias>  (155) 
A1 - monomer

>  <Crystalforms alias>  (155) 
F8 - A712A_x4271_2.1_refmac1_1st_ref

>  <ConformerSites upload name>  (155) 
1b - A71EV2A-x0911/A/147

>  <CanonSites upload name>  (155) 
1 - A71EV2A-x0911/A/147/1

>  <CrystalformSites upload name>  (155) 
F8h - A71EV2A-x0884/A/147/1

>  <Quatassemblies upload name>  (155) 
A1 - monomer

>  <Crystalforms upload name>  (155) 
F8 - A712A_x4271_2.1_refmac1_1st_ref

>  <ConformerSites short tag>  (155) 
1b - A0911/A/147

>  <CanonSites short tag>  (155) 
1 - A0911/A/147/1

>  <CrystalformSites short tag>  (155) 
F8h - A0884/A/147

>  <Quatassemblies short tag>  (155) 
A1 - monomer

>  <Crystalforms short tag>  (155) 
F8 - A712A_x4271_2.1_refmac1_1st_ref

>  <Centroid res>  (155) 
A71EV2A-x0911/A/133/A_v1

>  <Experiment code>  (155) 
A71EV2A-x3210

>  <Pose>  (155) 
A3210a

$$$$
A3218a
     RDKit          3D

 20 22  0  0  0  0  0  0  0  0999 V2000
    7.6270   13.2630   22.6570 O   0  0  0  0  0  0  0  0  0  0  0  0
    8.6100   13.5700   23.3090 C   0  0  0  0  0  0  0  0  0  0  0  0
    9.4100   14.5890   22.9400 N   0  0  0  0  0  0  0  0  0  0  0  0
   10.4220   15.2280   23.7970 C   0  0  0  0  0  0  0  0  0  0  0  0
   11.8010   15.1650   23.1530 C   0  0  0  0  0  0  0  0  0  0  0  0
   11.7510   15.6760   21.7090 C   0  0  0  0  0  0  0  0  0  0  0  0
    9.3430   15.1240   21.5780 C   0  0  0  0  0  0  0  0  0  0  0  0
   10.6930   14.9220   20.8930 C   0  0  1  0  0  0  0  0  0  0  0  0
   10.6120   15.4380   19.4680 C   0  0  0  0  0  0  0  0  0  0  0  0
   10.2950   16.6100   19.2310 O   0  0  0  0  0  0  0  0  0  0  0  0
   10.8830   14.5540   18.5210 N   0  0  0  0  0  0  0  0  0  0  0  0
    9.0780   12.6870   24.4560 C   0  0  1  0  0  0  0  0  0  0  0  0
    7.8880   12.1350   25.2210 C   0  0  0  0  0  0  0  0  0  0  0  0
    6.8510   12.6690   26.0150 C   0  0  0  0  0  0  0  0  0  0  0  0
    6.0560   11.7230   26.5080 N   0  0  0  0  0  0  0  0  0  0  0  0
    6.5730   10.5550   26.0250 N   0  0  0  0  0  0  0  0  0  0  0  0
    7.6470   10.7880   25.2660 C   0  0  0  0  0  0  0  0  0  0  0  0
    8.3650    9.9260   24.5800 N   0  0  0  0  0  0  0  0  0  0  0  0
    9.7850   10.2010   24.4180 C   0  0  0  0  0  0  0  0  0  0  0  0
   10.0110   11.5870   23.8520 C   0  0  0  0  0  0  0  0  0  0  0  0
 11  9  1  0
 10  9  2  0
  8  9  1  6
  8  6  1  0
  6  5  1  0
  5  4  1  0
  4  3  1  0
  3  2  1  0
  2  1  2  0
 12  2  1  6
 12 20  1  0
 20 19  1  0
 19 18  1  0
 18 17  1  0
 17 16  1  0
 16 15  1  0
 15 14  2  0
 14 13  1  0
 17 13  2  0
 13 12  1  0
  7  3  1  0
  8  7  1  0
M  END
>  <id>  (156) 
156

>  <inchikey>  (156) 
DUAFBFAQMMCFPO-DTWKUNHWSA-N

>  <alias>  (156) 
A3218a

>  <smiles>  (156) 
NC(=O)[C@H]1CCCN(C(=O)[C@@H]2CCNc3[nH]ncc32)C1

>  <path>  (156) 
/opt/xchem-fragalysis-2/maxwin/BulkDock/TARGETS/A71EV2A/aligned_files/A3218a/A3218a.pdb

>  <distance_score>  (156) 
None

>  <energy_score>  (156) 
None

>  <compound>  (156) 
DUAFBFAQMMCFPO-UHFFFAOYSA-N

>  <compound_id>  (156) 
124

>  <target>  (156) 
A71EV2A

>  <tags>  (156) 
['GOOD count', 'MEDIOCRE count', '[Other] S1 site', 'hits', '[Other] S2 site', '[Other] P3 compound design', '[Other] upload_2 2024-12-12', 'Main status', '[Other] New', '[Series] Piperidine series', 'BAD count']

>  <inspirations>  (156) 
None

>  <subsites>  (156) 
None

>  <reference>  (156) 


>  <observation_longname>  (156) 
A71EV2A-x3218_A_201_v1

>  <ConformerSites alias>  (156) 
1b - A0911/A/147

>  <CanonSites alias>  (156) 
1 - Active Site

>  <CrystalformSites alias>  (156) 
F8h - A0884/A/147

>  <Quatassemblies alias>  (156) 
A1 - monomer

>  <Crystalforms alias>  (156) 
F8 - A712A_x4271_2.1_refmac1_1st_ref

>  <ConformerSites upload name>  (156) 
1b - A71EV2A-x0911/A/147

>  <CanonSites upload name>  (156) 
1 - A71EV2A-x0911/A/147/1

>  <CrystalformSites upload name>  (156) 
F8h - A71EV2A-x0884/A/147/1

>  <Quatassemblies upload name>  (156) 
A1 - monomer

>  <Crystalforms upload name>  (156) 
F8 - A712A_x4271_2.1_refmac1_1st_ref

>  <ConformerSites short tag>  (156) 
1b - A0911/A/147

>  <CanonSites short tag>  (156) 
1 - A0911/A/147/1

>  <CrystalformSites short tag>  (156) 
F8h - A0884/A/147

>  <Quatassemblies short tag>  (156) 
A1 - monomer

>  <Crystalforms short tag>  (156) 
F8 - A712A_x4271_2.1_refmac1_1st_ref

>  <Centroid res>  (156) 
A71EV2A-x0911/A/133/A_v1

>  <Experiment code>  (156) 
A71EV2A-x3218

>  <Pose>  (156) 
A3218a

$$$$
A3221a
     RDKit          3D

 19 20  0  0  0  0  0  0  0  0999 V2000
   10.3650   16.4840   19.2370 O   0  0  0  0  0  0  0  0  0  0  0  0
   10.8290   15.3580   19.4470 C   0  0  0  0  0  0  0  0  0  0  0  0
   11.1310   14.5130   18.4720 N   0  0  0  0  0  0  0  0  0  0  0  0
   10.9980   14.8280   20.8600 C   0  0  1  0  0  0  0  0  0  0  0  0
   12.1330   15.5330   21.6270 C   0  0  0  0  0  0  0  0  0  0  0  0
   12.3000   14.9460   23.0340 C   0  0  0  0  0  0  0  0  0  0  0  0
   10.9730   14.9280   23.7930 C   0  0  0  0  0  0  0  0  0  0  0  0
    9.7090   14.9790   21.6730 C   0  0  0  0  0  0  0  0  0  0  0  0
    9.8960   14.3390   22.9760 N   0  0  0  0  0  0  0  0  0  0  0  0
    9.1490   13.2620   23.3090 C   0  0  0  0  0  0  0  0  0  0  0  0
    8.1560   12.9430   22.6750 O   0  0  0  0  0  0  0  0  0  0  0  0
    9.6410   12.4480   24.4920 C   0  0  0  0  0  0  0  0  0  0  0  0
    8.6940   11.3360   24.8330 C   0  0  0  0  0  0  0  0  0  0  0  0
    8.6630   10.0200   24.4990 C   0  0  0  0  0  0  0  0  0  0  0  0
    9.5410    9.2690   23.5500 C   0  0  0  0  0  0  0  0  0  0  0  0
    7.6470    9.3750   25.1780 N   0  0  0  0  0  0  0  0  0  0  0  0
    7.6640   11.5180   25.7200 N   0  0  0  0  0  0  0  0  0  0  0  0
    7.0580   10.3230   25.8950 C   0  0  0  0  0  0  0  0  0  0  0  0
    5.8210   10.1480   26.7150 C   0  0  0  0  0  0  0  0  0  0  0  0
 19 18  1  0
 18 16  2  0
 16 14  1  0
 15 14  1  0
 14 13  2  0
 13 12  1  0
 12 10  1  0
 11 10  2  0
 10  9  1  0
  9  7  1  0
  7  6  1  0
  6  5  1  0
  5  4  1  0
  4  2  1  6
  3  2  1  0
  2  1  2  0
  8  4  1  0
  9  8  1  0
 17 13  1  0
 18 17  1  0
M  END
>  <id>  (157) 
157

>  <inchikey>  (157) 
WUDFFWUBHSFYAN-JTQLQIEISA-N

>  <alias>  (157) 
A3221a

>  <smiles>  (157) 
Cc1nc(C)c(CC(=O)N2CCC[C@H](C(N)=O)C2)[nH]1

>  <path>  (157) 
/opt/xchem-fragalysis-2/maxwin/BulkDock/TARGETS/A71EV2A/aligned_files/A3221a/A3221a.pdb

>  <distance_score>  (157) 
None

>  <energy_score>  (157) 
None

>  <compound>  (157) 
WUDFFWUBHSFYAN-UHFFFAOYSA-N

>  <compound_id>  (157) 
125

>  <target>  (157) 
A71EV2A

>  <tags>  (157) 
['GOOD count', 'MEDIOCRE count', '[Other] S1 site', 'hits', '[Other] S2 site', '[Other] P3 compound design', '[Other] upload_2 2024-12-12', 'Main status', '[Other] New', '[Series] Piperidine series', 'BAD count']

>  <inspirations>  (157) 
None

>  <subsites>  (157) 
None

>  <reference>  (157) 


>  <observation_longname>  (157) 
A71EV2A-x3221_A_201_v1

>  <ConformerSites alias>  (157) 
1b - A0911/A/147

>  <CanonSites alias>  (157) 
1 - Active Site

>  <CrystalformSites alias>  (157) 
F8h - A0884/A/147

>  <Quatassemblies alias>  (157) 
A1 - monomer

>  <Crystalforms alias>  (157) 
F8 - A712A_x4271_2.1_refmac1_1st_ref

>  <ConformerSites upload name>  (157) 
1b - A71EV2A-x0911/A/147

>  <CanonSites upload name>  (157) 
1 - A71EV2A-x0911/A/147/1

>  <CrystalformSites upload name>  (157) 
F8h - A71EV2A-x0884/A/147/1

>  <Quatassemblies upload name>  (157) 
A1 - monomer

>  <Crystalforms upload name>  (157) 
F8 - A712A_x4271_2.1_refmac1_1st_ref

>  <ConformerSites short tag>  (157) 
1b - A0911/A/147

>  <CanonSites short tag>  (157) 
1 - A0911/A/147/1

>  <CrystalformSites short tag>  (157) 
F8h - A0884/A/147

>  <Quatassemblies short tag>  (157) 
A1 - monomer

>  <Crystalforms short tag>  (157) 
F8 - A712A_x4271_2.1_refmac1_1st_ref

>  <Centroid res>  (157) 
A71EV2A-x0911/A/133/A_v1

>  <Experiment code>  (157) 
A71EV2A-x3221

>  <Pose>  (157) 
A3221a

$$$$
A3222a
     RDKit          3D

 17 18  0  0  0  0  0  0  0  0999 V2000
    9.2430   10.1260   23.6500 Br  0  0  0  0  0  0  0  0  0  0  0  0
    7.9800   11.2440   24.4980 C   0  0  0  0  0  0  0  0  0  0  0  0
    7.3890   10.9970   25.7690 C   0  0  0  0  0  0  0  0  0  0  0  0
    6.4920   11.9300   26.0680 N   0  0  0  0  0  0  0  0  0  0  0  0
    6.4900   12.8040   25.0090 N   0  0  0  0  0  0  0  0  0  0  0  0
    7.3650   12.4500   24.0400 C   0  0  0  0  0  0  0  0  0  0  0  0
    7.5150   13.2700   22.7850 C   0  0  0  0  0  0  0  0  0  0  0  0
    6.6440   13.1700   21.9300 O   0  0  0  0  0  0  0  0  0  0  0  0
    8.5400   14.1240   22.6700 N   0  0  0  0  0  0  0  0  0  0  0  0
    9.5370   14.3660   23.7270 C   0  0  0  0  0  0  0  0  0  0  0  0
   10.9630   14.1940   23.2240 C   0  0  0  0  0  0  0  0  0  0  0  0
   11.1950   14.9960   21.9410 C   0  0  0  0  0  0  0  0  0  0  0  0
    8.7710   14.9570   21.4860 C   0  0  0  0  0  0  0  0  0  0  0  0
   10.1380   14.6210   20.8900 C   0  0  1  0  0  0  0  0  0  0  0  0
   10.4270   15.2540   19.5390 C   0  0  0  0  0  0  0  0  0  0  0  0
    9.9950   16.3750   19.2570 O   0  0  0  0  0  0  0  0  0  0  0  0
   11.1450   14.5220   18.6890 N   0  0  0  0  0  0  0  0  0  0  0  0
 17 15  1  0
 16 15  2  0
 14 15  1  6
 14 12  1  0
 12 11  1  0
 11 10  1  0
 10  9  1  0
  9  7  1  0
  8  7  2  0
  7  6  1  0
  6  5  1  0
  5  4  1  0
  4  3  2  0
  3  2  1  0
  6  2  2  0
  2  1  1  0
 13  9  1  0
 14 13  1  0
M  END
>  <id>  (158) 
158

>  <inchikey>  (158) 
UUCCVHLCPSLNLR-LURJTMIESA-N

>  <alias>  (158) 
A3222a

>  <smiles>  (158) 
NC(=O)[C@H]1CCCN(C(=O)c2[nH]ncc2Br)C1

>  <path>  (158) 
/opt/xchem-fragalysis-2/maxwin/BulkDock/TARGETS/A71EV2A/aligned_files/A3222a/A3222a.pdb

>  <distance_score>  (158) 
None

>  <energy_score>  (158) 
None

>  <compound>  (158) 
UUCCVHLCPSLNLR-UHFFFAOYSA-N

>  <compound_id>  (158) 
126

>  <target>  (158) 
A71EV2A

>  <tags>  (158) 
['GOOD count', 'MEDIOCRE count', '[Other] S1 site', 'hits', '[Other] S2 site', '[Other] P3 compound design', '[Other] upload_2 2024-12-12', 'Main status', '[Series] Piperidine series', 'BAD count']

>  <inspirations>  (158) 
None

>  <subsites>  (158) 
None

>  <reference>  (158) 


>  <observation_longname>  (158) 
A71EV2A-x3222_E_201_v1

>  <ConformerSites alias>  (158) 
1b - A0911/A/147

>  <CanonSites alias>  (158) 
1 - Active Site

>  <CrystalformSites alias>  (158) 
F5i - A3175/A/201

>  <Quatassemblies alias>  (158) 
A1 - monomer

>  <Crystalforms alias>  (158) 
F5 - A71EV2A_x3178_new_long_dials_041024

>  <ConformerSites upload name>  (158) 
1b - A71EV2A-x0911/A/147

>  <CanonSites upload name>  (158) 
1 - A71EV2A-x0911/A/147/1

>  <CrystalformSites upload name>  (158) 
F5i - A71EV2A-x3175/A/201/1

>  <Quatassemblies upload name>  (158) 
A1 - monomer

>  <Crystalforms upload name>  (158) 
F5 - A71EV2A_x3178_new_long_dials_041024

>  <ConformerSites short tag>  (158) 
1b - A0911/A/147

>  <CanonSites short tag>  (158) 
1 - A0911/A/147/1

>  <CrystalformSites short tag>  (158) 
F5i - A3175/A/201

>  <Quatassemblies short tag>  (158) 
A1 - monomer

>  <Crystalforms short tag>  (158) 
F5 - A71EV2A_x3178_new_long_dials_041024

>  <Centroid res>  (158) 
A71EV2A-x0911/A/133/A_v1

>  <Experiment code>  (158) 
A71EV2A-x3222

>  <Pose>  (158) 
A3222a

$$$$
A3223a
     RDKit          3D

 20 22  0  0  0  0  0  0  0  0999 V2000
    6.8440   13.2940   21.9920 O   0  0  0  0  0  0  0  0  0  0  0  0
    7.7380   13.4260   22.7950 C   0  0  0  0  0  0  0  0  0  0  0  0
    8.7250   14.3200   22.6300 N   0  0  0  0  0  0  0  0  0  0  0  0
    9.7430   14.6480   23.6460 C   0  0  0  0  0  0  0  0  0  0  0  0
   11.1600   14.5540   23.0930 C   0  0  0  0  0  0  0  0  0  0  0  0
   11.2950   15.3070   21.7700 C   0  0  0  0  0  0  0  0  0  0  0  0
    8.8860   15.1180   21.4120 C   0  0  0  0  0  0  0  0  0  0  0  0
   10.2370   14.7980   20.7790 C   0  0  1  0  0  0  0  0  0  0  0  0
   10.4280   15.3590   19.3810 C   0  0  0  0  0  0  0  0  0  0  0  0
   10.0390   16.4940   19.0880 O   0  0  0  0  0  0  0  0  0  0  0  0
   11.0220   14.5580   18.5070 N   0  0  0  0  0  0  0  0  0  0  0  0
    7.7110   12.5930   24.0460 C   0  0  0  0  0  0  0  0  0  0  0  0
    6.6440   12.6130   24.9660 C   0  0  0  0  0  0  0  0  0  0  0  0
    5.5010   13.3890   25.2840 C   0  0  0  0  0  0  0  0  0  0  0  0
    4.9010   12.9480   26.3740 N   0  0  0  0  0  0  0  0  0  0  0  0
    5.6160   11.8640   26.7940 N   0  0  0  0  0  0  0  0  0  0  0  0
    6.6630   11.6360   25.9740 C   0  0  0  0  0  0  0  0  0  0  0  0
    7.5910   10.6900   26.1360 N   0  0  0  0  0  0  0  0  0  0  0  0
    8.6210   10.7460   25.2800 C   0  0  0  0  0  0  0  0  0  0  0  0
    8.7290   11.6580   24.2400 C   0  0  0  0  0  0  0  0  0  0  0  0
 11  9  1  0
 10  9  2  0
  8  9  1  6
  8  6  1  0
  6  5  1  0
  5  4  1  0
  4  3  1  0
  3  2  1  0
  2  1  2  0
 12  2  1  0
 12 20  1  0
 20 19  2  0
 19 18  1  0
 18 17  2  0
 17 16  1  0
 16 15  1  0
 15 14  2  0
 14 13  1  0
 13 12  2  0
 17 13  1  0
  7  3  1  0
  8  7  1  0
M  END
>  <id>  (159) 
159

>  <inchikey>  (159) 
VGFDAVBEVLFUNW-QMMMGPOBSA-N

>  <alias>  (159) 
A3223a

>  <smiles>  (159) 
NC(=O)[C@H]1CCCN(C(=O)c2ccnc3[nH]ncc23)C1

>  <path>  (159) 
/opt/xchem-fragalysis-2/maxwin/BulkDock/TARGETS/A71EV2A/aligned_files/A3223a/A3223a.pdb

>  <distance_score>  (159) 
None

>  <energy_score>  (159) 
None

>  <compound>  (159) 
VGFDAVBEVLFUNW-UHFFFAOYSA-N

>  <compound_id>  (159) 
127

>  <target>  (159) 
A71EV2A

>  <tags>  (159) 
['GOOD count', 'MEDIOCRE count', '[Other] S1 site', 'hits', '[Other] S2 site', '[Other] P3 compound design', '[Other] upload_2 2024-12-12', 'Main status', '[Series] Piperidine series', 'BAD count']

>  <inspirations>  (159) 
None

>  <subsites>  (159) 
None

>  <reference>  (159) 


>  <observation_longname>  (159) 
A71EV2A-x3223_D_301_v1

>  <ConformerSites alias>  (159) 
1b - A0911/A/147

>  <CanonSites alias>  (159) 
1 - Active Site

>  <CrystalformSites alias>  (159) 
F5i - A3175/A/201

>  <Quatassemblies alias>  (159) 
A1 - monomer

>  <Crystalforms alias>  (159) 
F5 - A71EV2A_x3178_new_long_dials_041024

>  <ConformerSites upload name>  (159) 
1b - A71EV2A-x0911/A/147

>  <CanonSites upload name>  (159) 
1 - A71EV2A-x0911/A/147/1

>  <CrystalformSites upload name>  (159) 
F5i - A71EV2A-x3175/A/201/1

>  <Quatassemblies upload name>  (159) 
A1 - monomer

>  <Crystalforms upload name>  (159) 
F5 - A71EV2A_x3178_new_long_dials_041024

>  <ConformerSites short tag>  (159) 
1b - A0911/A/147

>  <CanonSites short tag>  (159) 
1 - A0911/A/147/1

>  <CrystalformSites short tag>  (159) 
F5i - A3175/A/201

>  <Quatassemblies short tag>  (159) 
A1 - monomer

>  <Crystalforms short tag>  (159) 
F5 - A71EV2A_x3178_new_long_dials_041024

>  <Centroid res>  (159) 
A71EV2A-x0911/A/133/A_v1

>  <Experiment code>  (159) 
A71EV2A-x3223

>  <Pose>  (159) 
A3223a

$$$$
A3225a
     RDKit          3D

 22 24  0  0  0  0  0  0  0  0999 V2000
   10.4100   16.5980   19.2360 O   0  0  0  0  0  0  0  0  0  0  0  0
   10.8550   15.4680   19.4580 C   0  0  0  0  0  0  0  0  0  0  0  0
   11.2220   14.6370   18.4920 N   0  0  0  0  0  0  0  0  0  0  0  0
   11.0030   14.9480   20.8780 C   0  0  1  0  0  0  0  0  0  0  0  0
   12.0780   15.7160   21.6610 C   0  0  0  0  0  0  0  0  0  0  0  0
   12.2690   15.1330   23.0630 C   0  0  0  0  0  0  0  0  0  0  0  0
   10.9450   15.0840   23.8240 C   0  0  0  0  0  0  0  0  0  0  0  0
    9.7070   15.0900   21.6800 C   0  0  0  0  0  0  0  0  0  0  0  0
    9.8780   14.4870   23.0030 N   0  0  0  0  0  0  0  0  0  0  0  0
    9.0810   13.4730   23.3980 C   0  0  0  0  0  0  0  0  0  0  0  0
    8.0510   13.1790   22.8020 O   0  0  0  0  0  0  0  0  0  0  0  0
    9.5210   12.6920   24.6350 C   0  0  0  0  0  0  0  0  0  0  0  0
    8.6430   11.5540   24.8750 N   0  0  0  0  0  0  0  0  0  0  0  0
    8.7550   10.2830   24.3780 C   0  0  0  0  0  0  0  0  0  0  0  0
    9.8610    9.8580   23.4860 C   0  0  0  0  0  0  0  0  0  0  0  0
    7.5110   11.5810   25.6770 C   0  0  0  0  0  0  0  0  0  0  0  0
    6.9960   10.2920   25.6230 C   0  0  0  0  0  0  0  0  0  0  0  0
    7.7900    9.5000   24.7950 N   0  0  0  0  0  0  0  0  0  0  0  0
    6.8790   12.5990   26.3740 C   0  0  0  0  0  0  0  0  0  0  0  0
    5.6910   12.2950   27.0180 C   0  0  0  0  0  0  0  0  0  0  0  0
    5.1720   11.0040   26.9890 C   0  0  0  0  0  0  0  0  0  0  0  0
    5.8210    9.9880   26.3070 C   0  0  0  0  0  0  0  0  0  0  0  0
 15 14  1  0
 14 18  2  0
 18 17  1  0
 17 22  2  0
 22 21  1  0
 21 20  2  0
 20 19  1  0
 19 16  2  0
 17 16  1  0
 16 13  1  0
 14 13  1  0
 13 12  1  0
 12 10  1  0
 11 10  2  0
 10  9  1  0
  9  7  1  0
  7  6  1  0
  6  5  1  0
  5  4  1  0
  4  2  1  6
  3  2  1  0
  2  1  2  0
  8  4  1  0
  9  8  1  0
M  END
>  <id>  (160) 
160

>  <inchikey>  (160) 
PRVGSTBOTABTCE-LBPRGKRZSA-N

>  <alias>  (160) 
A3225a

>  <smiles>  (160) 
Cc1nc2ccccc2n1CC(=O)N1CCC[C@H](C(N)=O)C1

>  <path>  (160) 
/opt/xchem-fragalysis-2/maxwin/BulkDock/TARGETS/A71EV2A/aligned_files/A3225a/A3225a.pdb

>  <distance_score>  (160) 
None

>  <energy_score>  (160) 
None

>  <compound>  (160) 
PRVGSTBOTABTCE-UHFFFAOYSA-N

>  <compound_id>  (160) 
128

>  <target>  (160) 
A71EV2A

>  <tags>  (160) 
['GOOD count', 'MEDIOCRE count', '[Other] S1 site', 'hits', '[Other] S2 site', '[Other] P3 compound design', '[Other] upload_2 2024-12-12', 'Main status', '[Other] New', '[Series] Piperidine series', 'BAD count']

>  <inspirations>  (160) 
None

>  <subsites>  (160) 
None

>  <reference>  (160) 


>  <observation_longname>  (160) 
A71EV2A-x3225_A_201_v1

>  <ConformerSites alias>  (160) 
1b - A0911/A/147

>  <CanonSites alias>  (160) 
1 - Active Site

>  <CrystalformSites alias>  (160) 
F8h - A0884/A/147

>  <Quatassemblies alias>  (160) 
A1 - monomer

>  <Crystalforms alias>  (160) 
F8 - A712A_x4271_2.1_refmac1_1st_ref

>  <ConformerSites upload name>  (160) 
1b - A71EV2A-x0911/A/147

>  <CanonSites upload name>  (160) 
1 - A71EV2A-x0911/A/147/1

>  <CrystalformSites upload name>  (160) 
F8h - A71EV2A-x0884/A/147/1

>  <Quatassemblies upload name>  (160) 
A1 - monomer

>  <Crystalforms upload name>  (160) 
F8 - A712A_x4271_2.1_refmac1_1st_ref

>  <ConformerSites short tag>  (160) 
1b - A0911/A/147

>  <CanonSites short tag>  (160) 
1 - A0911/A/147/1

>  <CrystalformSites short tag>  (160) 
F8h - A0884/A/147

>  <Quatassemblies short tag>  (160) 
A1 - monomer

>  <Crystalforms short tag>  (160) 
F8 - A712A_x4271_2.1_refmac1_1st_ref

>  <Centroid res>  (160) 
A71EV2A-x0911/A/133/A_v1

>  <Experiment code>  (160) 
A71EV2A-x3225

>  <Pose>  (160) 
A3225a

$$$$
A3229a
     RDKit          3D

 20 21  0  0  0  0  0  0  0  0999 V2000
   10.4180   16.6980   19.2460 O   0  0  0  0  0  0  0  0  0  0  0  0
   10.7610   15.5410   19.4970 C   0  0  0  0  0  0  0  0  0  0  0  0
   11.1000   14.6730   18.5540 N   0  0  0  0  0  0  0  0  0  0  0  0
   10.8020   15.0250   20.9270 C   0  0  1  0  0  0  0  0  0  0  0  0
   11.8660   15.7590   21.7580 C   0  0  0  0  0  0  0  0  0  0  0  0
   11.9740   15.1970   23.1790 C   0  0  0  0  0  0  0  0  0  0  0  0
   10.6200   15.1860   23.8660 C   0  0  0  0  0  0  0  0  0  0  0  0
    9.4710   15.1270   21.6750 C   0  0  0  0  0  0  0  0  0  0  0  0
    9.5910   14.5550   23.0210 N   0  0  0  0  0  0  0  0  0  0  0  0
    8.7360   13.5940   23.4370 C   0  0  0  0  0  0  0  0  0  0  0  0
    7.8150   13.2020   22.7370 O   0  0  0  0  0  0  0  0  0  0  0  0
    8.9600   13.0580   24.8410 C   0  0  0  0  0  0  0  0  0  0  0  0
    8.0040   11.9500   25.2260 C   0  0  0  0  0  0  0  0  0  0  0  0
    8.1590   10.6560   24.7260 C   0  0  0  0  0  0  0  0  0  0  0  0
    9.2550   10.4740   23.9250 O   0  0  0  0  0  0  0  0  0  0  0  0
    9.4400    9.2000   23.3060 C   0  0  0  0  0  0  0  0  0  0  0  0
    6.9810   12.1340   26.1330 C   0  0  0  0  0  0  0  0  0  0  0  0
    6.1360   11.1860   26.5410 N   0  0  0  0  0  0  0  0  0  0  0  0
    6.3000    9.9680   26.0260 C   0  0  0  0  0  0  0  0  0  0  0  0
    7.2940    9.6470   25.1200 C   0  0  0  0  0  0  0  0  0  0  0  0
 16 15  1  0
 15 14  1  0
 14 20  2  0
 20 19  1  0
 19 18  2  0
 18 17  1  0
 17 13  2  0
 14 13  1  0
 13 12  1  0
 12 10  1  0
 11 10  2  0
 10  9  1  0
  9  7  1  0
  7  6  1  0
  6  5  1  0
  5  4  1  0
  4  2  1  6
  3  2  1  0
  2  1  2  0
  8  4  1  0
  9  8  1  0
M  END
>  <id>  (161) 
161

>  <inchikey>  (161) 
ZKUXUDCBALXGFV-JTQLQIEISA-N

>  <alias>  (161) 
A3229a

>  <smiles>  (161) 
COc1ccncc1CC(=O)N1CCC[C@H](C(N)=O)C1

>  <path>  (161) 
/opt/xchem-fragalysis-2/maxwin/BulkDock/TARGETS/A71EV2A/aligned_files/A3229a/A3229a.pdb

>  <distance_score>  (161) 
None

>  <energy_score>  (161) 
None

>  <compound>  (161) 
ZKUXUDCBALXGFV-UHFFFAOYSA-N

>  <compound_id>  (161) 
129

>  <target>  (161) 
A71EV2A

>  <tags>  (161) 
['GOOD count', 'MEDIOCRE count', '[Other] S1 site', 'hits', '[Other] S2 site', '[Other] P3 compound design', '[Other] upload_2 2024-12-12', 'Main status', '[Other] New', '[Series] Piperidine series', 'BAD count']

>  <inspirations>  (161) 
None

>  <subsites>  (161) 
None

>  <reference>  (161) 


>  <observation_longname>  (161) 
A71EV2A-x3229_A_201_v1

>  <ConformerSites alias>  (161) 
1b - A0911/A/147

>  <CanonSites alias>  (161) 
1 - Active Site

>  <CrystalformSites alias>  (161) 
F8h - A0884/A/147

>  <Quatassemblies alias>  (161) 
A1 - monomer

>  <Crystalforms alias>  (161) 
F8 - A712A_x4271_2.1_refmac1_1st_ref

>  <ConformerSites upload name>  (161) 
1b - A71EV2A-x0911/A/147

>  <CanonSites upload name>  (161) 
1 - A71EV2A-x0911/A/147/1

>  <CrystalformSites upload name>  (161) 
F8h - A71EV2A-x0884/A/147/1

>  <Quatassemblies upload name>  (161) 
A1 - monomer

>  <Crystalforms upload name>  (161) 
F8 - A712A_x4271_2.1_refmac1_1st_ref

>  <ConformerSites short tag>  (161) 
1b - A0911/A/147

>  <CanonSites short tag>  (161) 
1 - A0911/A/147/1

>  <CrystalformSites short tag>  (161) 
F8h - A0884/A/147

>  <Quatassemblies short tag>  (161) 
A1 - monomer

>  <Crystalforms short tag>  (161) 
F8 - A712A_x4271_2.1_refmac1_1st_ref

>  <Centroid res>  (161) 
A71EV2A-x0911/A/133/A_v1

>  <Experiment code>  (161) 
A71EV2A-x3229

>  <Pose>  (161) 
A3229a

$$$$
A3234a
     RDKit          3D

 19 21  0  0  0  0  0  0  0  0999 V2000
    9.9130   13.8680   24.2030 C   0  0  0  0  0  0  0  0  0  0  0  0
    9.1930   12.5600   24.4040 C   0  0  0  0  0  0  0  0  0  0  0  0
    9.6770   11.4150   23.7870 C   0  0  0  0  0  0  0  0  0  0  0  0
    9.1340   10.1620   24.0250 C   0  0  0  0  0  0  0  0  0  0  0  0
    9.6990    8.9430   23.3580 C   0  0  0  0  0  0  0  0  0  0  0  0
    8.1070   12.4320   25.2790 C   0  0  0  0  0  0  0  0  0  0  0  0
    7.5450   11.1830   25.5610 C   0  0  0  0  0  0  0  0  0  0  0  0
    6.4380   11.0190   26.5690 C   0  0  0  0  0  0  0  0  0  0  0  0
    8.0680   10.0690   24.9110 C   0  0  0  0  0  0  0  0  0  0  0  0
    7.5490   13.6060   25.8800 N   0  0  0  0  0  0  0  0  0  0  0  0
    6.9100   14.6800   25.3020 C   0  0  0  0  0  0  0  0  0  0  0  0
    6.2120   15.5070   26.0360 N   0  0  0  0  0  0  0  0  0  0  0  0
    5.4900   16.2330   25.1360 N   0  0  0  0  0  0  0  0  0  0  0  0
    5.7430   15.8600   23.8560 C   0  0  0  0  0  0  0  0  0  0  0  0
    6.6580   14.8430   23.9020 C   0  0  0  0  0  0  0  0  0  0  0  0
    4.5370   17.2480   25.6100 C   0  0  0  0  0  0  0  0  0  0  0  0
    3.3480   16.7420   26.5050 C   0  0  0  0  0  0  0  0  0  0  0  0
    3.9610   17.2760   27.7070 O   0  0  0  0  0  0  0  0  0  0  0  0
    4.9020   18.0430   26.9140 C   0  0  0  0  0  0  0  0  0  0  0  0
  5  4  1  0
  4  9  1  0
  9  7  2  0
  8  7  1  0
  7  6  1  0
 10  6  1  0
 11 10  1  0
 11 15  1  0
 15 14  2  0
 14 13  1  0
 16 13  1  0
 16 19  1  0
 19 18  1  0
 18 17  1  0
 17 16  1  0
 13 12  1  0
 12 11  2  0
  6  2  2  0
  2  1  1  0
  3  2  1  0
  4  3  2  0
M  END
>  <id>  (162) 
162

>  <inchikey>  (162) 
BNONJNCLVIRUCY-UHFFFAOYSA-N

>  <alias>  (162) 
A3234a

>  <smiles>  (162) 
Cc1cc(C)c(Nc2ccn(C3COC3)n2)c(C)c1

>  <path>  (162) 
/opt/xchem-fragalysis-2/maxwin/BulkDock/TARGETS/A71EV2A/aligned_files/A3234a/A3234a.pdb

>  <distance_score>  (162) 
None

>  <energy_score>  (162) 
None

>  <compound>  (162) 
BNONJNCLVIRUCY-UHFFFAOYSA-N

>  <compound_id>  (162) 
130

>  <target>  (162) 
A71EV2A

>  <tags>  (162) 
['GOOD count', 'MEDIOCRE count', '[Other] S1 site', 'hits', '[Other] P3 compound design', '[Other] upload_2 2024-12-12', 'Main status', 'BAD count']

>  <inspirations>  (162) 
None

>  <subsites>  (162) 
None

>  <reference>  (162) 


>  <observation_longname>  (162) 
A71EV2A-x3234_D_246_v1

>  <ConformerSites alias>  (162) 
1b - A0911/A/147

>  <CanonSites alias>  (162) 
1 - Active Site

>  <CrystalformSites alias>  (162) 
F5i - A3175/A/201

>  <Quatassemblies alias>  (162) 
A1 - monomer

>  <Crystalforms alias>  (162) 
F5 - A71EV2A_x3178_new_long_dials_041024

>  <ConformerSites upload name>  (162) 
1b - A71EV2A-x0911/A/147

>  <CanonSites upload name>  (162) 
1 - A71EV2A-x0911/A/147/1

>  <CrystalformSites upload name>  (162) 
F5i - A71EV2A-x3175/A/201/1

>  <Quatassemblies upload name>  (162) 
A1 - monomer

>  <Crystalforms upload name>  (162) 
F5 - A71EV2A_x3178_new_long_dials_041024

>  <ConformerSites short tag>  (162) 
1b - A0911/A/147

>  <CanonSites short tag>  (162) 
1 - A0911/A/147/1

>  <CrystalformSites short tag>  (162) 
F5i - A3175/A/201

>  <Quatassemblies short tag>  (162) 
A1 - monomer

>  <Crystalforms short tag>  (162) 
F5 - A71EV2A_x3178_new_long_dials_041024

>  <Centroid res>  (162) 
A71EV2A-x0911/A/133/A_v1

>  <Experiment code>  (162) 
A71EV2A-x3234

>  <Pose>  (162) 
A3234a

$$$$
A3264a
     RDKit          3D

 20 22  0  0  0  0  0  0  0  0999 V2000
   10.2620   13.9780   24.6060 O   0  0  0  0  0  0  0  0  0  0  0  0
   10.4080   13.1210   23.7360 C   0  0  0  0  0  0  0  0  0  0  0  0
    9.6300   11.8270   23.7970 C   0  0  0  0  0  0  0  0  0  0  0  0
   10.0220   10.7910   23.0670 N   0  0  0  0  0  0  0  0  0  0  0  0
    8.5260   11.4690   24.6420 C   0  0  0  0  0  0  0  0  0  0  0  0
    8.3090   10.1050   24.3650 C   0  0  0  0  0  0  0  0  0  0  0  0
    7.3950    9.3190   24.9540 N   0  0  0  0  0  0  0  0  0  0  0  0
    6.6270    9.9250   25.8840 C   0  0  0  0  0  0  0  0  0  0  0  0
    6.7510   11.2640   26.2450 C   0  0  0  0  0  0  0  0  0  0  0  0
    7.7170   12.0470   25.6210 C   0  0  0  0  0  0  0  0  0  0  0  0
    9.2250    9.7330   23.4240 N   0  0  0  0  0  0  0  0  0  0  0  0
    9.5130    8.3950   22.9280 C   0  0  0  0  0  0  0  0  0  0  0  0
   11.2550   13.2370   22.7070 N   0  0  0  0  0  0  0  0  0  0  0  0
   12.1770   14.3590   22.5750 C   0  0  0  0  0  0  0  0  0  0  0  0
   12.4690   14.6990   21.1090 C   0  0  0  0  0  0  0  0  0  0  0  0
   11.3290   15.3700   20.4030 C   0  0  0  0  0  0  0  0  0  0  0  0
   10.6450   16.4380   20.9720 N   0  0  0  0  0  0  0  0  0  0  0  0
    9.7570   16.7430   20.0940 C   0  0  0  0  0  0  0  0  0  0  0  0
    9.7730   15.9960   18.9710 O   0  0  0  0  0  0  0  0  0  0  0  0
   10.7920   15.1110   19.2000 C   0  0  0  0  0  0  0  0  0  0  0  0
 12 11  1  0
 11  4  1  0
  4  3  2  0
  3  2  1  0
  2  1  2  0
 13  2  1  0
 14 13  1  0
 15 14  1  0
 16 15  1  0
 16 20  2  0
 20 19  1  0
 19 18  1  0
 18 17  2  0
 17 16  1  0
  5  3  1  0
  5 10  2  0
 10  9  1  0
  9  8  2  0
  8  7  1  0
  7  6  2  0
  6  5  1  0
 11  6  1  0
M  END
>  <id>  (163) 
163

>  <inchikey>  (163) 
CQXUVXZMIRAKCU-UHFFFAOYSA-N

>  <alias>  (163) 
A3264a

>  <smiles>  (163) 
Cn1nc(C(=O)NCCc2cocn2)c2cccnc21

>  <path>  (163) 
/opt/xchem-fragalysis-2/maxwin/BulkDock/TARGETS/A71EV2A/aligned_files/A3264a/A3264a.pdb

>  <distance_score>  (163) 
None

>  <energy_score>  (163) 
None

>  <compound>  (163) 
CQXUVXZMIRAKCU-UHFFFAOYSA-N

>  <compound_id>  (163) 
131

>  <target>  (163) 
A71EV2A

>  <tags>  (163) 
['GOOD count', 'MEDIOCRE count', '[Other] S1 site', 'hits', '[Other] S2 site', '[Other] P3 compound design', '[Other] upload_2 2024-12-12', 'Main status', '[Other] New', '[Series] Indazole series', 'BAD count']

>  <inspirations>  (163) 
None

>  <subsites>  (163) 
None

>  <reference>  (163) 


>  <observation_longname>  (163) 
A71EV2A-x3264_A_201_v1

>  <ConformerSites alias>  (163) 
1b - A0911/A/147

>  <CanonSites alias>  (163) 
1 - Active Site

>  <CrystalformSites alias>  (163) 
F1a - A0375/A/201

>  <Quatassemblies alias>  (163) 
A1 - monomer

>  <Crystalforms alias>  (163) 
F1 - A71_2A_open

>  <ConformerSites upload name>  (163) 
1b - A71EV2A-x0911/A/147

>  <CanonSites upload name>  (163) 
1 - A71EV2A-x0911/A/147/1

>  <CrystalformSites upload name>  (163) 
F1a - A71EV2A-x0375/A/201/1

>  <Quatassemblies upload name>  (163) 
A1 - monomer

>  <Crystalforms upload name>  (163) 
F1 - A71_2A_open

>  <ConformerSites short tag>  (163) 
1b - A0911/A/147

>  <CanonSites short tag>  (163) 
1 - A0911/A/147/1

>  <CrystalformSites short tag>  (163) 
F1a - A0375/A/201

>  <Quatassemblies short tag>  (163) 
A1 - monomer

>  <Crystalforms short tag>  (163) 
F1 - A71_2A_open

>  <Centroid res>  (163) 
A71EV2A-x0911/A/133/A_v1

>  <Experiment code>  (163) 
A71EV2A-x3264

>  <Pose>  (163) 
A3264a

$$$$
A3279a
     RDKit          3D

 16 17  0  0  0  0  0  0  0  0999 V2000
    6.1920   10.7600   26.5970 C   0  0  0  0  0  0  0  0  0  0  0  0
    7.3720   10.9840   25.6820 C   0  0  0  0  0  0  0  0  0  0  0  0
    7.8720    9.9360   24.9150 C   0  0  0  0  0  0  0  0  0  0  0  0
    8.9370   10.1030   24.0370 C   0  0  0  0  0  0  0  0  0  0  0  0
    9.5300    8.9310   23.3000 C   0  0  0  0  0  0  0  0  0  0  0  0
    7.9830   12.2360   25.5610 C   0  0  0  0  0  0  0  0  0  0  0  0
    9.0570   12.4400   24.6870 C   0  0  0  0  0  0  0  0  0  0  0  0
    9.8390   13.7300   24.6630 C   0  0  0  0  0  0  0  0  0  0  0  0
    9.4910   11.3680   23.9180 C   0  0  0  0  0  0  0  0  0  0  0  0
    7.5140   13.3210   26.3730 N   0  0  0  0  0  0  0  0  0  0  0  0
    6.9180   14.4660   25.9120 C   0  0  0  0  0  0  0  0  0  0  0  0
    6.6780   14.6440   24.5830 N   0  0  0  0  0  0  0  0  0  0  0  0
    5.9840   15.8060   24.5590 N   0  0  0  0  0  0  0  0  0  0  0  0
    5.4860   16.3130   23.2880 C   0  0  0  0  0  0  0  0  0  0  0  0
    5.7840   16.3710   25.8300 C   0  0  0  0  0  0  0  0  0  0  0  0
    6.3660   15.5300   26.7370 C   0  0  0  0  0  0  0  0  0  0  0  0
  5  4  1  0
  4  9  1  0
  9  7  2  0
  8  7  1  0
  7  6  1  0
 10  6  1  0
 11 10  1  0
 11 16  1  0
 16 15  2  0
 15 13  1  0
 14 13  1  0
 13 12  1  0
 12 11  2  0
  6  2  2  0
  2  1  1  0
  3  2  1  0
  4  3  2  0
M  END
>  <id>  (164) 
164

>  <inchikey>  (164) 
BHEPYCGCQDUONZ-UHFFFAOYSA-N

>  <alias>  (164) 
A3279a

>  <smiles>  (164) 
Cc1cc(C)c(Nc2ccn(C)n2)c(C)c1

>  <path>  (164) 
/opt/xchem-fragalysis-2/maxwin/BulkDock/TARGETS/A71EV2A/aligned_files/A3279a/A3279a.pdb

>  <distance_score>  (164) 
None

>  <energy_score>  (164) 
None

>  <compound>  (164) 
BHEPYCGCQDUONZ-UHFFFAOYSA-N

>  <compound_id>  (164) 
132

>  <target>  (164) 
A71EV2A

>  <tags>  (164) 
['GOOD count', 'MEDIOCRE count', '[Other] S1 site', 'hits', '[Other] P3 compound design', '[Other] upload_2 2024-12-12', 'Main status', '[Other] New', 'BAD count', '[Other] S3 site']

>  <inspirations>  (164) 
None

>  <subsites>  (164) 
None

>  <reference>  (164) 


>  <observation_longname>  (164) 
A71EV2A-x3279_A_201_v1

>  <ConformerSites alias>  (164) 
1b - A0911/A/147

>  <CanonSites alias>  (164) 
1 - Active Site

>  <CrystalformSites alias>  (164) 
F5i - A3175/A/201

>  <Quatassemblies alias>  (164) 
A1 - monomer

>  <Crystalforms alias>  (164) 
F5 - A71EV2A_x3178_new_long_dials_041024

>  <ConformerSites upload name>  (164) 
1b - A71EV2A-x0911/A/147

>  <CanonSites upload name>  (164) 
1 - A71EV2A-x0911/A/147/1

>  <CrystalformSites upload name>  (164) 
F5i - A71EV2A-x3175/A/201/1

>  <Quatassemblies upload name>  (164) 
A1 - monomer

>  <Crystalforms upload name>  (164) 
F5 - A71EV2A_x3178_new_long_dials_041024

>  <ConformerSites short tag>  (164) 
1b - A0911/A/147

>  <CanonSites short tag>  (164) 
1 - A0911/A/147/1

>  <CrystalformSites short tag>  (164) 
F5i - A3175/A/201

>  <Quatassemblies short tag>  (164) 
A1 - monomer

>  <Crystalforms short tag>  (164) 
F5 - A71EV2A_x3178_new_long_dials_041024

>  <Centroid res>  (164) 
A71EV2A-x0911/A/133/A_v1

>  <Experiment code>  (164) 
A71EV2A-x3279

>  <Pose>  (164) 
A3279a

$$$$
A3280a
     RDKit          3D

 23 25  0  0  0  0  0  0  0  0999 V2000
   13.0270   15.9950   21.5320 F   0  0  0  0  0  0  0  0  0  0  0  0
   12.0230   15.0550   21.5090 C   0  0  0  0  0  0  0  0  0  0  0  0
   12.3660   14.2020   20.4830 F   0  0  0  0  0  0  0  0  0  0  0  0
   10.7260   15.7750   21.0680 C   0  0  0  0  0  0  0  0  0  0  0  0
   10.3820   16.9440   21.6300 N   0  0  0  0  0  0  0  0  0  0  0  0
    9.3540   17.6200   21.0900 C   0  0  0  0  0  0  0  0  0  0  0  0
    8.6480   17.1770   20.0040 C   0  0  0  0  0  0  0  0  0  0  0  0
    9.0060   15.9730   19.4460 C   0  0  0  0  0  0  0  0  0  0  0  0
   10.0410   15.2440   19.9920 C   0  0  0  0  0  0  0  0  0  0  0  0
   11.9460   14.2960   22.8090 C   0  0  0  0  0  0  0  0  0  0  0  0
   10.7860   13.4250   22.7950 N   0  0  0  0  0  0  0  0  0  0  0  0
    9.9590   13.3230   23.8380 C   0  0  0  0  0  0  0  0  0  0  0  0
    9.7300   14.2360   24.6260 O   0  0  0  0  0  0  0  0  0  0  0  0
    9.3370   11.9890   24.0270 C   0  0  0  0  0  0  0  0  0  0  0  0
    9.7640   10.9330   23.3290 N   0  0  0  0  0  0  0  0  0  0  0  0
    8.2800   11.6180   24.9230 C   0  0  0  0  0  0  0  0  0  0  0  0
    8.0920   10.2500   24.7010 C   0  0  0  0  0  0  0  0  0  0  0  0
    9.0010    9.8760   23.7530 N   0  0  0  0  0  0  0  0  0  0  0  0
    9.2120    8.5590   23.1770 C   0  0  0  0  0  0  0  0  0  0  0  0
    7.1240    9.5290   25.3850 C   0  0  0  0  0  0  0  0  0  0  0  0
    6.3530   10.1910   26.3320 C   0  0  0  0  0  0  0  0  0  0  0  0
    6.5410   11.5430   26.5790 C   0  0  0  0  0  0  0  0  0  0  0  0
    7.4950   12.2640   25.8760 C   0  0  0  0  0  0  0  0  0  0  0  0
 19 18  1  0
 18 15  1  0
 15 14  2  0
 14 12  1  0
 13 12  2  0
 12 11  1  0
 11 10  1  0
 10  2  1  0
  3  2  1  0
  2  1  1  0
  4  2  1  0
  4  9  2  0
  9  8  1  0
  8  7  2  0
  7  6  1  0
  6  5  2  0
  5  4  1  0
 16 14  1  0
 16 23  2  0
 23 22  1  0
 22 21  2  0
 21 20  1  0
 20 17  2  0
 17 16  1  0
 18 17  1  0
M  END
>  <id>  (165) 
165

>  <inchikey>  (165) 
CKEMLAIIJWKKOM-UHFFFAOYSA-N

>  <alias>  (165) 
A3280a

>  <smiles>  (165) 
Cn1nc(C(=O)NCC(F)(F)c2ccccn2)c2ccccc21

>  <path>  (165) 
/opt/xchem-fragalysis-2/maxwin/BulkDock/TARGETS/A71EV2A/aligned_files/A3280a/A3280a.pdb

>  <distance_score>  (165) 
None

>  <energy_score>  (165) 
None

>  <compound>  (165) 
CKEMLAIIJWKKOM-UHFFFAOYSA-N

>  <compound_id>  (165) 
133

>  <target>  (165) 
A71EV2A

>  <tags>  (165) 
['GOOD count', 'MEDIOCRE count', '[Other] S1 site', 'hits', '[Other] S2 site', '[Other] P3 compound design', '[Other] upload_2 2024-12-12', 'Main status', '[Series] Indazole series', 'BAD count']

>  <inspirations>  (165) 
None

>  <subsites>  (165) 
None

>  <reference>  (165) 


>  <observation_longname>  (165) 
A71EV2A-x3280_D_246_v1

>  <ConformerSites alias>  (165) 
1b - A0911/A/147

>  <CanonSites alias>  (165) 
1 - Active Site

>  <CrystalformSites alias>  (165) 
F5i - A3175/A/201

>  <Quatassemblies alias>  (165) 
A1 - monomer

>  <Crystalforms alias>  (165) 
F5 - A71EV2A_x3178_new_long_dials_041024

>  <ConformerSites upload name>  (165) 
1b - A71EV2A-x0911/A/147

>  <CanonSites upload name>  (165) 
1 - A71EV2A-x0911/A/147/1

>  <CrystalformSites upload name>  (165) 
F5i - A71EV2A-x3175/A/201/1

>  <Quatassemblies upload name>  (165) 
A1 - monomer

>  <Crystalforms upload name>  (165) 
F5 - A71EV2A_x3178_new_long_dials_041024

>  <ConformerSites short tag>  (165) 
1b - A0911/A/147

>  <CanonSites short tag>  (165) 
1 - A0911/A/147/1

>  <CrystalformSites short tag>  (165) 
F5i - A3175/A/201

>  <Quatassemblies short tag>  (165) 
A1 - monomer

>  <Crystalforms short tag>  (165) 
F5 - A71EV2A_x3178_new_long_dials_041024

>  <Centroid res>  (165) 
A71EV2A-x0911/A/133/A_v1

>  <Experiment code>  (165) 
A71EV2A-x3280

>  <Pose>  (165) 
A3280a

$$$$
A3286a
     RDKit          3D

 21 23  0  0  0  0  0  0  0  0999 V2000
    9.9370   14.2170   25.0060 O   0  0  0  0  0  0  0  0  0  0  0  0
   10.1750   13.3650   24.1420 C   0  0  0  0  0  0  0  0  0  0  0  0
    9.4450   12.0870   24.1320 C   0  0  0  0  0  0  0  0  0  0  0  0
    8.3520   11.6890   24.9600 C   0  0  0  0  0  0  0  0  0  0  0  0
    7.5570   12.3040   25.9380 C   0  0  0  0  0  0  0  0  0  0  0  0
    6.5900   11.5550   26.5820 C   0  0  0  0  0  0  0  0  0  0  0  0
    6.4160   10.2020   26.2830 C   0  0  0  0  0  0  0  0  0  0  0  0
    7.1950    9.5780   25.3130 C   0  0  0  0  0  0  0  0  0  0  0  0
    8.1460   10.3390   24.6560 C   0  0  0  0  0  0  0  0  0  0  0  0
    9.0520   10.0120   23.6930 N   0  0  0  0  0  0  0  0  0  0  0  0
    9.3330    8.6960   23.1210 C   0  0  0  0  0  0  0  0  0  0  0  0
    9.8530   11.0750   23.3600 N   0  0  0  0  0  0  0  0  0  0  0  0
   11.0690   13.5290   23.1710 N   0  0  0  0  0  0  0  0  0  0  0  0
   12.0340   14.6250   23.2180 C   0  0  0  0  0  0  0  0  0  0  0  0
   12.4180   15.1320   21.8300 C   0  0  0  0  0  0  0  0  0  0  0  0
   11.3140   15.8450   21.0960 C   0  0  0  0  0  0  0  0  0  0  0  0
   10.9170   15.7150   19.8150 C   0  0  0  0  0  0  0  0  0  0  0  0
   11.4080   14.9550   18.6410 C   0  0  0  0  0  0  0  0  0  0  0  0
   10.5990   16.8960   21.6670 N   0  0  0  0  0  0  0  0  0  0  0  0
    9.8020   17.2750   20.7450 C   0  0  0  0  0  0  0  0  0  0  0  0
    9.9180   16.6100   19.5730 O   0  0  0  0  0  0  0  0  0  0  0  0
 18 17  1  0
 17 21  1  0
 21 20  1  0
 20 19  2  0
 19 16  1  0
 17 16  2  0
 16 15  1  0
 15 14  1  0
 14 13  1  0
 13  2  1  0
  2  1  2  0
  3  2  1  0
  3 12  2  0
 12 10  1  0
 11 10  1  0
 10  9  1  0
  9  8  1  0
  8  7  2  0
  7  6  1  0
  6  5  2  0
  5  4  1  0
  4  3  1  0
  9  4  2  0
M  END
>  <id>  (166) 
166

>  <inchikey>  (166) 
JLNHRNVWTVJBTF-UHFFFAOYSA-N

>  <alias>  (166) 
A3286a

>  <smiles>  (166) 
Cc1ocnc1CCNC(=O)c1nn(C)c2ccccc12

>  <path>  (166) 
/opt/xchem-fragalysis-2/maxwin/BulkDock/TARGETS/A71EV2A/aligned_files/A3286a/A3286a.pdb

>  <distance_score>  (166) 
None

>  <energy_score>  (166) 
None

>  <compound>  (166) 
JLNHRNVWTVJBTF-UHFFFAOYSA-N

>  <compound_id>  (166) 
134

>  <target>  (166) 
A71EV2A

>  <tags>  (166) 
['GOOD count', 'MEDIOCRE count', '[Other] S1 site', 'hits', '[Other] S2 site', '[Other] P3 compound design', '[Other] upload_2 2024-12-12', 'Main status', '[Other] New', '[Series] Indazole series', 'BAD count']

>  <inspirations>  (166) 
None

>  <subsites>  (166) 
None

>  <reference>  (166) 


>  <observation_longname>  (166) 
A71EV2A-x3286_A_201_v1

>  <ConformerSites alias>  (166) 
1b - A0911/A/147

>  <CanonSites alias>  (166) 
1 - Active Site

>  <CrystalformSites alias>  (166) 
F4f - A0836/A/301

>  <Quatassemblies alias>  (166) 
A1 - monomer

>  <Crystalforms alias>  (166) 
F4 - A71_2A_new_model_x2721_4.1_ref3

>  <ConformerSites upload name>  (166) 
1b - A71EV2A-x0911/A/147

>  <CanonSites upload name>  (166) 
1 - A71EV2A-x0911/A/147/1

>  <CrystalformSites upload name>  (166) 
F4f - A71EV2A-x0836/A/301/1

>  <Quatassemblies upload name>  (166) 
A1 - monomer

>  <Crystalforms upload name>  (166) 
F4 - A71_2A_new_model_x2721_4.1_ref3

>  <ConformerSites short tag>  (166) 
1b - A0911/A/147

>  <CanonSites short tag>  (166) 
1 - A0911/A/147/1

>  <CrystalformSites short tag>  (166) 
F4f - A0836/A/301

>  <Quatassemblies short tag>  (166) 
A1 - monomer

>  <Crystalforms short tag>  (166) 
F4 - A71_2A_new_model_x2721_4.1_ref3

>  <Centroid res>  (166) 
A71EV2A-x0911/A/133/A_v1

>  <Experiment code>  (166) 
A71EV2A-x3286

>  <Pose>  (166) 
A3286a

$$$$
A3305a
     RDKit          3D

 23 26  0  0  0  0  0  0  0  0999 V2000
   15.4490   12.3240   25.2870 O   0  0  0  0  0  0  0  0  0  0  0  0
   14.9340   13.1260   26.0700 C   0  0  0  0  0  0  0  0  0  0  0  0
   15.0510   13.1080   27.4030 N   0  0  0  0  0  0  0  0  0  0  0  0
   14.1770   14.0540   28.1060 C   0  0  0  0  0  0  0  0  0  0  0  0
   13.2760   14.6080   26.9790 C   0  0  0  0  0  0  0  0  0  0  0  0
   14.0700   14.3200   25.7010 C   0  0  2  0  0  0  0  0  0  0  0  0
   13.2570   13.9670   24.5350 N   0  0  0  0  0  0  0  0  0  0  0  0
   13.2830   14.5320   23.2970 C   0  0  0  0  0  0  0  0  0  0  0  0
   12.3940   13.8400   22.5050 C   0  0  0  0  0  0  0  0  0  0  0  0
   12.3780   12.9060   24.6090 N   0  0  0  0  0  0  0  0  0  0  0  0
   11.8640   12.8300   23.3820 C   0  0  0  0  0  0  0  0  0  0  0  0
   10.9310   11.8730   23.0210 N   0  0  0  0  0  0  0  0  0  0  0  0
    9.8920   11.3440   23.8760 C   0  0  0  0  0  0  0  0  0  0  0  0
    9.5140    9.9990   23.7580 C   0  0  0  0  0  0  0  0  0  0  0  0
   10.2840    9.0340   22.8940 C   0  0  0  0  0  0  0  0  0  0  0  0
    9.2170   12.2030   24.7630 C   0  0  0  0  0  0  0  0  0  0  0  0
    9.3440   13.5380   25.2300 C   0  0  0  0  0  0  0  0  0  0  0  0
    8.4260   13.8170   26.1330 N   0  0  0  0  0  0  0  0  0  0  0  0
    7.6740   12.6880   26.2780 N   0  0  0  0  0  0  0  0  0  0  0  0
    6.5130   12.6830   27.1550 C   0  0  0  0  0  0  0  0  0  0  0  0
    8.1240   11.6830   25.4820 C   0  0  0  0  0  0  0  0  0  0  0  0
    7.7160   10.3630   25.3610 C   0  0  0  0  0  0  0  0  0  0  0  0
    8.4170    9.5460   24.4900 C   0  0  0  0  0  0  0  0  0  0  0  0
 15 14  1  0
 14 23  2  0
 23 22  1  0
 22 21  2  0
 21 16  1  0
 17 16  1  0
 18 17  2  0
 19 18  1  0
 21 19  1  0
 20 19  1  0
 16 13  2  0
 14 13  1  0
 13 12  1  0
 12 11  1  0
 11  9  1  0
  9  8  2  0
  8  7  1  0
  6  7  1  6
  6  5  1  0
  5  4  1  0
  4  3  1  0
  3  2  1  0
  6  2  1  0
  2  1  2  0
 10  7  1  0
 11 10  2  0
M  END
>  <id>  (167) 
167

>  <inchikey>  (167) 
IQCXYYIXAUMMTK-ZDUSSCGKSA-N

>  <alias>  (167) 
A3305a

>  <smiles>  (167) 
Cc1ccc2c(cnn2C)c1Nc1ccn([C@H]2CCNC2=O)n1

>  <path>  (167) 
/opt/xchem-fragalysis-2/maxwin/BulkDock/TARGETS/A71EV2A/aligned_files/A3305a/A3305a.pdb

>  <distance_score>  (167) 
None

>  <energy_score>  (167) 
None

>  <compound>  (167) 
IQCXYYIXAUMMTK-UHFFFAOYSA-N

>  <compound_id>  (167) 
135

>  <target>  (167) 
A71EV2A

>  <tags>  (167) 
['GOOD count', "[Other] S1' site", 'MEDIOCRE count', '[Other] S1 site', 'hits', '[Other] S2 site', '[Other] P3 compound design', '[Other] upload_2 2024-12-12', 'Main status', '[Other] New', '[Series] Indazole series', 'BAD count']

>  <inspirations>  (167) 
None

>  <subsites>  (167) 
None

>  <reference>  (167) 


>  <observation_longname>  (167) 
A71EV2A-x3305_A_201_v1

>  <ConformerSites alias>  (167) 
1b - A0911/A/147

>  <CanonSites alias>  (167) 
1 - Active Site

>  <CrystalformSites alias>  (167) 
F1a - A0375/A/201

>  <Quatassemblies alias>  (167) 
A1 - monomer

>  <Crystalforms alias>  (167) 
F1 - A71_2A_open

>  <ConformerSites upload name>  (167) 
1b - A71EV2A-x0911/A/147

>  <CanonSites upload name>  (167) 
1 - A71EV2A-x0911/A/147/1

>  <CrystalformSites upload name>  (167) 
F1a - A71EV2A-x0375/A/201/1

>  <Quatassemblies upload name>  (167) 
A1 - monomer

>  <Crystalforms upload name>  (167) 
F1 - A71_2A_open

>  <ConformerSites short tag>  (167) 
1b - A0911/A/147

>  <CanonSites short tag>  (167) 
1 - A0911/A/147/1

>  <CrystalformSites short tag>  (167) 
F1a - A0375/A/201

>  <Quatassemblies short tag>  (167) 
A1 - monomer

>  <Crystalforms short tag>  (167) 
F1 - A71_2A_open

>  <Centroid res>  (167) 
A71EV2A-x0911/A/133/A_v1

>  <Experiment code>  (167) 
A71EV2A-x3305

>  <Pose>  (167) 
A3305a

$$$$
A3306a
     RDKit          3D

 20 22  0  0  0  0  0  0  0  0999 V2000
   10.0480   14.2310   24.9800 O   0  0  0  0  0  0  0  0  0  0  0  0
   10.4810   13.2960   24.3100 C   0  0  0  0  0  0  0  0  0  0  0  0
    9.7180   11.9870   24.2400 C   0  0  0  0  0  0  0  0  0  0  0  0
   10.1120   10.9750   23.4640 N   0  0  0  0  0  0  0  0  0  0  0  0
    8.5870   11.6090   25.0420 C   0  0  0  0  0  0  0  0  0  0  0  0
    8.3430   10.2730   24.7040 C   0  0  0  0  0  0  0  0  0  0  0  0
    7.3430    9.5350   25.3230 C   0  0  0  0  0  0  0  0  0  0  0  0
    6.5620   10.1610   26.2830 C   0  0  0  0  0  0  0  0  0  0  0  0
    6.7750   11.4890   26.6150 C   0  0  0  0  0  0  0  0  0  0  0  0
    7.7850   12.2190   26.0010 C   0  0  0  0  0  0  0  0  0  0  0  0
    9.2690    9.9280   23.7630 N   0  0  0  0  0  0  0  0  0  0  0  0
    9.4830    8.6270   23.1500 C   0  0  0  0  0  0  0  0  0  0  0  0
   11.6840   13.3090   23.7340 N   0  0  0  0  0  0  0  0  0  0  0  0
   11.8930   13.6090   22.3280 C   0  0  0  0  0  0  0  0  0  0  0  0
   12.1780   15.0780   22.0790 C   0  0  0  0  0  0  0  0  0  0  0  0
   11.2600   15.4540   20.9580 C   0  0  0  0  0  0  0  0  0  0  0  0
   11.4040   14.8820   19.6990 N   0  0  0  0  0  0  0  0  0  0  0  0
   10.4060   15.2020   18.9380 C   0  0  0  0  0  0  0  0  0  0  0  0
    9.2410   16.2270   19.6440 S   0  0  0  0  0  0  0  0  0  0  0  0
   10.1620   16.2420   21.0840 C   0  0  0  0  0  0  0  0  0  0  0  0
 12 11  1  0
 11  4  1  0
  4  3  2  0
  3  2  1  0
  2  1  2  0
 13  2  1  0
 14 13  1  0
 15 14  1  0
 16 15  1  0
 16 20  2  0
 20 19  1  0
 19 18  1  0
 18 17  2  0
 17 16  1  0
  5  3  1  0
  5 10  2  0
 10  9  1  0
  9  8  2  0
  8  7  1  0
  7  6  2  0
  6  5  1  0
 11  6  1  0
M  END
>  <id>  (168) 
168

>  <inchikey>  (168) 
WLVBXUMLICFSSW-UHFFFAOYSA-N

>  <alias>  (168) 
A3306a

>  <smiles>  (168) 
Cn1nc(C(=O)NCCc2cscn2)c2ccccc21

>  <path>  (168) 
/opt/xchem-fragalysis-2/maxwin/BulkDock/TARGETS/A71EV2A/aligned_files/A3306a/A3306a.pdb

>  <distance_score>  (168) 
None

>  <energy_score>  (168) 
None

>  <compound>  (168) 
WLVBXUMLICFSSW-UHFFFAOYSA-N

>  <compound_id>  (168) 
136

>  <target>  (168) 
A71EV2A

>  <tags>  (168) 
['GOOD count', 'MEDIOCRE count', '[Other] S1 site', 'hits', '[Other] S2 site', '[Other] P3 compound design', '[Other] upload_2 2024-12-12', 'Main status', '[Other] New', '[Series] Indazole series', 'BAD count']

>  <inspirations>  (168) 
None

>  <subsites>  (168) 
None

>  <reference>  (168) 


>  <observation_longname>  (168) 
A71EV2A-x3306_A_201_v1

>  <ConformerSites alias>  (168) 
1b - A0911/A/147

>  <CanonSites alias>  (168) 
1 - Active Site

>  <CrystalformSites alias>  (168) 
F4f - A0836/A/301

>  <Quatassemblies alias>  (168) 
A1 - monomer

>  <Crystalforms alias>  (168) 
F4 - A71_2A_new_model_x2721_4.1_ref3

>  <ConformerSites upload name>  (168) 
1b - A71EV2A-x0911/A/147

>  <CanonSites upload name>  (168) 
1 - A71EV2A-x0911/A/147/1

>  <CrystalformSites upload name>  (168) 
F4f - A71EV2A-x0836/A/301/1

>  <Quatassemblies upload name>  (168) 
A1 - monomer

>  <Crystalforms upload name>  (168) 
F4 - A71_2A_new_model_x2721_4.1_ref3

>  <ConformerSites short tag>  (168) 
1b - A0911/A/147

>  <CanonSites short tag>  (168) 
1 - A0911/A/147/1

>  <CrystalformSites short tag>  (168) 
F4f - A0836/A/301

>  <Quatassemblies short tag>  (168) 
A1 - monomer

>  <Crystalforms short tag>  (168) 
F4 - A71_2A_new_model_x2721_4.1_ref3

>  <Centroid res>  (168) 
A71EV2A-x0911/A/133/A_v1

>  <Experiment code>  (168) 
A71EV2A-x3306

>  <Pose>  (168) 
A3306a

$$$$
A3324a
     RDKit          3D

 25 27  0  0  0  0  0  0  0  0999 V2000
   15.9710   19.9820   18.5030 O   0  0  0  0  0  0  0  0  0  0  0  0
   15.2510   19.2430   17.5020 S   0  0  0  0  0  0  0  0  0  0  0  0
   14.3590   19.9760   16.6400 O   0  0  0  0  0  0  0  0  0  0  0  0
   16.3960   18.3690   16.5110 C   0  0  0  0  0  0  0  0  0  0  0  0
   14.3200   17.9760   18.3100 C   0  0  0  0  0  0  0  0  0  0  0  0
   13.8130   16.9240   17.5700 C   0  0  0  0  0  0  0  0  0  0  0  0
   13.0000   15.9910   18.1880 C   0  0  0  0  0  0  0  0  0  0  0  0
   14.0470   18.0800   19.6610 C   0  0  0  0  0  0  0  0  0  0  0  0
   13.2460   17.1280   20.2660 C   0  0  0  0  0  0  0  0  0  0  0  0
   12.7080   16.0750   19.5390 C   0  0  0  0  0  0  0  0  0  0  0  0
   11.8040   15.0610   20.1970 C   0  0  0  0  0  0  0  0  0  0  0  0
   12.3090   14.5890   21.5360 C   0  0  0  0  0  0  0  0  0  0  0  0
   11.5910   13.4010   21.9810 N   0  0  0  0  0  0  0  0  0  0  0  0
   10.7980   13.4280   23.0480 C   0  0  0  0  0  0  0  0  0  0  0  0
   10.6330   14.4380   23.7400 O   0  0  0  0  0  0  0  0  0  0  0  0
   10.0750   12.1540   23.3690 C   0  0  0  0  0  0  0  0  0  0  0  0
   10.3640   11.0190   22.7370 N   0  0  0  0  0  0  0  0  0  0  0  0
    9.0650   11.9420   24.3630 C   0  0  0  0  0  0  0  0  0  0  0  0
    8.7710   10.5750   24.2880 C   0  0  0  0  0  0  0  0  0  0  0  0
    9.5780   10.0570   23.3190 N   0  0  0  0  0  0  0  0  0  0  0  0
    9.7530    8.6620   22.9450 C   0  0  0  0  0  0  0  0  0  0  0  0
    7.7900    9.9910   25.0770 C   0  0  0  0  0  0  0  0  0  0  0  0
    7.0950   10.8050   25.9590 C   0  0  0  0  0  0  0  0  0  0  0  0
    7.3710   12.1660   26.0450 C   0  0  0  0  0  0  0  0  0  0  0  0
    8.3480   12.7450   25.2540 C   0  0  0  0  0  0  0  0  0  0  0  0
 21 20  1  0
 20 17  1  0
 17 16  2  0
 16 14  1  0
 15 14  2  0
 14 13  1  0
 13 12  1  0
 12 11  1  0
 11 10  1  0
 10  7  2  0
  7  6  1  0
  6  5  2  0
  5  2  1  0
  4  2  1  0
  3  2  2  0
  2  1  2  0
  8  5  1  0
  9  8  2  0
 10  9  1  0
 18 16  1  0
 18 25  2  0
 25 24  1  0
 24 23  2  0
 23 22  1  0
 22 19  2  0
 19 18  1  0
 20 19  1  0
M  END
>  <id>  (169) 
169

>  <inchikey>  (169) 
ZXSRGQIDSRIHFJ-UHFFFAOYSA-N

>  <alias>  (169) 
A3324a

>  <smiles>  (169) 
Cn1nc(C(=O)NCCc2ccc(S(C)(=O)=O)cc2)c2ccccc21

>  <path>  (169) 
/opt/xchem-fragalysis-2/maxwin/BulkDock/TARGETS/A71EV2A/aligned_files/A3324a/A3324a.pdb

>  <distance_score>  (169) 
None

>  <energy_score>  (169) 
None

>  <compound>  (169) 
ZXSRGQIDSRIHFJ-UHFFFAOYSA-N

>  <compound_id>  (169) 
137

>  <target>  (169) 
A71EV2A

>  <tags>  (169) 
['GOOD count', 'MEDIOCRE count', '[Other] S1 site', 'hits', '[Other] Sun-roof open', '[Other] S2 site', '[Other] P3 compound design', '[Other] upload_2 2024-12-12', 'Main status', '[Other] New', '[Series] Indazole series', 'BAD count']

>  <inspirations>  (169) 
None

>  <subsites>  (169) 
None

>  <reference>  (169) 


>  <observation_longname>  (169) 
A71EV2A-x3324_A_201_v1

>  <ConformerSites alias>  (169) 
1b - A0911/A/147

>  <CanonSites alias>  (169) 
1 - Active Site

>  <CrystalformSites alias>  (169) 
F1a - A0375/A/201

>  <Quatassemblies alias>  (169) 
A1 - monomer

>  <Crystalforms alias>  (169) 
F1 - A71_2A_open

>  <ConformerSites upload name>  (169) 
1b - A71EV2A-x0911/A/147

>  <CanonSites upload name>  (169) 
1 - A71EV2A-x0911/A/147/1

>  <CrystalformSites upload name>  (169) 
F1a - A71EV2A-x0375/A/201/1

>  <Quatassemblies upload name>  (169) 
A1 - monomer

>  <Crystalforms upload name>  (169) 
F1 - A71_2A_open

>  <ConformerSites short tag>  (169) 
1b - A0911/A/147

>  <CanonSites short tag>  (169) 
1 - A0911/A/147/1

>  <CrystalformSites short tag>  (169) 
F1a - A0375/A/201

>  <Quatassemblies short tag>  (169) 
A1 - monomer

>  <Crystalforms short tag>  (169) 
F1 - A71_2A_open

>  <Centroid res>  (169) 
A71EV2A-x0911/A/133/A_v1

>  <Experiment code>  (169) 
A71EV2A-x3324

>  <Pose>  (169) 
A3324a

$$$$
A3579a
     RDKit          3D

 19 20  0  0  0  0  0  0  0  0999 V2000
   11.3650   14.6340   25.0880 O   0  0  0  0  0  0  0  0  0  0  0  0
   11.2550   14.7910   23.8750 C   0  0  0  0  0  0  0  0  0  0  0  0
   12.4530   15.1840   23.0480 C   0  0  0  0  0  0  0  0  0  0  0  0
   12.1230   15.7370   21.6600 C   0  0  0  0  0  0  0  0  0  0  0  0
   11.0900   14.8420   20.9550 C   0  0  2  0  0  0  0  0  0  0  0  0
   10.8270   15.3170   19.5340 C   0  0  0  0  0  0  0  0  0  0  0  0
   10.3240   16.4240   19.3150 O   0  0  0  0  0  0  0  0  0  0  0  0
   11.1350   14.4680   18.5680 N   0  0  0  0  0  0  0  0  0  0  0  0
    9.8060   14.8580   21.7970 C   0  0  0  0  0  0  0  0  0  0  0  0
   10.0770   14.6180   23.2200 N   0  0  0  0  0  0  0  0  0  0  0  0
    8.8920   14.2020   23.9770 C   0  0  0  0  0  0  0  0  0  0  0  0
    8.7520   12.7010   24.1170 C   0  0  0  0  0  0  0  0  0  0  0  0
    7.7270   12.1780   24.9070 C   0  0  0  0  0  0  0  0  0  0  0  0
    6.9610   13.1160   25.5440 O   0  0  0  0  0  0  0  0  0  0  0  0
    5.9820   12.6640   26.4950 C   0  0  0  0  0  0  0  0  0  0  0  0
    9.5920   11.8080   23.4510 C   0  0  0  0  0  0  0  0  0  0  0  0
    9.4000   10.4420   23.5610 C   0  0  0  0  0  0  0  0  0  0  0  0
    8.3940    9.9490   24.3480 C   0  0  0  0  0  0  0  0  0  0  0  0
    7.5490   10.8090   25.0290 C   0  0  0  0  0  0  0  0  0  0  0  0
 15 14  1  0
 14 13  1  0
 13 19  2  0
 19 18  1  0
 18 17  2  0
 17 16  1  0
 16 12  2  0
 13 12  1  0
 12 11  1  0
 11 10  1  0
 10  9  1  0
  9  5  1  0
  5  6  1  6
  8  6  1  0
  7  6  2  0
  5  4  1  0
  4  3  1  0
  3  2  1  0
 10  2  1  0
  2  1  2  0
M  END
>  <id>  (170) 
170

>  <inchikey>  (170) 
PBLXCFVVIRAUAX-NSHDSACASA-N

>  <alias>  (170) 
A3579a

>  <smiles>  (170) 
COc1ccccc1CN1C[C@@H](C(N)=O)CCC1=O

>  <path>  (170) 
/opt/xchem-fragalysis-2/maxwin/BulkDock/TARGETS/A71EV2A/aligned_files/A3579a/A3579a.pdb

>  <distance_score>  (170) 
None

>  <energy_score>  (170) 
None

>  <compound>  (170) 
PBLXCFVVIRAUAX-UHFFFAOYSA-N

>  <compound_id>  (170) 
138

>  <target>  (170) 
A71EV2A

>  <tags>  (170) 
['GOOD count', 'MEDIOCRE count', '[Other] S1 site', 'hits', '[Other] S2 site', '[Other] Lactam Series', '[Other] P3 compound design', 'Main status', '[Other] upload_061224', 'BAD count']

>  <inspirations>  (170) 
None

>  <subsites>  (170) 
None

>  <reference>  (170) 


>  <observation_longname>  (170) 
A71EV2A-x3579_A_201_v1

>  <ConformerSites alias>  (170) 
1b - A0911/A/147

>  <CanonSites alias>  (170) 
1 - Active Site

>  <CrystalformSites alias>  (170) 
F2b - A0450/A/201

>  <Quatassemblies alias>  (170) 
A1 - monomer

>  <Crystalforms alias>  (170) 
F2 - A71_2A_open_small_cell

>  <ConformerSites upload name>  (170) 
1b - A71EV2A-x0911/A/147

>  <CanonSites upload name>  (170) 
1 - A71EV2A-x0911/A/147/1

>  <CrystalformSites upload name>  (170) 
F2b - A71EV2A-x0450/A/201/1

>  <Quatassemblies upload name>  (170) 
A1 - monomer

>  <Crystalforms upload name>  (170) 
F2 - A71_2A_open_small_cell

>  <ConformerSites short tag>  (170) 
1b - A0911/A/147

>  <CanonSites short tag>  (170) 
1 - A0911/A/147/1

>  <CrystalformSites short tag>  (170) 
F2b - A0450/A/201

>  <Quatassemblies short tag>  (170) 
A1 - monomer

>  <Crystalforms short tag>  (170) 
F2 - A71_2A_open_small_cell

>  <Centroid res>  (170) 
A71EV2A-x0911/A/133/A_v1

>  <Experiment code>  (170) 
A71EV2A-x3579

>  <Pose>  (170) 
A3579a

$$$$
A3581a
     RDKit          3D

 19 20  0  0  0  0  0  0  0  0999 V2000
   10.3130   16.4450   19.2000 O   0  0  0  0  0  0  0  0  0  0  0  0
   10.9120   15.3720   19.3640 C   0  0  0  0  0  0  0  0  0  0  0  0
   11.2800   14.5950   18.3590 N   0  0  0  0  0  0  0  0  0  0  0  0
   11.2020   14.8310   20.7550 C   0  0  1  0  0  0  0  0  0  0  0  0
   11.9860   15.7360   21.7240 C   0  0  0  0  0  0  0  0  0  0  0  0
   11.7510   15.0670   23.0790 C   0  0  0  0  0  0  0  0  0  0  0  0
    9.9250   14.5440   21.5550 C   0  0  0  0  0  0  0  0  0  0  0  0
   10.3870   14.5230   22.9510 N   0  0  0  0  0  0  0  0  0  0  0  0
    9.6300   14.1090   23.9930 C   0  0  0  0  0  0  0  0  0  0  0  0
   10.0140   14.2030   25.1520 O   0  0  0  0  0  0  0  0  0  0  0  0
    8.2200   13.6400   23.6650 C   0  0  0  0  0  0  0  0  0  0  0  0
    7.6760   12.5980   24.6180 C   0  0  0  0  0  0  0  0  0  0  0  0
    7.9780   11.2470   24.4330 C   0  0  0  0  0  0  0  0  0  0  0  0
    8.8870   10.9900   23.4390 O   0  0  0  0  0  0  0  0  0  0  0  0
    9.3430    9.6390   23.2840 C   0  0  0  0  0  0  0  0  0  0  0  0
    6.7740   12.9390   25.6270 C   0  0  0  0  0  0  0  0  0  0  0  0
    6.1720   11.9620   26.4080 C   0  0  0  0  0  0  0  0  0  0  0  0
    6.4610   10.6320   26.1940 C   0  0  0  0  0  0  0  0  0  0  0  0
    7.3610   10.2660   25.2020 C   0  0  0  0  0  0  0  0  0  0  0  0
 15 14  1  0
 14 13  1  0
 13 19  2  0
 19 18  1  0
 18 17  2  0
 17 16  1  0
 16 12  2  0
 13 12  1  0
 12 11  1  0
 11  9  1  0
 10  9  2  0
  9  8  1  0
  8  6  1  0
  6  5  1  0
  5  4  1  0
  4  2  1  6
  3  2  1  0
  2  1  2  0
  7  4  1  0
  8  7  1  0
M  END
>  <id>  (171) 
171

>  <inchikey>  (171) 
ACVLTQNPXWHBQP-NSHDSACASA-N

>  <alias>  (171) 
A3581a

>  <smiles>  (171) 
COc1ccccc1CC(=O)N1CC[C@H](C(N)=O)C1

>  <path>  (171) 
/opt/xchem-fragalysis-2/maxwin/BulkDock/TARGETS/A71EV2A/aligned_files/A3581a/A3581a.pdb

>  <distance_score>  (171) 
None

>  <energy_score>  (171) 
None

>  <compound>  (171) 
ACVLTQNPXWHBQP-UHFFFAOYSA-N

>  <compound_id>  (171) 
139

>  <target>  (171) 
A71EV2A

>  <tags>  (171) 
['GOOD count', 'MEDIOCRE count', '[Other] S1 site', 'hits', '[Other] S2 site', '[Other] P3 compound design', '[Series] Piperidine series', 'Main status', '[Other] upload_061224', 'BAD count']

>  <inspirations>  (171) 
None

>  <subsites>  (171) 
None

>  <reference>  (171) 


>  <observation_longname>  (171) 
A71EV2A-x3581_A_201_v1

>  <ConformerSites alias>  (171) 
1b - A0911/A/147

>  <CanonSites alias>  (171) 
1 - Active Site

>  <CrystalformSites alias>  (171) 
F1a - A0375/A/201

>  <Quatassemblies alias>  (171) 
A1 - monomer

>  <Crystalforms alias>  (171) 
F1 - A71_2A_open

>  <ConformerSites upload name>  (171) 
1b - A71EV2A-x0911/A/147

>  <CanonSites upload name>  (171) 
1 - A71EV2A-x0911/A/147/1

>  <CrystalformSites upload name>  (171) 
F1a - A71EV2A-x0375/A/201/1

>  <Quatassemblies upload name>  (171) 
A1 - monomer

>  <Crystalforms upload name>  (171) 
F1 - A71_2A_open

>  <ConformerSites short tag>  (171) 
1b - A0911/A/147

>  <CanonSites short tag>  (171) 
1 - A0911/A/147/1

>  <CrystalformSites short tag>  (171) 
F1a - A0375/A/201

>  <Quatassemblies short tag>  (171) 
A1 - monomer

>  <Crystalforms short tag>  (171) 
F1 - A71_2A_open

>  <Centroid res>  (171) 
A71EV2A-x0911/A/133/A_v1

>  <Experiment code>  (171) 
A71EV2A-x3581

>  <Pose>  (171) 
A3581a

$$$$
A3585a
     RDKit          3D

 23 25  0  0  0  0  0  0  0  0999 V2000
   10.2450   16.7160   19.2730 O   0  0  0  0  0  0  0  0  0  0  0  0
   10.6960   15.6020   19.5580 C   0  0  0  0  0  0  0  0  0  0  0  0
   11.1380   14.7520   18.6500 N   0  0  0  0  0  0  0  0  0  0  0  0
   10.7430   15.1190   20.9980 C   0  0  1  0  0  0  0  0  0  0  0  0
   11.9020   15.7640   21.7720 C   0  0  0  0  0  0  0  0  0  0  0  0
   11.9510   15.2540   23.2160 C   0  0  0  0  0  0  0  0  0  0  0  0
   10.6010   15.4350   23.9180 C   0  0  0  0  0  0  0  0  0  0  0  0
    9.4840   15.5550   21.7560 C   0  0  0  0  0  0  0  0  0  0  0  0
    9.4850   14.9470   23.0890 N   0  0  0  0  0  0  0  0  0  0  0  0
    8.8900   13.7250   23.2440 C   0  0  0  0  0  0  0  0  0  0  0  0
    8.0640   13.3050   22.4440 O   0  0  0  0  0  0  0  0  0  0  0  0
    9.2330   13.0280   24.3580 N   0  0  0  0  0  0  0  0  0  0  0  0
    8.7760   11.7120   24.6160 C   0  0  0  0  0  0  0  0  0  0  0  0
    9.4130   10.6100   24.0530 C   0  0  0  0  0  0  0  0  0  0  0  0
    7.6720   11.5160   25.4600 C   0  0  0  0  0  0  0  0  0  0  0  0
    7.2630   10.1940   25.7150 C   0  0  0  0  0  0  0  0  0  0  0  0
    6.2060   10.2800   26.5700 N   0  0  0  0  0  0  0  0  0  0  0  0
    5.5430    9.2030   27.2960 C   0  0  0  0  0  0  0  0  0  0  0  0
    5.8900   11.5780   26.8470 N   0  0  0  0  0  0  0  0  0  0  0  0
    6.7620   12.3180   26.1950 C   0  0  0  0  0  0  0  0  0  0  0  0
    7.9010    9.1070   25.1230 C   0  0  0  0  0  0  0  0  0  0  0  0
    8.9850    9.3070   24.2770 C   0  0  0  0  0  0  0  0  0  0  0  0
    9.6720    8.1420   23.6030 C   0  0  0  0  0  0  0  0  0  0  0  0
 23 22  1  0
 22 14  2  0
 14 13  1  0
 13 12  1  0
 12 10  1  0
 11 10  2  0
 10  9  1  0
  9  7  1  0
  7  6  1  0
  6  5  1  0
  5  4  1  0
  4  2  1  6
  3  2  1  0
  2  1  2  0
  8  4  1  0
  9  8  1  0
 15 13  2  0
 15 20  1  0
 20 19  2  0
 19 17  1  0
 18 17  1  0
 17 16  1  0
 16 15  1  0
 21 16  2  0
 22 21  1  0
M  END
>  <id>  (172) 
172

>  <inchikey>  (172) 
SHBNFEQFDBWXOH-NSHDSACASA-N

>  <alias>  (172) 
A3585a

>  <smiles>  (172) 
Cc1cc(NC(=O)N2CCC[C@H](C(N)=O)C2)c2cnn(C)c2c1

>  <path>  (172) 
/opt/xchem-fragalysis-2/maxwin/BulkDock/TARGETS/A71EV2A/aligned_files/A3585a/A3585a.pdb

>  <distance_score>  (172) 
None

>  <energy_score>  (172) 
None

>  <compound>  (172) 
SHBNFEQFDBWXOH-UHFFFAOYSA-N

>  <compound_id>  (172) 
140

>  <target>  (172) 
A71EV2A

>  <tags>  (172) 
['GOOD count', 'MEDIOCRE count', '[Other] S1 site', 'hits', '[Other] S2 site', '[Other] P3 compound design', '[Series] Piperidine series', 'Main status', '[Other] upload_061224', 'BAD count']

>  <inspirations>  (172) 
None

>  <subsites>  (172) 
None

>  <reference>  (172) 


>  <observation_longname>  (172) 
A71EV2A-x3585_A_201_v1

>  <ConformerSites alias>  (172) 
1b - A0911/A/147

>  <CanonSites alias>  (172) 
1 - Active Site

>  <CrystalformSites alias>  (172) 
F1l - A3585/A/201

>  <Quatassemblies alias>  (172) 
A1 - monomer

>  <Crystalforms alias>  (172) 
F1 - A71_2A_open

>  <ConformerSites upload name>  (172) 
1b - A71EV2A-x0911/A/147

>  <CanonSites upload name>  (172) 
1 - A71EV2A-x0911/A/147/1

>  <CrystalformSites upload name>  (172) 
F1l - A71EV2A-x3585/A/201/1

>  <Quatassemblies upload name>  (172) 
A1 - monomer

>  <Crystalforms upload name>  (172) 
F1 - A71_2A_open

>  <ConformerSites short tag>  (172) 
1b - A0911/A/147

>  <CanonSites short tag>  (172) 
1 - A0911/A/147/1

>  <CrystalformSites short tag>  (172) 
F1l - A3585/A/201

>  <Quatassemblies short tag>  (172) 
A1 - monomer

>  <Crystalforms short tag>  (172) 
F1 - A71_2A_open

>  <Centroid res>  (172) 
A71EV2A-x0911/A/133/A_v1

>  <Experiment code>  (172) 
A71EV2A-x3585

>  <Pose>  (172) 
A3585a

$$$$
A3587a
     RDKit          3D

 21 22  0  0  0  0  0  0  0  0999 V2000
   10.6910   16.7880   19.2180 O   0  0  0  0  0  0  0  0  0  0  0  0
   10.8870   15.5870   19.4540 C   0  0  0  0  0  0  0  0  0  0  0  0
   11.2350   14.7240   18.5250 N   0  0  0  0  0  0  0  0  0  0  0  0
   10.8140   15.0330   20.8670 C   0  0  1  0  0  0  0  0  0  0  0  0
   11.8280   15.7220   21.7950 C   0  0  0  0  0  0  0  0  0  0  0  0
   11.7580   15.1990   23.2390 C   0  0  0  0  0  0  0  0  0  0  0  0
   10.3220   15.1700   23.7540 C   0  0  0  0  0  0  0  0  0  0  0  0
    9.4180   15.1160   21.4830 C   0  0  0  0  0  0  0  0  0  0  0  0
    9.4320   14.4790   22.8050 N   0  0  0  0  0  0  0  0  0  0  0  0
    8.4180   13.6220   23.1380 C   0  0  0  0  0  0  0  0  0  0  0  0
    7.5970   13.2390   22.3190 O   0  0  0  0  0  0  0  0  0  0  0  0
    8.3320   13.2760   24.4370 N   0  0  0  0  0  0  0  0  0  0  0  0
    7.4630   12.2330   24.8590 C   0  0  0  0  0  0  0  0  0  0  0  0
    6.3640   12.5220   25.6880 C   0  0  0  0  0  0  0  0  0  0  0  0
    6.0510   13.8530   25.8060 O   0  0  0  0  0  0  0  0  0  0  0  0
    4.6710   14.2090   25.7650 C   0  0  0  0  0  0  0  0  0  0  0  0
    7.8020   10.8930   24.6620 C   0  0  0  0  0  0  0  0  0  0  0  0
    9.2140   10.4870   23.7370 Cl  0  0  0  0  0  0  0  0  0  0  0  0
    7.0940    9.8740   25.2610 C   0  0  0  0  0  0  0  0  0  0  0  0
    6.0480   10.1840   26.1120 C   0  0  0  0  0  0  0  0  0  0  0  0
    5.6850   11.5030   26.3360 C   0  0  0  0  0  0  0  0  0  0  0  0
 16 15  1  0
 15 14  1  0
 14 21  2  0
 21 20  1  0
 20 19  2  0
 19 17  1  0
 18 17  1  0
 17 13  2  0
 14 13  1  0
 13 12  1  0
 12 10  1  0
 11 10  2  0
 10  9  1  0
  9  7  1  0
  7  6  1  0
  6  5  1  0
  5  4  1  0
  4  2  1  6
  3  2  1  0
  2  1  2  0
  8  4  1  0
  9  8  1  0
M  END
>  <id>  (173) 
173

>  <inchikey>  (173) 
BAWQVTYFUSCRSF-VIFPVBQESA-N

>  <alias>  (173) 
A3587a

>  <smiles>  (173) 
COc1cccc(Cl)c1NC(=O)N1CCC[C@H](C(N)=O)C1

>  <path>  (173) 
/opt/xchem-fragalysis-2/maxwin/BulkDock/TARGETS/A71EV2A/aligned_files/A3587a/A3587a.pdb

>  <distance_score>  (173) 
None

>  <energy_score>  (173) 
None

>  <compound>  (173) 
BAWQVTYFUSCRSF-UHFFFAOYSA-N

>  <compound_id>  (173) 
141

>  <target>  (173) 
A71EV2A

>  <tags>  (173) 
['GOOD count', 'MEDIOCRE count', '[Other] S1 site', 'hits', '[Other] S2 site', '[Other] P3 compound design', '[Series] Piperidine series', 'Main status', '[Other] upload_061224', 'BAD count']

>  <inspirations>  (173) 
None

>  <subsites>  (173) 
None

>  <reference>  (173) 


>  <observation_longname>  (173) 
A71EV2A-x3587_A_201_v1

>  <ConformerSites alias>  (173) 
1b - A0911/A/147

>  <CanonSites alias>  (173) 
1 - Active Site

>  <CrystalformSites alias>  (173) 
F8h - A0884/A/147

>  <Quatassemblies alias>  (173) 
A1 - monomer

>  <Crystalforms alias>  (173) 
F8 - A712A_x4271_2.1_refmac1_1st_ref

>  <ConformerSites upload name>  (173) 
1b - A71EV2A-x0911/A/147

>  <CanonSites upload name>  (173) 
1 - A71EV2A-x0911/A/147/1

>  <CrystalformSites upload name>  (173) 
F8h - A71EV2A-x0884/A/147/1

>  <Quatassemblies upload name>  (173) 
A1 - monomer

>  <Crystalforms upload name>  (173) 
F8 - A712A_x4271_2.1_refmac1_1st_ref

>  <ConformerSites short tag>  (173) 
1b - A0911/A/147

>  <CanonSites short tag>  (173) 
1 - A0911/A/147/1

>  <CrystalformSites short tag>  (173) 
F8h - A0884/A/147

>  <Quatassemblies short tag>  (173) 
A1 - monomer

>  <Crystalforms short tag>  (173) 
F8 - A712A_x4271_2.1_refmac1_1st_ref

>  <Centroid res>  (173) 
A71EV2A-x0911/A/133/A_v1

>  <Experiment code>  (173) 
A71EV2A-x3587

>  <Pose>  (173) 
A3587a

$$$$
A3371a
     RDKit          3D

 21 23  0  0  0  0  0  0  0  0999 V2000
    9.3670   14.5150   23.8750 O   0  0  0  0  0  0  0  0  0  0  0  0
    9.6930   13.5050   23.2580 C   0  0  0  0  0  0  0  0  0  0  0  0
    9.1820   12.1200   23.6820 C   0  0  0  0  0  0  0  0  0  0  0  0
    8.1510   11.7630   24.6350 C   0  0  0  0  0  0  0  0  0  0  0  0
    7.3050   12.4360   25.5090 C   0  0  0  0  0  0  0  0  0  0  0  0
    6.3310   11.7280   26.2040 C   0  0  0  0  0  0  0  0  0  0  0  0
    6.2010   10.3540   26.0460 C   0  0  0  0  0  0  0  0  0  0  0  0
    7.0510    9.6640   25.1960 C   0  0  0  0  0  0  0  0  0  0  0  0
    8.0170   10.3770   24.5000 C   0  0  0  0  0  0  0  0  0  0  0  0
    8.9090    9.9820   23.5530 N   0  0  0  0  0  0  0  0  0  0  0  0
    9.1060    8.6430   23.0210 C   0  0  0  0  0  0  0  0  0  0  0  0
    9.6360   11.0380   23.0550 N   0  0  0  0  0  0  0  0  0  0  0  0
   10.4600   13.5340   22.1660 N   0  0  0  0  0  0  0  0  0  0  0  0
   10.9280   14.7700   21.5470 C   0  0  0  0  0  0  0  0  0  0  0  0
   12.4400   14.8440   21.5050 C   0  0  0  0  0  0  0  0  0  0  0  0
   12.9620   15.9950   20.6980 C   0  0  0  0  0  0  0  0  0  0  0  0
   12.8110   16.0350   19.3270 N   0  0  0  0  0  0  0  0  0  0  0  0
   13.3530   17.1690   18.9520 C   0  0  0  0  0  0  0  0  0  0  0  0
   13.6130   17.1190   21.1070 C   0  0  0  0  0  0  0  0  0  0  0  0
   13.8520   17.8570   19.9850 N   0  0  0  0  0  0  0  0  0  0  0  0
   14.5120   19.1590   19.9260 C   0  0  0  0  0  0  0  0  0  0  0  0
 21 20  1  0
 20 18  1  0
 18 17  2  0
 17 16  1  0
 16 15  1  0
 15 14  1  0
 14 13  1  0
 13  2  1  0
  2  1  2  0
  3  2  1  0
  3 12  2  0
 12 10  1  0
 11 10  1  0
 10  9  1  0
  9  8  1  0
  8  7  2  0
  7  6  1  0
  6  5  2  0
  5  4  1  0
  4  3  1  0
  9  4  2  0
 19 16  2  0
 20 19  1  0
M  END
>  <id>  (174) 
174

>  <inchikey>  (174) 
NQHLIPQTOQIZAL-UHFFFAOYSA-N

>  <alias>  (174) 
A3371a

>  <smiles>  (174) 
Cn1cnc(CCNC(=O)c2nn(C)c3ccccc23)c1

>  <path>  (174) 
/opt/xchem-fragalysis-2/maxwin/BulkDock/TARGETS/A71EV2A/aligned_files/A3371a/A3371a.pdb

>  <distance_score>  (174) 
None

>  <energy_score>  (174) 
None

>  <compound>  (174) 
NQHLIPQTOQIZAL-UHFFFAOYSA-N

>  <compound_id>  (174) 
142

>  <target>  (174) 
A71EV2A

>  <tags>  (174) 
['GOOD count', 'MEDIOCRE count', '[Other] S1 site', 'hits', '[Other] Sun-roof open', '[Other] S2 site', '[Other] P3 compound design', '[Other] upload_2 2024-12-12', 'Main status', '[Series] Indazole series', 'BAD count']

>  <inspirations>  (174) 
None

>  <subsites>  (174) 
None

>  <reference>  (174) 


>  <observation_longname>  (174) 
A71EV2A-x3371_A_201_v1

>  <ConformerSites alias>  (174) 
1b - A0911/A/147

>  <CanonSites alias>  (174) 
1 - Active Site

>  <CrystalformSites alias>  (174) 
F5i - A3175/A/201

>  <Quatassemblies alias>  (174) 
A1 - monomer

>  <Crystalforms alias>  (174) 
F5 - A71EV2A_x3178_new_long_dials_041024

>  <ConformerSites upload name>  (174) 
1b - A71EV2A-x0911/A/147

>  <CanonSites upload name>  (174) 
1 - A71EV2A-x0911/A/147/1

>  <CrystalformSites upload name>  (174) 
F5i - A71EV2A-x3175/A/201/1

>  <Quatassemblies upload name>  (174) 
A1 - monomer

>  <Crystalforms upload name>  (174) 
F5 - A71EV2A_x3178_new_long_dials_041024

>  <ConformerSites short tag>  (174) 
1b - A0911/A/147

>  <CanonSites short tag>  (174) 
1 - A0911/A/147/1

>  <CrystalformSites short tag>  (174) 
F5i - A3175/A/201

>  <Quatassemblies short tag>  (174) 
A1 - monomer

>  <Crystalforms short tag>  (174) 
F5 - A71EV2A_x3178_new_long_dials_041024

>  <Centroid res>  (174) 
A71EV2A-x0911/A/133/A_v1

>  <Experiment code>  (174) 
A71EV2A-x3371

>  <Pose>  (174) 
A3371a

$$$$
A3379a
     RDKit          3D

 21 23  0  0  0  0  0  0  0  0999 V2000
    9.3410   14.3990   24.6050 O   0  0  0  0  0  0  0  0  0  0  0  0
    9.6020   13.4920   23.8040 C   0  0  0  0  0  0  0  0  0  0  0  0
    8.9970   12.1500   23.9760 C   0  0  0  0  0  0  0  0  0  0  0  0
    7.9530   11.7440   24.8740 C   0  0  0  0  0  0  0  0  0  0  0  0
    7.1340   12.3710   25.8170 C   0  0  0  0  0  0  0  0  0  0  0  0
    6.2140   11.6150   26.5290 C   0  0  0  0  0  0  0  0  0  0  0  0
    6.0980   10.2440   26.3130 C   0  0  0  0  0  0  0  0  0  0  0  0
    6.8930    9.6100   25.3650 C   0  0  0  0  0  0  0  0  0  0  0  0
    7.8100   10.3690   24.6550 C   0  0  0  0  0  0  0  0  0  0  0  0
    8.7090   10.0280   23.6900 N   0  0  0  0  0  0  0  0  0  0  0  0
    9.0810    8.6960   23.2410 C   0  0  0  0  0  0  0  0  0  0  0  0
    9.4180   11.1190   23.2390 N   0  0  0  0  0  0  0  0  0  0  0  0
   10.4640   13.6360   22.7890 N   0  0  0  0  0  0  0  0  0  0  0  0
   11.5640   14.5900   22.9410 C   0  0  1  0  0  0  0  0  0  0  0  0
   12.6330   14.0420   23.8690 C   0  0  0  0  0  0  0  0  0  0  0  0
   12.1040   14.8050   21.5350 C   0  0  0  0  0  0  0  0  0  0  0  0
   11.1480   15.5140   20.6360 C   0  0  0  0  0  0  0  0  0  0  0  0
   10.4980   16.6740   21.0560 N   0  0  0  0  0  0  0  0  0  0  0  0
    9.7610   16.9970   20.0570 C   0  0  0  0  0  0  0  0  0  0  0  0
    9.8590   16.1820   18.9820 O   0  0  0  0  0  0  0  0  0  0  0  0
   10.7360   15.2190   19.3930 C   0  0  0  0  0  0  0  0  0  0  0  0
 14 15  1  1
 16 14  1  0
 17 16  1  0
 17 21  2  0
 21 20  1  0
 20 19  1  0
 19 18  2  0
 18 17  1  0
 14 13  1  0
 13  2  1  0
  2  1  2  0
  3  2  1  0
  3 12  2  0
 12 10  1  0
 11 10  1  0
 10  9  1  0
  9  8  1  0
  8  7  2  0
  7  6  1  0
  6  5  2  0
  5  4  1  0
  4  3  1  0
  9  4  2  0
M  END
>  <id>  (175) 
175

>  <inchikey>  (175) 
LQNOWDAJBFJAFM-JTQLQIEISA-N

>  <alias>  (175) 
A3379a

>  <smiles>  (175) 
C[C@@H](Cc1cocn1)NC(=O)c1nn(C)c2ccccc12

>  <path>  (175) 
/opt/xchem-fragalysis-2/maxwin/BulkDock/TARGETS/A71EV2A/aligned_files/A3379a/A3379a.pdb

>  <distance_score>  (175) 
None

>  <energy_score>  (175) 
None

>  <compound>  (175) 
LQNOWDAJBFJAFM-UHFFFAOYSA-N

>  <compound_id>  (175) 
143

>  <target>  (175) 
A71EV2A

>  <tags>  (175) 
['GOOD count', "[Other] S1' site", 'MEDIOCRE count', '[Other] S1 site', 'hits', '[Other] S2 site', '[Other] P3 compound design', '[Series] Indazole series', 'Main status', '[Other] upload_061224', 'BAD count']

>  <inspirations>  (175) 
None

>  <subsites>  (175) 
None

>  <reference>  (175) 


>  <observation_longname>  (175) 
A71EV2A-x3379_A_201_v1

>  <ConformerSites alias>  (175) 
1b - A0911/A/147

>  <CanonSites alias>  (175) 
1 - Active Site

>  <CrystalformSites alias>  (175) 
F5i - A3175/A/201

>  <Quatassemblies alias>  (175) 
A1 - monomer

>  <Crystalforms alias>  (175) 
F5 - A71EV2A_x3178_new_long_dials_041024

>  <ConformerSites upload name>  (175) 
1b - A71EV2A-x0911/A/147

>  <CanonSites upload name>  (175) 
1 - A71EV2A-x0911/A/147/1

>  <CrystalformSites upload name>  (175) 
F5i - A71EV2A-x3175/A/201/1

>  <Quatassemblies upload name>  (175) 
A1 - monomer

>  <Crystalforms upload name>  (175) 
F5 - A71EV2A_x3178_new_long_dials_041024

>  <ConformerSites short tag>  (175) 
1b - A0911/A/147

>  <CanonSites short tag>  (175) 
1 - A0911/A/147/1

>  <CrystalformSites short tag>  (175) 
F5i - A3175/A/201

>  <Quatassemblies short tag>  (175) 
A1 - monomer

>  <Crystalforms short tag>  (175) 
F5 - A71EV2A_x3178_new_long_dials_041024

>  <Centroid res>  (175) 
A71EV2A-x0911/A/133/A_v1

>  <Experiment code>  (175) 
A71EV2A-x3379

>  <Pose>  (175) 
A3379a

$$$$
A3392a
     RDKit          3D

 19 21  0  0  0  0  0  0  0  0999 V2000
   10.1360   13.5680   25.0520 O   0  0  0  0  0  0  0  0  0  0  0  0
   10.0020   12.9170   24.0320 C   0  0  0  0  0  0  0  0  0  0  0  0
    9.1090   11.8270   23.9810 N   0  0  0  0  0  0  0  0  0  0  0  0
    8.0590   11.5990   24.8810 C   0  0  0  0  0  0  0  0  0  0  0  0
    7.3040   12.5180   25.5990 C   0  0  0  0  0  0  0  0  0  0  0  0
    6.2980   12.0490   26.4330 C   0  0  0  0  0  0  0  0  0  0  0  0
    6.0470   10.6940   26.5390 C   0  0  0  0  0  0  0  0  0  0  0  0
    6.8010    9.7850   25.8170 C   0  0  0  0  0  0  0  0  0  0  0  0
    7.8190   10.2330   24.9880 C   0  0  0  0  0  0  0  0  0  0  0  0
    8.7840    9.4680   24.1280 C   0  0  0  0  0  0  0  0  0  0  0  0
    9.5160   10.5610   23.3470 C   0  0  0  0  0  0  0  0  0  0  0  0
   10.6860   13.1290   22.9020 N   0  0  0  0  0  0  0  0  0  0  0  0
   11.5480   14.2950   22.7590 C   0  0  0  0  0  0  0  0  0  0  0  0
   12.0500   14.4520   21.3400 C   0  0  0  0  0  0  0  0  0  0  0  0
   11.0090   15.1710   20.5440 C   0  0  0  0  0  0  0  0  0  0  0  0
   10.3770   16.3030   21.0300 N   0  0  0  0  0  0  0  0  0  0  0  0
    9.5810   16.6430   20.0850 C   0  0  0  0  0  0  0  0  0  0  0  0
    9.6070   15.8520   18.9940 O   0  0  0  0  0  0  0  0  0  0  0  0
   10.5370   14.9090   19.3190 C   0  0  0  0  0  0  0  0  0  0  0  0
  2  1  2  0
 12  2  1  0
 13 12  1  0
 14 13  1  0
 15 14  1  0
 15 19  2  0
 19 18  1  0
 18 17  1  0
 17 16  2  0
 16 15  1  0
  3  2  1  0
  3 11  1  0
 11 10  1  0
 10  9  1  0
  9  8  1  0
  8  7  2  0
  7  6  1  0
  6  5  2  0
  5  4  1  0
  9  4  2  0
  4  3  1  0
M  END
>  <id>  (176) 
176

>  <inchikey>  (176) 
CFBYKVAFAXYDRK-UHFFFAOYSA-N

>  <alias>  (176) 
A3392a

>  <smiles>  (176) 
O=C(NCCc1cocn1)N1CCc2ccccc21

>  <path>  (176) 
/opt/xchem-fragalysis-2/maxwin/BulkDock/TARGETS/A71EV2A/aligned_files/A3392a/A3392a.pdb

>  <distance_score>  (176) 
None

>  <energy_score>  (176) 
None

>  <compound>  (176) 
CFBYKVAFAXYDRK-UHFFFAOYSA-N

>  <compound_id>  (176) 
144

>  <target>  (176) 
A71EV2A

>  <tags>  (176) 
['GOOD count', 'MEDIOCRE count', '[Other] S1 site', 'hits', '[Other] S2 site', '[Other] P3 compound design', 'Main status', '[Other] upload_061224', 'BAD count']

>  <inspirations>  (176) 
None

>  <subsites>  (176) 
None

>  <reference>  (176) 


>  <observation_longname>  (176) 
A71EV2A-x3392_A_201_v1

>  <ConformerSites alias>  (176) 
1b - A0911/A/147

>  <CanonSites alias>  (176) 
1 - Active Site

>  <CrystalformSites alias>  (176) 
F5i - A3175/A/201

>  <Quatassemblies alias>  (176) 
A1 - monomer

>  <Crystalforms alias>  (176) 
F5 - A71EV2A_x3178_new_long_dials_041024

>  <ConformerSites upload name>  (176) 
1b - A71EV2A-x0911/A/147

>  <CanonSites upload name>  (176) 
1 - A71EV2A-x0911/A/147/1

>  <CrystalformSites upload name>  (176) 
F5i - A71EV2A-x3175/A/201/1

>  <Quatassemblies upload name>  (176) 
A1 - monomer

>  <Crystalforms upload name>  (176) 
F5 - A71EV2A_x3178_new_long_dials_041024

>  <ConformerSites short tag>  (176) 
1b - A0911/A/147

>  <CanonSites short tag>  (176) 
1 - A0911/A/147/1

>  <CrystalformSites short tag>  (176) 
F5i - A3175/A/201

>  <Quatassemblies short tag>  (176) 
A1 - monomer

>  <Crystalforms short tag>  (176) 
F5 - A71EV2A_x3178_new_long_dials_041024

>  <Centroid res>  (176) 
A71EV2A-x0911/A/133/A_v1

>  <Experiment code>  (176) 
A71EV2A-x3392

>  <Pose>  (176) 
A3392a

$$$$
A3403a
     RDKit          3D

 19 21  0  0  0  0  0  0  0  0999 V2000
   11.0520   14.8910   23.8250 O   0  0  0  0  0  0  0  0  0  0  0  0
   10.8770   14.2460   22.8040 C   0  0  0  0  0  0  0  0  0  0  0  0
   11.7280   14.4760   21.5770 C   0  0  0  0  0  0  0  0  0  0  0  0
   10.9370   15.2690   20.5820 C   0  0  0  0  0  0  0  0  0  0  0  0
   10.3730   16.4730   20.9710 N   0  0  0  0  0  0  0  0  0  0  0  0
    9.7450   16.8700   19.9320 C   0  0  0  0  0  0  0  0  0  0  0  0
    9.8290   16.0590   18.8560 O   0  0  0  0  0  0  0  0  0  0  0  0
   10.6080   15.0350   19.3060 C   0  0  0  0  0  0  0  0  0  0  0  0
    9.9090   13.3250   22.6610 N   0  0  0  0  0  0  0  0  0  0  0  0
    8.9250   12.9530   23.6010 C   0  0  0  0  0  0  0  0  0  0  0  0
    8.2270   13.8670   24.3910 C   0  0  0  0  0  0  0  0  0  0  0  0
    7.2190   13.4430   25.2420 C   0  0  0  0  0  0  0  0  0  0  0  0
    6.8950   12.1010   25.3320 C   0  0  0  0  0  0  0  0  0  0  0  0
    8.5990   11.5870   23.7020 C   0  0  0  0  0  0  0  0  0  0  0  0
    7.5910   11.1560   24.5760 C   0  0  0  0  0  0  0  0  0  0  0  0
    7.5630    9.7250   24.4180 C   0  0  0  0  0  0  0  0  0  0  0  0
    9.1600   10.5610   23.0300 N   0  0  0  0  0  0  0  0  0  0  0  0
    8.4990    9.4590   23.4960 N   0  0  0  0  0  0  0  0  0  0  0  0
    8.8650    8.1680   22.9170 C   0  0  0  0  0  0  0  0  0  0  0  0
 19 18  1  0
 18 16  1  0
 16 15  2  0
 15 13  1  0
 13 12  2  0
 12 11  1  0
 11 10  2  0
 10  9  1  0
  9  2  1  0
  2  1  2  0
  3  2  1  0
  4  3  1  0
  4  8  2  0
  8  7  1  0
  7  6  1  0
  6  5  2  0
  5  4  1  0
 14 10  1  0
 15 14  1  0
 17 14  2  0
 18 17  1  0
M  END
>  <id>  (177) 
177

>  <inchikey>  (177) 
YEAWWZXWMQIDNB-UHFFFAOYSA-N

>  <alias>  (177) 
A3403a

>  <smiles>  (177) 
Cn1cc2cccc(NC(=O)Cc3cocn3)c2n1

>  <path>  (177) 
/opt/xchem-fragalysis-2/maxwin/BulkDock/TARGETS/A71EV2A/aligned_files/A3403a/A3403a.pdb

>  <distance_score>  (177) 
None

>  <energy_score>  (177) 
None

>  <compound>  (177) 
YEAWWZXWMQIDNB-UHFFFAOYSA-N

>  <compound_id>  (177) 
145

>  <target>  (177) 
A71EV2A

>  <tags>  (177) 
['GOOD count', 'MEDIOCRE count', '[Other] S1 site', 'hits', '[Other] S2 site', '[Other] P3 compound design', '[Series] Indazole series', 'Main status', '[Other] upload_061224', 'BAD count']

>  <inspirations>  (177) 
None

>  <subsites>  (177) 
None

>  <reference>  (177) 


>  <observation_longname>  (177) 
A71EV2A-x3403_A_201_v1

>  <ConformerSites alias>  (177) 
1b - A0911/A/147

>  <CanonSites alias>  (177) 
1 - Active Site

>  <CrystalformSites alias>  (177) 
F5i - A3175/A/201

>  <Quatassemblies alias>  (177) 
A1 - monomer

>  <Crystalforms alias>  (177) 
F5 - A71EV2A_x3178_new_long_dials_041024

>  <ConformerSites upload name>  (177) 
1b - A71EV2A-x0911/A/147

>  <CanonSites upload name>  (177) 
1 - A71EV2A-x0911/A/147/1

>  <CrystalformSites upload name>  (177) 
F5i - A71EV2A-x3175/A/201/1

>  <Quatassemblies upload name>  (177) 
A1 - monomer

>  <Crystalforms upload name>  (177) 
F5 - A71EV2A_x3178_new_long_dials_041024

>  <ConformerSites short tag>  (177) 
1b - A0911/A/147

>  <CanonSites short tag>  (177) 
1 - A0911/A/147/1

>  <CrystalformSites short tag>  (177) 
F5i - A3175/A/201

>  <Quatassemblies short tag>  (177) 
A1 - monomer

>  <Crystalforms short tag>  (177) 
F5 - A71EV2A_x3178_new_long_dials_041024

>  <Centroid res>  (177) 
A71EV2A-x0911/A/133/A_v1

>  <Experiment code>  (177) 
A71EV2A-x3403

>  <Pose>  (177) 
A3403a

$$$$
A3408a
     RDKit          3D

 14 14  0  0  0  0  0  0  0  0999 V2000
   10.1880   16.1510   19.1070 O   0  0  0  0  0  0  0  0  0  0  0  0
   10.4360   14.9650   19.3210 C   0  0  0  0  0  0  0  0  0  0  0  0
   10.7050   14.0970   18.3550 N   0  0  0  0  0  0  0  0  0  0  0  0
   10.3570   14.3880   20.7230 C   0  0  1  0  0  0  0  0  0  0  0  0
   11.3360   15.0490   21.6830 C   0  0  0  0  0  0  0  0  0  0  0  0
   11.2450   14.4250   23.0750 C   0  0  0  0  0  0  0  0  0  0  0  0
    9.8110   14.3460   23.5810 C   0  0  0  0  0  0  0  0  0  0  0  0
    8.9810   14.6730   21.3020 C   0  0  0  0  0  0  0  0  0  0  0  0
    8.8630   13.8960   22.5430 N   0  0  0  0  0  0  0  0  0  0  0  0
    7.3210   13.5800   23.0240 S   0  0  0  0  0  0  0  0  0  0  0  0
    6.6620   12.9810   21.9470 O   0  0  0  0  0  0  0  0  0  0  0  0
    7.4030   13.0160   24.2350 O   0  0  0  0  0  0  0  0  0  0  0  0
    6.8060   15.0560   22.8530 C   0  0  0  0  0  0  0  0  0  0  0  0
    6.4490   15.7910   23.7460 C   0  0  0  0  0  0  0  0  0  0  0  0
 14 13  2  0
 13 10  1  0
 11 10  2  0
 12 10  2  0
 10  9  1  0
  9  7  1  0
  7  6  1  0
  6  5  1  0
  5  4  1  0
  4  2  1  6
  3  2  1  0
  2  1  2  0
  8  4  1  0
  9  8  1  0
M  END
>  <id>  (178) 
178

>  <inchikey>  (178) 
FSNFOMGLDYESSZ-ZETCQYMHSA-N

>  <alias>  (178) 
A3408a

>  <smiles>  (178) 
C=CS(=O)(=O)N1CCC[C@H](C(N)=O)C1

>  <path>  (178) 
/opt/xchem-fragalysis-2/maxwin/BulkDock/TARGETS/A71EV2A/aligned_files/A3408a/A3408a.pdb

>  <distance_score>  (178) 
None

>  <energy_score>  (178) 
None

>  <compound>  (178) 
FSNFOMGLDYESSZ-UHFFFAOYSA-N

>  <compound_id>  (178) 
146

>  <target>  (178) 
A71EV2A

>  <tags>  (178) 
['GOOD count', 'MEDIOCRE count', 'hits', '[Other] S2 site', '[Other] P3 compound design', 'Main status', '[Other] upload_061224', 'BAD count', '[Other] S3 site']

>  <inspirations>  (178) 
None

>  <subsites>  (178) 
None

>  <reference>  (178) 


>  <observation_longname>  (178) 
A71EV2A-x3408_A_201_v1

>  <ConformerSites alias>  (178) 
1b - A0911/A/147

>  <CanonSites alias>  (178) 
1 - Active Site

>  <CrystalformSites alias>  (178) 
F5i - A3175/A/201

>  <Quatassemblies alias>  (178) 
A1 - monomer

>  <Crystalforms alias>  (178) 
F5 - A71EV2A_x3178_new_long_dials_041024

>  <ConformerSites upload name>  (178) 
1b - A71EV2A-x0911/A/147

>  <CanonSites upload name>  (178) 
1 - A71EV2A-x0911/A/147/1

>  <CrystalformSites upload name>  (178) 
F5i - A71EV2A-x3175/A/201/1

>  <Quatassemblies upload name>  (178) 
A1 - monomer

>  <Crystalforms upload name>  (178) 
F5 - A71EV2A_x3178_new_long_dials_041024

>  <ConformerSites short tag>  (178) 
1b - A0911/A/147

>  <CanonSites short tag>  (178) 
1 - A0911/A/147/1

>  <CrystalformSites short tag>  (178) 
F5i - A3175/A/201

>  <Quatassemblies short tag>  (178) 
A1 - monomer

>  <Crystalforms short tag>  (178) 
F5 - A71EV2A_x3178_new_long_dials_041024

>  <Centroid res>  (178) 
A71EV2A-x0911/A/133/A_v1

>  <Experiment code>  (178) 
A71EV2A-x3408

>  <Pose>  (178) 
A3408a

$$$$
A3410a
     RDKit          3D

 21 23  0  0  0  0  0  0  0  0999 V2000
   11.6970   14.6390   24.4480 O   0  0  0  0  0  0  0  0  0  0  0  0
   11.2350   13.8330   23.6420 C   0  0  0  0  0  0  0  0  0  0  0  0
   10.0850   12.9580   24.0150 C   0  0  0  0  0  0  0  0  0  0  0  0
   10.0640   11.6480   23.5400 C   0  0  0  0  0  0  0  0  0  0  0  0
    9.0970   13.3990   24.9010 C   0  0  0  0  0  0  0  0  0  0  0  0
    8.0970   12.5480   25.3410 C   0  0  0  0  0  0  0  0  0  0  0  0
    8.0860   11.2190   24.9230 C   0  0  0  0  0  0  0  0  0  0  0  0
    9.0720   10.7980   24.0110 C   0  0  0  0  0  0  0  0  0  0  0  0
    8.8420    9.4810   23.7830 N   0  0  0  0  0  0  0  0  0  0  0  0
    9.6430    8.5600   22.9880 C   0  0  0  0  0  0  0  0  0  0  0  0
    7.7520    9.0220   24.4810 N   0  0  0  0  0  0  0  0  0  0  0  0
    7.3010   10.0490   25.1750 C   0  0  0  0  0  0  0  0  0  0  0  0
    6.1180    9.8950   26.1000 C   0  0  0  0  0  0  0  0  0  0  0  0
   11.7250   13.7010   22.4030 N   0  0  0  0  0  0  0  0  0  0  0  0
   12.7670   14.6050   21.9190 C   0  0  0  0  0  0  0  0  0  0  0  0
   12.7510   14.7150   20.4040 C   0  0  0  0  0  0  0  0  0  0  0  0
   11.5250   15.4260   19.9450 C   0  0  0  0  0  0  0  0  0  0  0  0
   10.9280   16.4290   20.7050 N   0  0  0  0  0  0  0  0  0  0  0  0
    9.8880   16.7540   20.0260 C   0  0  0  0  0  0  0  0  0  0  0  0
    9.7310   16.0860   18.8620 O   0  0  0  0  0  0  0  0  0  0  0  0
   10.8000   15.2410   18.8330 C   0  0  0  0  0  0  0  0  0  0  0  0
 13 12  1  0
 12 11  2  0
 11  9  1  0
 10  9  1  0
  9  8  1  0
  8  4  2  0
  4  3  1  0
  3  2  1  0
  2  1  2  0
 14  2  1  0
 15 14  1  0
 16 15  1  0
 17 16  1  0
 17 21  2  0
 21 20  1  0
 20 19  1  0
 19 18  2  0
 18 17  1  0
  5  3  2  0
  6  5  1  0
  7  6  2  0
 12  7  1  0
  8  7  1  0
M  END
>  <id>  (179) 
179

>  <inchikey>  (179) 
LIYDFYCGCLXSCX-UHFFFAOYSA-N

>  <alias>  (179) 
A3410a

>  <smiles>  (179) 
Cc1nn(C)c2cc(C(=O)NCCc3cocn3)ccc12

>  <path>  (179) 
/opt/xchem-fragalysis-2/maxwin/BulkDock/TARGETS/A71EV2A/aligned_files/A3410a/A3410a.pdb

>  <distance_score>  (179) 
None

>  <energy_score>  (179) 
None

>  <compound>  (179) 
LIYDFYCGCLXSCX-UHFFFAOYSA-N

>  <compound_id>  (179) 
147

>  <target>  (179) 
A71EV2A

>  <tags>  (179) 
['GOOD count', 'MEDIOCRE count', '[Other] S1 site', 'hits', '[Other] S2 site', '[Other] P3 compound design', '[Series] Indazole series', 'Main status', '[Other] upload_061224', 'BAD count']

>  <inspirations>  (179) 
None

>  <subsites>  (179) 
None

>  <reference>  (179) 


>  <observation_longname>  (179) 
A71EV2A-x3410_A_201_v1

>  <ConformerSites alias>  (179) 
1b - A0911/A/147

>  <CanonSites alias>  (179) 
1 - Active Site

>  <CrystalformSites alias>  (179) 
F1a - A0375/A/201

>  <Quatassemblies alias>  (179) 
A1 - monomer

>  <Crystalforms alias>  (179) 
F1 - A71_2A_open

>  <ConformerSites upload name>  (179) 
1b - A71EV2A-x0911/A/147

>  <CanonSites upload name>  (179) 
1 - A71EV2A-x0911/A/147/1

>  <CrystalformSites upload name>  (179) 
F1a - A71EV2A-x0375/A/201/1

>  <Quatassemblies upload name>  (179) 
A1 - monomer

>  <Crystalforms upload name>  (179) 
F1 - A71_2A_open

>  <ConformerSites short tag>  (179) 
1b - A0911/A/147

>  <CanonSites short tag>  (179) 
1 - A0911/A/147/1

>  <CrystalformSites short tag>  (179) 
F1a - A0375/A/201

>  <Quatassemblies short tag>  (179) 
A1 - monomer

>  <Crystalforms short tag>  (179) 
F1 - A71_2A_open

>  <Centroid res>  (179) 
A71EV2A-x0911/A/133/A_v1

>  <Experiment code>  (179) 
A71EV2A-x3410

>  <Pose>  (179) 
A3410a

$$$$
A3417a
     RDKit          3D

 16 17  0  0  0  0  0  0  0  0999 V2000
    7.6620   12.8210   22.7760 O   0  0  0  0  0  0  0  0  0  0  0  0
    8.6400   13.1870   23.4040 C   0  0  0  0  0  0  0  0  0  0  0  0
    9.0980   12.5100   24.4760 N   0  0  0  0  0  0  0  0  0  0  0  0
    8.3850   11.3710   25.0620 C   0  0  0  0  0  0  0  0  0  0  0  0
    9.0560   10.0410   24.7390 C   0  0  0  0  0  0  0  0  0  0  0  0
    9.8050    9.8250   23.4690 C   0  0  0  0  0  0  0  0  0  0  0  0
   10.5560    9.9180   24.7510 C   0  0  0  0  0  0  0  0  0  0  0  0
    9.2740   14.3570   23.0920 N   0  0  0  0  0  0  0  0  0  0  0  0
   10.3780   14.9280   23.8790 C   0  0  0  0  0  0  0  0  0  0  0  0
   11.6970   14.6950   23.1530 C   0  0  0  0  0  0  0  0  0  0  0  0
   11.6290   15.3010   21.7480 C   0  0  0  0  0  0  0  0  0  0  0  0
    9.1540   14.8980   21.7340 C   0  0  0  0  0  0  0  0  0  0  0  0
   10.4560   14.6720   20.9580 C   0  0  1  0  0  0  0  0  0  0  0  0
   10.3570   15.2200   19.5450 C   0  0  0  0  0  0  0  0  0  0  0  0
    9.9440   16.3680   19.3360 O   0  0  0  0  0  0  0  0  0  0  0  0
   10.7250   14.3890   18.5690 N   0  0  0  0  0  0  0  0  0  0  0  0
 16 14  1  0
 15 14  2  0
 13 14  1  6
 13 11  1  0
 11 10  1  0
 10  9  1  0
  9  8  1  0
  8  2  1  0
  2  1  2  0
  3  2  1  0
  4  3  1  0
  5  4  1  0
  5  7  1  0
  7  6  1  0
  6  5  1  0
 12  8  1  0
 13 12  1  0
M  END
>  <id>  (180) 
180

>  <inchikey>  (180) 
FPQQXSDKENBGCM-VIFPVBQESA-N

>  <alias>  (180) 
A3417a

>  <smiles>  (180) 
NC(=O)[C@H]1CCCN(C(=O)NCC2CC2)C1

>  <path>  (180) 
/opt/xchem-fragalysis-2/maxwin/BulkDock/TARGETS/A71EV2A/aligned_files/A3417a/A3417a.pdb

>  <distance_score>  (180) 
None

>  <energy_score>  (180) 
None

>  <compound>  (180) 
FPQQXSDKENBGCM-UHFFFAOYSA-N

>  <compound_id>  (180) 
148

>  <target>  (180) 
A71EV2A

>  <tags>  (180) 
['GOOD count', 'MEDIOCRE count', '[Other] S1 site', 'hits', '[Other] S2 site', '[Other] P3 compound design', '[Series] Piperidine series', 'Main status', '[Other] upload_061224', 'BAD count']

>  <inspirations>  (180) 
None

>  <subsites>  (180) 
None

>  <reference>  (180) 


>  <observation_longname>  (180) 
A71EV2A-x3417_A_201_v1

>  <ConformerSites alias>  (180) 
1b - A0911/A/147

>  <CanonSites alias>  (180) 
1 - Active Site

>  <CrystalformSites alias>  (180) 
F5i - A3175/A/201

>  <Quatassemblies alias>  (180) 
A1 - monomer

>  <Crystalforms alias>  (180) 
F5 - A71EV2A_x3178_new_long_dials_041024

>  <ConformerSites upload name>  (180) 
1b - A71EV2A-x0911/A/147

>  <CanonSites upload name>  (180) 
1 - A71EV2A-x0911/A/147/1

>  <CrystalformSites upload name>  (180) 
F5i - A71EV2A-x3175/A/201/1

>  <Quatassemblies upload name>  (180) 
A1 - monomer

>  <Crystalforms upload name>  (180) 
F5 - A71EV2A_x3178_new_long_dials_041024

>  <ConformerSites short tag>  (180) 
1b - A0911/A/147

>  <CanonSites short tag>  (180) 
1 - A0911/A/147/1

>  <CrystalformSites short tag>  (180) 
F5i - A3175/A/201

>  <Quatassemblies short tag>  (180) 
A1 - monomer

>  <Crystalforms short tag>  (180) 
F5 - A71EV2A_x3178_new_long_dials_041024

>  <Centroid res>  (180) 
A71EV2A-x0911/A/133/A_v1

>  <Experiment code>  (180) 
A71EV2A-x3417

>  <Pose>  (180) 
A3417a

$$$$
A3419a
     RDKit          3D

 22 24  0  0  0  0  0  0  0  0999 V2000
    7.9360    8.5420   24.6620 O   0  0  0  0  0  0  0  0  0  0  0  0
    8.4830    9.6130   24.4990 C   0  0  0  0  0  0  0  0  0  0  0  0
    9.5360    9.7350   23.6160 N   0  0  0  0  0  0  0  0  0  0  0  0
   10.0590    8.5720   22.9160 C   0  0  0  0  0  0  0  0  0  0  0  0
    8.0390   10.8690   25.1070 C   0  0  0  0  0  0  0  0  0  0  0  0
    6.9670   10.8720   26.0030 C   0  0  0  0  0  0  0  0  0  0  0  0
    6.5000   12.0690   26.5170 C   0  0  0  0  0  0  0  0  0  0  0  0
    7.1020   13.2610   26.1680 C   0  0  0  0  0  0  0  0  0  0  0  0
    8.1840   13.2700   25.3050 C   0  0  0  0  0  0  0  0  0  0  0  0
    8.6770   12.0730   24.7850 C   0  0  0  0  0  0  0  0  0  0  0  0
    9.8370   12.0030   23.8710 C   0  0  0  0  0  0  0  0  0  0  0  0
   10.2250   10.8890   23.3240 N   0  0  0  0  0  0  0  0  0  0  0  0
   10.7540   13.1790   23.6330 C   0  0  0  0  0  0  0  0  0  0  0  0
   10.9290   14.0140   24.5060 O   0  0  0  0  0  0  0  0  0  0  0  0
   11.3720   13.2280   22.4440 N   0  0  0  0  0  0  0  0  0  0  0  0
   12.4320   14.1940   22.1910 C   0  0  0  0  0  0  0  0  0  0  0  0
   12.5860   14.4720   20.7070 C   0  0  0  0  0  0  0  0  0  0  0  0
   11.3990   15.1960   20.1610 C   0  0  0  0  0  0  0  0  0  0  0  0
   10.7130   16.1380   20.9090 N   0  0  0  0  0  0  0  0  0  0  0  0
    9.7480   16.5030   20.1420 C   0  0  0  0  0  0  0  0  0  0  0  0
    9.7260   15.9250   18.9230 O   0  0  0  0  0  0  0  0  0  0  0  0
   10.8000   15.0780   18.9660 C   0  0  0  0  0  0  0  0  0  0  0  0
  4  3  1  0
  3 12  1  0
 12 11  2  0
 13 11  1  0
 14 13  2  0
 15 13  1  0
 16 15  1  0
 17 16  1  0
 18 17  1  0
 18 22  2  0
 22 21  1  0
 21 20  1  0
 20 19  2  0
 19 18  1  0
 11 10  1  0
 10  9  2  0
  9  8  1  0
  8  7  2  0
  7  6  1  0
  6  5  2  0
 10  5  1  0
  5  2  1  0
  3  2  1  0
  2  1  2  0
M  END
>  <id>  (181) 
181

>  <inchikey>  (181) 
LDVAVSGFMNNJNN-UHFFFAOYSA-N

>  <alias>  (181) 
A3419a

>  <smiles>  (181) 
Cn1nc(C(=O)NCCc2cocn2)c2ccccc2c1=O

>  <path>  (181) 
/opt/xchem-fragalysis-2/maxwin/BulkDock/TARGETS/A71EV2A/aligned_files/A3419a/A3419a.pdb

>  <distance_score>  (181) 
None

>  <energy_score>  (181) 
None

>  <compound>  (181) 
LDVAVSGFMNNJNN-UHFFFAOYSA-N

>  <compound_id>  (181) 
149

>  <target>  (181) 
A71EV2A

>  <tags>  (181) 
['GOOD count', 'MEDIOCRE count', '[Other] S1 site', 'hits', '[Other] S2 site', '[Other] P3 compound design', 'Main status', '[Other] upload_061224', 'BAD count']

>  <inspirations>  (181) 
None

>  <subsites>  (181) 
None

>  <reference>  (181) 


>  <observation_longname>  (181) 
A71EV2A-x3419_A_201_v1

>  <ConformerSites alias>  (181) 
1b - A0911/A/147

>  <CanonSites alias>  (181) 
1 - Active Site

>  <CrystalformSites alias>  (181) 
F1a - A0375/A/201

>  <Quatassemblies alias>  (181) 
A1 - monomer

>  <Crystalforms alias>  (181) 
F1 - A71_2A_open

>  <ConformerSites upload name>  (181) 
1b - A71EV2A-x0911/A/147

>  <CanonSites upload name>  (181) 
1 - A71EV2A-x0911/A/147/1

>  <CrystalformSites upload name>  (181) 
F1a - A71EV2A-x0375/A/201/1

>  <Quatassemblies upload name>  (181) 
A1 - monomer

>  <Crystalforms upload name>  (181) 
F1 - A71_2A_open

>  <ConformerSites short tag>  (181) 
1b - A0911/A/147

>  <CanonSites short tag>  (181) 
1 - A0911/A/147/1

>  <CrystalformSites short tag>  (181) 
F1a - A0375/A/201

>  <Quatassemblies short tag>  (181) 
A1 - monomer

>  <Crystalforms short tag>  (181) 
F1 - A71_2A_open

>  <Centroid res>  (181) 
A71EV2A-x0911/A/133/A_v1

>  <Experiment code>  (181) 
A71EV2A-x3419

>  <Pose>  (181) 
A3419a

$$$$
A3435a
     RDKit          3D

 16 17  0  0  0  0  0  0  0  0999 V2000
   10.2830   13.7760   24.9000 O   0  0  0  0  0  0  0  0  0  0  0  0
   10.1160   13.0230   23.9410 C   0  0  0  0  0  0  0  0  0  0  0  0
    9.1700   11.8790   24.0550 C   0  0  0  0  0  0  0  0  0  0  0  0
    8.1400   12.0000   24.9860 C   0  0  0  0  0  0  0  0  0  0  0  0
    7.3630   10.9050   25.3220 C   0  0  0  0  0  0  0  0  0  0  0  0
    7.5790    9.6850   24.7100 C   0  0  0  0  0  0  0  0  0  0  0  0
    8.6040    9.5470   23.7800 C   0  0  0  0  0  0  0  0  0  0  0  0
    9.3970   10.6340   23.4540 C   0  0  0  0  0  0  0  0  0  0  0  0
   10.8030   13.1450   22.7950 N   0  0  0  0  0  0  0  0  0  0  0  0
   11.8880   14.1170   22.6830 C   0  0  0  0  0  0  0  0  0  0  0  0
   12.1980   14.4930   21.2490 C   0  0  0  0  0  0  0  0  0  0  0  0
   11.0900   15.2350   20.5690 C   0  0  0  0  0  0  0  0  0  0  0  0
   10.4420   16.3060   21.1800 N   0  0  0  0  0  0  0  0  0  0  0  0
    9.5940   16.6970   20.2990 C   0  0  0  0  0  0  0  0  0  0  0  0
    9.6000   16.0040   19.1420 O   0  0  0  0  0  0  0  0  0  0  0  0
   10.5730   15.0620   19.3460 C   0  0  0  0  0  0  0  0  0  0  0  0
  2  1  2  0
  9  2  1  0
 10  9  1  0
 11 10  1  0
 12 11  1  0
 12 16  2  0
 16 15  1  0
 15 14  1  0
 14 13  2  0
 13 12  1  0
  3  2  1  0
  3  8  2  0
  8  7  1  0
  7  6  2  0
  6  5  1  0
  5  4  2  0
  4  3  1  0
M  END
>  <id>  (182) 
182

>  <inchikey>  (182) 
INXUYTDTOJRNGX-UHFFFAOYSA-N

>  <alias>  (182) 
A3435a

>  <smiles>  (182) 
O=C(NCCc1cocn1)c1ccccc1

>  <path>  (182) 
/opt/xchem-fragalysis-2/maxwin/BulkDock/TARGETS/A71EV2A/aligned_files/A3435a/A3435a.pdb

>  <distance_score>  (182) 
None

>  <energy_score>  (182) 
None

>  <compound>  (182) 
INXUYTDTOJRNGX-UHFFFAOYSA-N

>  <compound_id>  (182) 
150

>  <target>  (182) 
A71EV2A

>  <tags>  (182) 
['GOOD count', 'MEDIOCRE count', '[Other] S1 site', 'hits', '[Other] S2 site', '[Other] P3 compound design', 'Main status', '[Other] upload_061224', 'BAD count']

>  <inspirations>  (182) 
None

>  <subsites>  (182) 
None

>  <reference>  (182) 


>  <observation_longname>  (182) 
A71EV2A-x3435_A_201_v1

>  <ConformerSites alias>  (182) 
1b - A0911/A/147

>  <CanonSites alias>  (182) 
1 - Active Site

>  <CrystalformSites alias>  (182) 
F5i - A3175/A/201

>  <Quatassemblies alias>  (182) 
A1 - monomer

>  <Crystalforms alias>  (182) 
F5 - A71EV2A_x3178_new_long_dials_041024

>  <ConformerSites upload name>  (182) 
1b - A71EV2A-x0911/A/147

>  <CanonSites upload name>  (182) 
1 - A71EV2A-x0911/A/147/1

>  <CrystalformSites upload name>  (182) 
F5i - A71EV2A-x3175/A/201/1

>  <Quatassemblies upload name>  (182) 
A1 - monomer

>  <Crystalforms upload name>  (182) 
F5 - A71EV2A_x3178_new_long_dials_041024

>  <ConformerSites short tag>  (182) 
1b - A0911/A/147

>  <CanonSites short tag>  (182) 
1 - A0911/A/147/1

>  <CrystalformSites short tag>  (182) 
F5i - A3175/A/201

>  <Quatassemblies short tag>  (182) 
A1 - monomer

>  <Crystalforms short tag>  (182) 
F5 - A71EV2A_x3178_new_long_dials_041024

>  <Centroid res>  (182) 
A71EV2A-x0911/A/133/A_v1

>  <Experiment code>  (182) 
A71EV2A-x3435

>  <Pose>  (182) 
A3435a

$$$$
A3436a
     RDKit          3D

 16 17  0  0  0  0  0  0  0  0999 V2000
    9.8530   14.0780   24.5590 O   0  0  0  0  0  0  0  0  0  0  0  0
    9.9480   13.1890   23.7050 C   0  0  0  0  0  0  0  0  0  0  0  0
    9.2540   11.8970   23.8760 C   0  0  0  0  0  0  0  0  0  0  0  0
    8.2030   11.5270   24.7270 C   0  0  0  0  0  0  0  0  0  0  0  0
    7.9810   10.2250   24.5800 N   0  0  0  0  0  0  0  0  0  0  0  0
    9.6790   10.8060   23.2070 N   0  0  0  0  0  0  0  0  0  0  0  0
    8.8990    9.8410   23.6880 N   0  0  0  0  0  0  0  0  0  0  0  0
    9.0710    8.4490   23.2970 C   0  0  0  0  0  0  0  0  0  0  0  0
   10.7550   13.2800   22.6360 N   0  0  0  0  0  0  0  0  0  0  0  0
   11.7860   14.3100   22.5380 C   0  0  0  0  0  0  0  0  0  0  0  0
   12.1130   14.6700   21.1020 C   0  0  0  0  0  0  0  0  0  0  0  0
   10.9650   15.3900   20.4700 C   0  0  0  0  0  0  0  0  0  0  0  0
   10.3300   16.4570   21.1030 N   0  0  0  0  0  0  0  0  0  0  0  0
    9.4430   16.8340   20.2580 C   0  0  0  0  0  0  0  0  0  0  0  0
    9.4140   16.1320   19.1040 O   0  0  0  0  0  0  0  0  0  0  0  0
   10.3990   15.2040   19.2710 C   0  0  0  0  0  0  0  0  0  0  0  0
  8  7  1  0
  7  5  1  0
  5  4  2  0
  4  3  1  0
  3  2  1  0
  2  1  2  0
  9  2  1  0
 10  9  1  0
 11 10  1  0
 12 11  1  0
 12 16  2  0
 16 15  1  0
 15 14  1  0
 14 13  2  0
 13 12  1  0
  6  3  2  0
  7  6  1  0
M  END
>  <id>  (183) 
183

>  <inchikey>  (183) 
PBFVVICHKJKWIA-UHFFFAOYSA-N

>  <alias>  (183) 
A3436a

>  <smiles>  (183) 
Cn1ncc(C(=O)NCCc2cocn2)n1

>  <path>  (183) 
/opt/xchem-fragalysis-2/maxwin/BulkDock/TARGETS/A71EV2A/aligned_files/A3436a/A3436a.pdb

>  <distance_score>  (183) 
None

>  <energy_score>  (183) 
None

>  <compound>  (183) 
PBFVVICHKJKWIA-UHFFFAOYSA-N

>  <compound_id>  (183) 
151

>  <target>  (183) 
A71EV2A

>  <tags>  (183) 
['GOOD count', 'MEDIOCRE count', '[Other] S1 site', 'hits', '[Other] S2 site', '[Other] P3 compound design', 'Main status', '[Other] upload_061224', 'BAD count']

>  <inspirations>  (183) 
None

>  <subsites>  (183) 
None

>  <reference>  (183) 


>  <observation_longname>  (183) 
A71EV2A-x3436_A_201_v1

>  <ConformerSites alias>  (183) 
1b - A0911/A/147

>  <CanonSites alias>  (183) 
1 - Active Site

>  <CrystalformSites alias>  (183) 
F5i - A3175/A/201

>  <Quatassemblies alias>  (183) 
A1 - monomer

>  <Crystalforms alias>  (183) 
F5 - A71EV2A_x3178_new_long_dials_041024

>  <ConformerSites upload name>  (183) 
1b - A71EV2A-x0911/A/147

>  <CanonSites upload name>  (183) 
1 - A71EV2A-x0911/A/147/1

>  <CrystalformSites upload name>  (183) 
F5i - A71EV2A-x3175/A/201/1

>  <Quatassemblies upload name>  (183) 
A1 - monomer

>  <Crystalforms upload name>  (183) 
F5 - A71EV2A_x3178_new_long_dials_041024

>  <ConformerSites short tag>  (183) 
1b - A0911/A/147

>  <CanonSites short tag>  (183) 
1 - A0911/A/147/1

>  <CrystalformSites short tag>  (183) 
F5i - A3175/A/201

>  <Quatassemblies short tag>  (183) 
A1 - monomer

>  <Crystalforms short tag>  (183) 
F5 - A71EV2A_x3178_new_long_dials_041024

>  <Centroid res>  (183) 
A71EV2A-x0911/A/133/A_v1

>  <Experiment code>  (183) 
A71EV2A-x3436

>  <Pose>  (183) 
A3436a

$$$$
A3450a
     RDKit          3D

 19 20  0  0  0  0  0  0  0  0999 V2000
   10.4120   16.8060   19.2160 O   0  0  0  0  0  0  0  0  0  0  0  0
   10.6880   15.6230   19.4480 C   0  0  0  0  0  0  0  0  0  0  0  0
   10.9350   14.7410   18.4980 N   0  0  0  0  0  0  0  0  0  0  0  0
   10.7190   15.0860   20.8690 C   0  0  1  0  0  0  0  0  0  0  0  0
   11.7820   15.7910   21.7250 C   0  0  0  0  0  0  0  0  0  0  0  0
   11.7780   15.2700   23.1680 C   0  0  0  0  0  0  0  0  0  0  0  0
   10.3840   15.3320   23.7810 C   0  0  0  0  0  0  0  0  0  0  0  0
    9.3670   15.3300   21.5320 C   0  0  0  0  0  0  0  0  0  0  0  0
    9.3770   14.7500   22.8780 N   0  0  0  0  0  0  0  0  0  0  0  0
    8.5010   13.7700   23.1920 C   0  0  0  0  0  0  0  0  0  0  0  0
    7.6010   13.4340   22.4350 O   0  0  0  0  0  0  0  0  0  0  0  0
    8.6900   13.1000   24.5360 C   0  0  0  0  0  0  0  0  0  0  0  0
    8.7580   11.6170   24.2830 C   0  0  0  0  0  0  0  0  0  0  0  0
    7.9360   10.7090   24.8420 C   0  0  0  0  0  0  0  0  0  0  0  0
    6.9210   10.9660   25.8170 C   0  0  0  0  0  0  0  0  0  0  0  0
    6.1200   11.2160   26.5960 N   0  0  0  0  0  0  0  0  0  0  0  0
    9.6770   10.9930   23.3880 C   0  0  0  0  0  0  0  0  0  0  0  0
    9.4990    9.6610   23.3070 C   0  0  0  0  0  0  0  0  0  0  0  0
    8.2340    9.1340   24.2920 S   0  0  0  0  0  0  0  0  0  0  0  0
 16 15  3  0
 15 14  1  0
 14 19  1  0
 19 18  1  0
 18 17  2  0
 17 13  1  0
 14 13  2  0
 13 12  1  0
 12 10  1  0
 11 10  2  0
 10  9  1  0
  9  7  1  0
  7  6  1  0
  6  5  1  0
  5  4  1  0
  4  2  1  6
  3  2  1  0
  2  1  2  0
  8  4  1  0
  9  8  1  0
M  END
>  <id>  (184) 
184

>  <inchikey>  (184) 
AQMCQXPYDBYMNV-JTQLQIEISA-N

>  <alias>  (184) 
A3450a

>  <smiles>  (184) 
N#Cc1sccc1CC(=O)N1CCC[C@H](C(N)=O)C1

>  <path>  (184) 
/opt/xchem-fragalysis-2/maxwin/BulkDock/TARGETS/A71EV2A/aligned_files/A3450a/A3450a.pdb

>  <distance_score>  (184) 
None

>  <energy_score>  (184) 
None

>  <compound>  (184) 
AQMCQXPYDBYMNV-UHFFFAOYSA-N

>  <compound_id>  (184) 
152

>  <target>  (184) 
A71EV2A

>  <tags>  (184) 
['GOOD count', 'MEDIOCRE count', '[Other] S1 site', 'hits', '[Other] S2 site', '[Other] P3 compound design', '[Series] Piperidine series', 'Main status', '[Other] upload_061224', 'BAD count']

>  <inspirations>  (184) 
None

>  <subsites>  (184) 
None

>  <reference>  (184) 


>  <observation_longname>  (184) 
A71EV2A-x3450_A_201_v1

>  <ConformerSites alias>  (184) 
1b - A0911/A/147

>  <CanonSites alias>  (184) 
1 - Active Site

>  <CrystalformSites alias>  (184) 
F8h - A0884/A/147

>  <Quatassemblies alias>  (184) 
A1 - monomer

>  <Crystalforms alias>  (184) 
F8 - A712A_x4271_2.1_refmac1_1st_ref

>  <ConformerSites upload name>  (184) 
1b - A71EV2A-x0911/A/147

>  <CanonSites upload name>  (184) 
1 - A71EV2A-x0911/A/147/1

>  <CrystalformSites upload name>  (184) 
F8h - A71EV2A-x0884/A/147/1

>  <Quatassemblies upload name>  (184) 
A1 - monomer

>  <Crystalforms upload name>  (184) 
F8 - A712A_x4271_2.1_refmac1_1st_ref

>  <ConformerSites short tag>  (184) 
1b - A0911/A/147

>  <CanonSites short tag>  (184) 
1 - A0911/A/147/1

>  <CrystalformSites short tag>  (184) 
F8h - A0884/A/147

>  <Quatassemblies short tag>  (184) 
A1 - monomer

>  <Crystalforms short tag>  (184) 
F8 - A712A_x4271_2.1_refmac1_1st_ref

>  <Centroid res>  (184) 
A71EV2A-x0911/A/133/A_v1

>  <Experiment code>  (184) 
A71EV2A-x3450

>  <Pose>  (184) 
A3450a

$$$$
A3480a
     RDKit          3D

 21 22  0  0  0  0  0  0  0  0999 V2000
   10.2330   16.5100   19.0590 O   0  0  0  0  0  0  0  0  0  0  0  0
   10.6410   15.3730   19.3280 C   0  0  0  0  0  0  0  0  0  0  0  0
   11.0840   14.5360   18.4080 N   0  0  0  0  0  0  0  0  0  0  0  0
   10.6050   14.8410   20.7500 C   0  0  1  0  0  0  0  0  0  0  0  0
   11.6500   15.5060   21.6750 C   0  0  0  0  0  0  0  0  0  0  0  0
   11.6570   14.7960   23.0300 C   0  0  0  0  0  0  0  0  0  0  0  0
   10.2710   14.8560   23.6710 C   0  0  0  0  0  0  0  0  0  0  0  0
    9.2400   14.9990   21.4160 C   0  0  0  0  0  0  0  0  0  0  0  0
    9.2460   14.3600   22.7370 N   0  0  0  0  0  0  0  0  0  0  0  0
    8.1970   13.5910   23.1310 C   0  0  0  0  0  0  0  0  0  0  0  0
    7.3820   13.2040   22.3220 O   0  0  0  0  0  0  0  0  0  0  0  0
    8.0870   13.3640   24.4750 N   0  0  0  0  0  0  0  0  0  0  0  0
    7.1300   12.5960   25.1810 C   0  0  0  0  0  0  0  0  0  0  0  0
    7.3480   11.2330   25.2970 C   0  0  0  0  0  0  0  0  0  0  0  0
    6.5750   10.4900   26.1700 C   0  0  0  0  0  0  0  0  0  0  0  0
    5.6000   11.1010   26.9400 C   0  0  0  0  0  0  0  0  0  0  0  0
    6.1220   13.1980   25.9280 C   0  0  0  0  0  0  0  0  0  0  0  0
    5.3610   12.4620   26.8300 C   0  0  0  0  0  0  0  0  0  0  0  0
    4.3170   13.1490   27.6890 C   0  0  0  0  0  0  0  0  0  0  0  0
    2.9610   13.0560   27.1490 C   0  0  0  0  0  0  0  0  0  0  0  0
    1.8940   12.9950   26.7530 N   0  0  0  0  0  0  0  0  0  0  0  0
 21 20  3  0
 20 19  1  0
 19 18  1  0
 18 16  2  0
 16 15  1  0
 15 14  2  0
 14 13  1  0
 13 12  1  0
 12 10  1  0
 11 10  2  0
 10  9  1  0
  9  7  1  0
  7  6  1  0
  6  5  1  0
  5  4  1  0
  4  2  1  6
  3  2  1  0
  2  1  2  0
  8  4  1  0
  9  8  1  0
 17 13  2  0
 18 17  1  0
M  END
>  <id>  (185) 
185

>  <inchikey>  (185) 
UDNDCMKCZBQOCR-LBPRGKRZSA-N

>  <alias>  (185) 
A3480a

>  <smiles>  (185) 
N#CCc1cccc(NC(=O)N2CCC[C@H](C(N)=O)C2)c1

>  <path>  (185) 
/opt/xchem-fragalysis-2/maxwin/BulkDock/TARGETS/A71EV2A/aligned_files/A3480a/A3480a.pdb

>  <distance_score>  (185) 
None

>  <energy_score>  (185) 
None

>  <compound>  (185) 
UDNDCMKCZBQOCR-UHFFFAOYSA-N

>  <compound_id>  (185) 
153

>  <target>  (185) 
A71EV2A

>  <tags>  (185) 
['GOOD count', 'MEDIOCRE count', '[Other] S1 site', 'hits', '[Other] S2 site', '[Other] P3 compound design', '[Series] Piperidine series', 'Main status', '[Other] upload_061224', 'BAD count']

>  <inspirations>  (185) 
None

>  <subsites>  (185) 
None

>  <reference>  (185) 


>  <observation_longname>  (185) 
A71EV2A-x3480_A_201_v1

>  <ConformerSites alias>  (185) 
1b - A0911/A/147

>  <CanonSites alias>  (185) 
1 - Active Site

>  <CrystalformSites alias>  (185) 
F5i - A3175/A/201

>  <Quatassemblies alias>  (185) 
A1 - monomer

>  <Crystalforms alias>  (185) 
F5 - A71EV2A_x3178_new_long_dials_041024

>  <ConformerSites upload name>  (185) 
1b - A71EV2A-x0911/A/147

>  <CanonSites upload name>  (185) 
1 - A71EV2A-x0911/A/147/1

>  <CrystalformSites upload name>  (185) 
F5i - A71EV2A-x3175/A/201/1

>  <Quatassemblies upload name>  (185) 
A1 - monomer

>  <Crystalforms upload name>  (185) 
F5 - A71EV2A_x3178_new_long_dials_041024

>  <ConformerSites short tag>  (185) 
1b - A0911/A/147

>  <CanonSites short tag>  (185) 
1 - A0911/A/147/1

>  <CrystalformSites short tag>  (185) 
F5i - A3175/A/201

>  <Quatassemblies short tag>  (185) 
A1 - monomer

>  <Crystalforms short tag>  (185) 
F5 - A71EV2A_x3178_new_long_dials_041024

>  <Centroid res>  (185) 
A71EV2A-x0911/A/133/A_v1

>  <Experiment code>  (185) 
A71EV2A-x3480

>  <Pose>  (185) 
A3480a

$$$$
A3483a
     RDKit          3D

 21 22  0  0  0  0  0  0  0  0999 V2000
   10.5050   16.7310   19.1360 O   0  0  0  0  0  0  0  0  0  0  0  0
   10.7960   15.5560   19.4080 C   0  0  0  0  0  0  0  0  0  0  0  0
   11.0860   14.6520   18.4880 N   0  0  0  0  0  0  0  0  0  0  0  0
   10.8210   15.0650   20.8460 C   0  0  1  0  0  0  0  0  0  0  0  0
   11.9330   15.7500   21.6650 C   0  0  0  0  0  0  0  0  0  0  0  0
   11.7570   15.5880   23.1810 C   0  0  0  0  0  0  0  0  0  0  0  0
   10.7630   14.5040   23.5050 C   0  0  0  0  0  0  0  0  0  0  0  0
    9.4610   15.2900   21.5130 C   0  0  0  0  0  0  0  0  0  0  0  0
    9.4520   14.7540   22.8810 N   0  0  0  0  0  0  0  0  0  0  0  0
    8.5050   13.8340   23.2280 C   0  0  0  0  0  0  0  0  0  0  0  0
    7.7480   13.3480   22.4020 O   0  0  0  0  0  0  0  0  0  0  0  0
    8.3450   13.6210   24.5600 N   0  0  0  0  0  0  0  0  0  0  0  0
    7.5030   12.6440   25.1340 C   0  0  0  0  0  0  0  0  0  0  0  0
    6.3600   12.9690   25.8660 C   0  0  0  0  0  0  0  0  0  0  0  0
    5.6440   11.9660   26.5040 C   0  0  0  0  0  0  0  0  0  0  0  0
    6.0450   10.6600   26.4030 C   0  0  0  0  0  0  0  0  0  0  0  0
    7.1580   10.3280   25.6530 C   0  0  0  0  0  0  0  0  0  0  0  0
    7.9060   11.3070   25.0090 C   0  0  0  0  0  0  0  0  0  0  0  0
    9.1070   10.8790   24.2040 C   0  0  0  0  0  0  0  0  0  0  0  0
    9.3270    9.5030   24.3720 O   0  0  0  0  0  0  0  0  0  0  0  0
    9.7120    8.8970   23.1680 C   0  0  0  0  0  0  0  0  0  0  0  0
 21 20  1  0
 20 19  1  0
 19 18  1  0
 18 17  1  0
 17 16  2  0
 16 15  1  0
 15 14  2  0
 14 13  1  0
 18 13  2  0
 13 12  1  0
 12 10  1  0
 11 10  2  0
 10  9  1  0
  9  7  1  0
  7  6  1  0
  6  5  1  0
  5  4  1  0
  4  2  1  6
  3  2  1  0
  2  1  2  0
  8  4  1  0
  9  8  1  0
M  END
>  <id>  (186) 
186

>  <inchikey>  (186) 
GUBBGFXTNMOAAR-NSHDSACASA-N

>  <alias>  (186) 
A3483a

>  <smiles>  (186) 
COCc1ccccc1NC(=O)N1CCC[C@H](C(N)=O)C1

>  <path>  (186) 
/opt/xchem-fragalysis-2/maxwin/BulkDock/TARGETS/A71EV2A/aligned_files/A3483a/A3483a.pdb

>  <distance_score>  (186) 
None

>  <energy_score>  (186) 
None

>  <compound>  (186) 
GUBBGFXTNMOAAR-UHFFFAOYSA-N

>  <compound_id>  (186) 
154

>  <target>  (186) 
A71EV2A

>  <tags>  (186) 
['GOOD count', 'MEDIOCRE count', '[Other] S1 site', 'hits', '[Other] S2 site', '[Other] P3 compound design', '[Series] Piperidine series', 'Main status', '[Other] upload_061224', 'BAD count']

>  <inspirations>  (186) 
None

>  <subsites>  (186) 
None

>  <reference>  (186) 


>  <observation_longname>  (186) 
A71EV2A-x3483_A_201_v1

>  <ConformerSites alias>  (186) 
1b - A0911/A/147

>  <CanonSites alias>  (186) 
1 - Active Site

>  <CrystalformSites alias>  (186) 
F8h - A0884/A/147

>  <Quatassemblies alias>  (186) 
A1 - monomer

>  <Crystalforms alias>  (186) 
F8 - A712A_x4271_2.1_refmac1_1st_ref

>  <ConformerSites upload name>  (186) 
1b - A71EV2A-x0911/A/147

>  <CanonSites upload name>  (186) 
1 - A71EV2A-x0911/A/147/1

>  <CrystalformSites upload name>  (186) 
F8h - A71EV2A-x0884/A/147/1

>  <Quatassemblies upload name>  (186) 
A1 - monomer

>  <Crystalforms upload name>  (186) 
F8 - A712A_x4271_2.1_refmac1_1st_ref

>  <ConformerSites short tag>  (186) 
1b - A0911/A/147

>  <CanonSites short tag>  (186) 
1 - A0911/A/147/1

>  <CrystalformSites short tag>  (186) 
F8h - A0884/A/147

>  <Quatassemblies short tag>  (186) 
A1 - monomer

>  <Crystalforms short tag>  (186) 
F8 - A712A_x4271_2.1_refmac1_1st_ref

>  <Centroid res>  (186) 
A71EV2A-x0911/A/133/A_v1

>  <Experiment code>  (186) 
A71EV2A-x3483

>  <Pose>  (186) 
A3483a

$$$$
A3485a
     RDKit          3D

 20 21  0  0  0  0  0  0  0  0999 V2000
   10.4600   16.8870   19.2120 O   0  0  0  0  0  0  0  0  0  0  0  0
   10.7310   15.7030   19.4610 C   0  0  0  0  0  0  0  0  0  0  0  0
   10.9900   14.8060   18.5210 N   0  0  0  0  0  0  0  0  0  0  0  0
   10.7800   15.1930   20.8910 C   0  0  1  0  0  0  0  0  0  0  0  0
   11.8990   15.8720   21.6970 C   0  0  0  0  0  0  0  0  0  0  0  0
   11.8620   15.4760   23.1780 C   0  0  0  0  0  0  0  0  0  0  0  0
   10.4740   15.6670   23.7700 C   0  0  0  0  0  0  0  0  0  0  0  0
    9.4290   15.4760   21.5460 C   0  0  0  0  0  0  0  0  0  0  0  0
    9.4450   15.0200   22.9390 N   0  0  0  0  0  0  0  0  0  0  0  0
    8.6780   13.9300   23.2610 C   0  0  0  0  0  0  0  0  0  0  0  0
    7.9250   13.4100   22.4440 O   0  0  0  0  0  0  0  0  0  0  0  0
    8.6620   13.5660   24.5760 N   0  0  0  0  0  0  0  0  0  0  0  0
    8.0090   12.3890   25.0250 C   0  0  0  0  0  0  0  0  0  0  0  0
    7.0290   12.3130   26.0110 C   0  0  0  0  0  0  0  0  0  0  0  0
    6.4390   11.0930   26.3090 C   0  0  0  0  0  0  0  0  0  0  0  0
    6.8330    9.9440   25.6440 C   0  0  0  0  0  0  0  0  0  0  0  0
    8.4210   11.2360   24.3690 C   0  0  0  0  0  0  0  0  0  0  0  0
    7.8410   10.0190   24.6930 C   0  0  0  0  0  0  0  0  0  0  0  0
    8.2690    8.8580   24.1070 O   0  0  0  0  0  0  0  0  0  0  0  0
    9.4960    8.8760   23.3670 C   0  0  0  0  0  0  0  0  0  0  0  0
 20 19  1  0
 19 18  1  0
 18 16  2  0
 16 15  1  0
 15 14  2  0
 14 13  1  0
 13 12  1  0
 12 10  1  0
 11 10  2  0
 10  9  1  0
  9  7  1  0
  7  6  1  0
  6  5  1  0
  5  4  1  0
  4  2  1  6
  3  2  1  0
  2  1  2  0
  8  4  1  0
  9  8  1  0
 17 13  2  0
 18 17  1  0
M  END
>  <id>  (187) 
187

>  <inchikey>  (187) 
JKJIXILNAMCJIA-JTQLQIEISA-N

>  <alias>  (187) 
A3485a

>  <smiles>  (187) 
COc1cccc(NC(=O)N2CCC[C@H](C(N)=O)C2)c1

>  <path>  (187) 
/opt/xchem-fragalysis-2/maxwin/BulkDock/TARGETS/A71EV2A/aligned_files/A3485a/A3485a.pdb

>  <distance_score>  (187) 
None

>  <energy_score>  (187) 
None

>  <compound>  (187) 
JKJIXILNAMCJIA-UHFFFAOYSA-N

>  <compound_id>  (187) 
155

>  <target>  (187) 
A71EV2A

>  <tags>  (187) 
['GOOD count', 'MEDIOCRE count', '[Other] S1 site', 'hits', '[Other] S2 site', '[Other] P3 compound design', '[Series] Piperidine series', 'Main status', '[Other] upload_061224', 'BAD count']

>  <inspirations>  (187) 
None

>  <subsites>  (187) 
None

>  <reference>  (187) 


>  <observation_longname>  (187) 
A71EV2A-x3485_A_201_v1

>  <ConformerSites alias>  (187) 
1b - A0911/A/147

>  <CanonSites alias>  (187) 
1 - Active Site

>  <CrystalformSites alias>  (187) 
F8h - A0884/A/147

>  <Quatassemblies alias>  (187) 
A1 - monomer

>  <Crystalforms alias>  (187) 
F8 - A712A_x4271_2.1_refmac1_1st_ref

>  <ConformerSites upload name>  (187) 
1b - A71EV2A-x0911/A/147

>  <CanonSites upload name>  (187) 
1 - A71EV2A-x0911/A/147/1

>  <CrystalformSites upload name>  (187) 
F8h - A71EV2A-x0884/A/147/1

>  <Quatassemblies upload name>  (187) 
A1 - monomer

>  <Crystalforms upload name>  (187) 
F8 - A712A_x4271_2.1_refmac1_1st_ref

>  <ConformerSites short tag>  (187) 
1b - A0911/A/147

>  <CanonSites short tag>  (187) 
1 - A0911/A/147/1

>  <CrystalformSites short tag>  (187) 
F8h - A0884/A/147

>  <Quatassemblies short tag>  (187) 
A1 - monomer

>  <Crystalforms short tag>  (187) 
F8 - A712A_x4271_2.1_refmac1_1st_ref

>  <Centroid res>  (187) 
A71EV2A-x0911/A/133/A_v1

>  <Experiment code>  (187) 
A71EV2A-x3485

>  <Pose>  (187) 
A3485a

$$$$
A3488a
     RDKit          3D

 24 25  0  0  0  0  0  0  0  0999 V2000
    9.9740   16.2240   19.0950 O   0  0  0  0  0  0  0  0  0  0  0  0
   10.7260   15.2750   19.3810 C   0  0  0  0  0  0  0  0  0  0  0  0
   11.4240   14.6130   18.4700 N   0  0  0  0  0  0  0  0  0  0  0  0
   10.8760   14.8580   20.8200 C   0  0  0  0  0  0  0  0  0  0  0  0
   12.1280   14.7240   21.4070 C   0  0  0  0  0  0  0  0  0  0  0  0
   12.2420   14.3890   22.7460 C   0  0  0  0  0  0  0  0  0  0  0  0
   11.1140   14.1670   23.5140 C   0  0  0  0  0  0  0  0  0  0  0  0
    9.7360   14.6120   21.5810 C   0  0  0  0  0  0  0  0  0  0  0  0
    9.8640   14.2620   22.9170 C   0  0  0  0  0  0  0  0  0  0  0  0
    8.6960   14.0290   23.6390 O   0  0  0  0  0  0  0  0  0  0  0  0
    8.3890   12.7340   24.0180 C   0  0  0  0  0  0  0  0  0  0  0  0
    8.9750   11.6190   23.4330 C   0  0  0  0  0  0  0  0  0  0  0  0
    8.5950   10.3370   23.8200 C   0  0  0  0  0  0  0  0  0  0  0  0
    9.2290    9.1140   23.1990 C   0  0  0  0  0  0  0  0  0  0  0  0
    7.6290   10.2070   24.8090 C   0  0  0  0  0  0  0  0  0  0  0  0
    7.0700   11.3170   25.4080 C   0  0  0  0  0  0  0  0  0  0  0  0
    5.9080   11.0790   26.6730 Cl  0  0  0  0  0  0  0  0  0  0  0  0
    7.4210   12.6090   25.0270 C   0  0  0  0  0  0  0  0  0  0  0  0
    6.8190   13.7720   25.6290 N   0  0  0  0  0  0  0  0  0  0  0  0
    7.5480   14.7780   26.1930 C   0  0  0  0  0  0  0  0  0  0  0  0
    8.7490   14.7000   26.4370 O   0  0  0  0  0  0  0  0  0  0  0  0
    6.8300   16.0850   26.4440 C   0  0  0  0  0  0  0  0  0  0  0  0
    5.4650   15.9940   26.0980 O   0  0  0  0  0  0  0  0  0  0  0  0
    4.6780   16.9750   26.7750 C   0  0  0  0  0  0  0  0  0  0  0  0
 24 23  1  0
 23 22  1  0
 22 20  1  0
 21 20  2  0
 20 19  1  0
 19 18  1  0
 18 16  1  0
 17 16  1  0
 16 15  2  0
 15 13  1  0
 14 13  1  0
 13 12  2  0
 12 11  1  0
 18 11  2  0
 11 10  1  0
 10  9  1  0
  9  7  1  0
  7  6  2  0
  6  5  1  0
  5  4  2  0
  4  2  1  0
  3  2  1  0
  2  1  2  0
  8  4  1  0
  9  8  2  0
M  END
>  <id>  (188) 
188

>  <inchikey>  (188) 
LXRCATLQYMSZTR-UHFFFAOYSA-N

>  <alias>  (188) 
A3488a

>  <smiles>  (188) 
COCC(=O)Nc1c(Cl)cc(C)cc1Oc1cccc(C(N)=O)c1

>  <path>  (188) 
/opt/xchem-fragalysis-2/maxwin/BulkDock/TARGETS/A71EV2A/aligned_files/A3488a/A3488a.pdb

>  <distance_score>  (188) 
None

>  <energy_score>  (188) 
None

>  <compound>  (188) 
LXRCATLQYMSZTR-UHFFFAOYSA-N

>  <compound_id>  (188) 
156

>  <target>  (188) 
A71EV2A

>  <tags>  (188) 
['GOOD count', 'MEDIOCRE count', '[Other] S1 site', 'hits', '[Other] S2 site', '[Other] P3 compound design', '[Series] Piperidine series', 'Main status', '[Other] upload_061224', 'BAD count']

>  <inspirations>  (188) 
None

>  <subsites>  (188) 
None

>  <reference>  (188) 


>  <observation_longname>  (188) 
A71EV2A-x3488_A_201_v1

>  <ConformerSites alias>  (188) 
1b - A0911/A/147

>  <CanonSites alias>  (188) 
1 - Active Site

>  <CrystalformSites alias>  (188) 
F1a - A0375/A/201

>  <Quatassemblies alias>  (188) 
A1 - monomer

>  <Crystalforms alias>  (188) 
F1 - A71_2A_open

>  <ConformerSites upload name>  (188) 
1b - A71EV2A-x0911/A/147

>  <CanonSites upload name>  (188) 
1 - A71EV2A-x0911/A/147/1

>  <CrystalformSites upload name>  (188) 
F1a - A71EV2A-x0375/A/201/1

>  <Quatassemblies upload name>  (188) 
A1 - monomer

>  <Crystalforms upload name>  (188) 
F1 - A71_2A_open

>  <ConformerSites short tag>  (188) 
1b - A0911/A/147

>  <CanonSites short tag>  (188) 
1 - A0911/A/147/1

>  <CrystalformSites short tag>  (188) 
F1a - A0375/A/201

>  <Quatassemblies short tag>  (188) 
A1 - monomer

>  <Crystalforms short tag>  (188) 
F1 - A71_2A_open

>  <Centroid res>  (188) 
A71EV2A-x0911/A/133/A_v1

>  <Experiment code>  (188) 
A71EV2A-x3488

>  <Pose>  (188) 
A3488a

$$$$
A3489a
     RDKit          3D

 22 24  0  0  0  0  0  0  0  0999 V2000
   10.3810   16.4800   19.3280 O   0  0  0  0  0  0  0  0  0  0  0  0
   10.9250   15.3780   19.4440 C   0  0  0  0  0  0  0  0  0  0  0  0
   11.3190   14.6610   18.4020 N   0  0  0  0  0  0  0  0  0  0  0  0
   11.1230   14.7420   20.8100 C   0  0  1  0  0  0  0  0  0  0  0  0
   12.1950   15.4700   21.6300 C   0  0  0  0  0  0  0  0  0  0  0  0
   12.3340   14.8860   23.0400 C   0  0  0  0  0  0  0  0  0  0  0  0
   10.9870   14.8250   23.7630 C   0  0  0  0  0  0  0  0  0  0  0  0
    9.8110   14.8550   21.5890 C   0  0  0  0  0  0  0  0  0  0  0  0
    9.9490   14.2280   22.9050 N   0  0  0  0  0  0  0  0  0  0  0  0
    9.1520   13.1950   23.2490 C   0  0  0  0  0  0  0  0  0  0  0  0
    8.1590   12.8910   22.5960 O   0  0  0  0  0  0  0  0  0  0  0  0
    9.5820   12.4060   24.4700 C   0  0  0  0  0  0  0  0  0  0  0  0
    8.6670   11.2820   24.8360 C   0  0  0  0  0  0  0  0  0  0  0  0
    8.6630    9.9320   24.5080 C   0  0  0  0  0  0  0  0  0  0  0  0
    9.6010    9.1380   23.6600 C   0  0  0  0  0  0  0  0  0  0  0  0
    7.5880   11.4660   25.6720 N   0  0  0  0  0  0  0  0  0  0  0  0
    7.0640   12.7340   26.2170 C   0  0  0  0  0  0  0  0  0  0  0  0
    6.2850   12.4840   27.4970 C   0  0  0  0  0  0  0  0  0  0  0  0
    5.2410   11.3980   27.2970 C   0  0  0  0  0  0  0  0  0  0  0  0
    5.8480   10.0860   26.8000 C   0  0  0  0  0  0  0  0  0  0  0  0
    6.9890   10.2390   25.8420 C   0  0  0  0  0  0  0  0  0  0  0  0
    7.6100    9.3070   25.1430 N   0  0  0  0  0  0  0  0  0  0  0  0
 15 14  1  0
 14 22  1  0
 22 21  2  0
 21 16  1  0
 16 13  1  0
 14 13  2  0
 13 12  1  0
 12 10  1  0
 11 10  2  0
 10  9  1  0
  9  7  1  0
  7  6  1  0
  6  5  1  0
  5  4  1  0
  4  2  1  6
  3  2  1  0
  2  1  2  0
  8  4  1  0
  9  8  1  0
 17 16  1  0
 18 17  1  0
 19 18  1  0
 20 19  1  0
 21 20  1  0
M  END
>  <id>  (189) 
189

>  <inchikey>  (189) 
FXTPOBAQIFAHIO-LBPRGKRZSA-N

>  <alias>  (189) 
A3489a

>  <smiles>  (189) 
Cc1nc2n(c1CC(=O)N1CCC[C@H](C(N)=O)C1)CCCC2

>  <path>  (189) 
/opt/xchem-fragalysis-2/maxwin/BulkDock/TARGETS/A71EV2A/aligned_files/A3489a/A3489a.pdb

>  <distance_score>  (189) 
None

>  <energy_score>  (189) 
None

>  <compound>  (189) 
FXTPOBAQIFAHIO-UHFFFAOYSA-N

>  <compound_id>  (189) 
157

>  <target>  (189) 
A71EV2A

>  <tags>  (189) 
['GOOD count', 'MEDIOCRE count', '[Other] S1 site', 'hits', '[Other] S2 site', '[Other] P3 compound design', '[Series] Piperidine series', 'Main status', '[Other] upload_061224', 'BAD count']

>  <inspirations>  (189) 
None

>  <subsites>  (189) 
None

>  <reference>  (189) 


>  <observation_longname>  (189) 
A71EV2A-x3489_A_201_v1

>  <ConformerSites alias>  (189) 
1b - A0911/A/147

>  <CanonSites alias>  (189) 
1 - Active Site

>  <CrystalformSites alias>  (189) 
F8h - A0884/A/147

>  <Quatassemblies alias>  (189) 
A1 - monomer

>  <Crystalforms alias>  (189) 
F8 - A712A_x4271_2.1_refmac1_1st_ref

>  <ConformerSites upload name>  (189) 
1b - A71EV2A-x0911/A/147

>  <CanonSites upload name>  (189) 
1 - A71EV2A-x0911/A/147/1

>  <CrystalformSites upload name>  (189) 
F8h - A71EV2A-x0884/A/147/1

>  <Quatassemblies upload name>  (189) 
A1 - monomer

>  <Crystalforms upload name>  (189) 
F8 - A712A_x4271_2.1_refmac1_1st_ref

>  <ConformerSites short tag>  (189) 
1b - A0911/A/147

>  <CanonSites short tag>  (189) 
1 - A0911/A/147/1

>  <CrystalformSites short tag>  (189) 
F8h - A0884/A/147

>  <Quatassemblies short tag>  (189) 
A1 - monomer

>  <Crystalforms short tag>  (189) 
F8 - A712A_x4271_2.1_refmac1_1st_ref

>  <Centroid res>  (189) 
A71EV2A-x0911/A/133/A_v1

>  <Experiment code>  (189) 
A71EV2A-x3489

>  <Pose>  (189) 
A3489a

$$$$
A3509a
     RDKit          3D

 20 21  0  0  0  0  0  0  0  0999 V2000
   10.5460   16.8320   19.1580 O   0  0  0  0  0  0  0  0  0  0  0  0
   10.9380   15.6930   19.4330 C   0  0  0  0  0  0  0  0  0  0  0  0
   11.0260   14.7260   18.5320 N   0  0  0  0  0  0  0  0  0  0  0  0
   11.2880   15.3050   20.8580 C   0  0  1  0  0  0  0  0  0  0  0  0
   12.1810   16.3730   21.5110 C   0  0  0  0  0  0  0  0  0  0  0  0
   12.4520   16.0540   22.9870 C   0  0  0  0  0  0  0  0  0  0  0  0
   11.1570   15.8630   23.7420 C   0  0  0  0  0  0  0  0  0  0  0  0
   10.0120   15.1290   21.6810 C   0  0  0  0  0  0  0  0  0  0  0  0
   10.3460   14.8350   23.0800 N   0  0  0  0  0  0  0  0  0  0  0  0
   10.0880   13.6850   23.7630 C   0  0  0  0  0  0  0  0  0  0  0  0
   10.1820   13.6310   24.9900 O   0  0  0  0  0  0  0  0  0  0  0  0
    9.7200   12.6110   23.0070 N   0  0  0  0  0  0  0  0  0  0  0  0
    8.9870   11.5130   23.5150 C   0  0  0  0  0  0  0  0  0  0  0  0
    9.2540   10.2290   23.0550 C   0  0  0  0  0  0  0  0  0  0  0  0
    8.5140    9.1580   23.5280 C   0  0  0  0  0  0  0  0  0  0  0  0
    7.5370    9.3520   24.4890 C   0  0  0  0  0  0  0  0  0  0  0  0
    8.0020   11.7160   24.4790 C   0  0  0  0  0  0  0  0  0  0  0  0
    7.2910   10.6260   24.9790 C   0  0  0  0  0  0  0  0  0  0  0  0
    6.3210   10.8220   26.0280 C   0  0  0  0  0  0  0  0  0  0  0  0
    5.5460   10.9430   26.8540 N   0  0  0  0  0  0  0  0  0  0  0  0
 20 19  3  0
 19 18  1  0
 18 16  2  0
 16 15  1  0
 15 14  2  0
 14 13  1  0
 13 12  1  0
 12 10  1  0
 11 10  2  0
 10  9  1  0
  9  7  1  0
  7  6  1  0
  6  5  1  0
  5  4  1  0
  4  2  1  6
  3  2  1  0
  2  1  2  0
  8  4  1  0
  9  8  1  0
 17 13  2  0
 18 17  1  0
M  END
>  <id>  (190) 
190

>  <inchikey>  (190) 
USAPPLNLVADEDO-NSHDSACASA-N

>  <alias>  (190) 
A3509a

>  <smiles>  (190) 
N#Cc1cccc(NC(=O)N2CCC[C@H](C(N)=O)C2)c1

>  <path>  (190) 
/opt/xchem-fragalysis-2/maxwin/BulkDock/TARGETS/A71EV2A/aligned_files/A3509a/A3509a_hippo.pdb

>  <distance_score>  (190) 
None

>  <energy_score>  (190) 
None

>  <compound>  (190) 
USAPPLNLVADEDO-UHFFFAOYSA-N

>  <compound_id>  (190) 
158

>  <target>  (190) 
A71EV2A

>  <tags>  (190) 
['GOOD count', 'MEDIOCRE count', '[Other] S1 site', 'hits', '[Other] S2 site', '[Other] P3 compound design', '[Series] Piperidine series', 'Main status', '[Other] upload_061224', 'BAD count']

>  <inspirations>  (190) 
None

>  <subsites>  (190) 
None

>  <reference>  (190) 


>  <observation_longname>  (190) 
A71EV2A-x3509_A_201_v1

>  <ConformerSites alias>  (190) 
1b - A0911/A/147

>  <CanonSites alias>  (190) 
1 - Active Site

>  <CrystalformSites alias>  (190) 
F7j - A3509/A/201

>  <Quatassemblies alias>  (190) 
A1 - monomer

>  <Crystalforms alias>  (190) 
F7 - A712A_x4207_8.1_refmac1_1st_ref

>  <ConformerSites upload name>  (190) 
1b - A71EV2A-x0911/A/147

>  <CanonSites upload name>  (190) 
1 - A71EV2A-x0911/A/147/1

>  <CrystalformSites upload name>  (190) 
F7j - A71EV2A-x3509/A/201/1

>  <Quatassemblies upload name>  (190) 
A1 - monomer

>  <Crystalforms upload name>  (190) 
F7 - A712A_x4207_8.1_refmac1_1st_ref

>  <ConformerSites short tag>  (190) 
1b - A0911/A/147

>  <CanonSites short tag>  (190) 
1 - A0911/A/147/1

>  <CrystalformSites short tag>  (190) 
F7j - A3509/A/201

>  <Quatassemblies short tag>  (190) 
A1 - monomer

>  <Crystalforms short tag>  (190) 
F7 - A712A_x4207_8.1_refmac1_1st_ref

>  <Centroid res>  (190) 
A71EV2A-x0911/A/133/A_v1

>  <Experiment code>  (190) 
A71EV2A-x3509

>  <Pose>  (190) 
A3509a

$$$$
A3509b
     RDKit          3D

 20 21  0  0  0  0  0  0  0  0999 V2000
   10.5900   16.9290   19.1450 O   0  0  0  0  0  0  0  0  0  0  0  0
   10.9860   15.7870   19.4200 C   0  0  0  0  0  0  0  0  0  0  0  0
   11.0630   14.8090   18.5210 N   0  0  0  0  0  0  0  0  0  0  0  0
   11.3440   15.4070   20.8470 C   0  0  1  0  0  0  0  0  0  0  0  0
   12.2470   16.4770   21.4920 C   0  0  0  0  0  0  0  0  0  0  0  0
   12.5080   16.1880   22.9730 C   0  0  0  0  0  0  0  0  0  0  0  0
   11.1940   15.9930   23.7210 C   0  0  0  0  0  0  0  0  0  0  0  0
   10.0540   15.2400   21.6670 C   0  0  0  0  0  0  0  0  0  0  0  0
   10.3760   14.9590   23.0700 N   0  0  0  0  0  0  0  0  0  0  0  0
   10.1330   13.7930   23.7400 C   0  0  0  0  0  0  0  0  0  0  0  0
   10.2210   13.7280   24.9640 O   0  0  0  0  0  0  0  0  0  0  0  0
    9.7310   12.7310   22.9810 N   0  0  0  0  0  0  0  0  0  0  0  0
    9.0210   11.6130   23.4950 C   0  0  0  0  0  0  0  0  0  0  0  0
    9.3060   10.3270   23.0490 C   0  0  0  0  0  0  0  0  0  0  0  0
    8.5790    9.2520   23.5290 C   0  0  0  0  0  0  0  0  0  0  0  0
    7.5850    9.4440   24.4720 C   0  0  0  0  0  0  0  0  0  0  0  0
    8.0300   11.8120   24.4530 C   0  0  0  0  0  0  0  0  0  0  0  0
    7.3200   10.7220   24.9500 C   0  0  0  0  0  0  0  0  0  0  0  0
    6.3330   10.9200   25.9810 C   0  0  0  0  0  0  0  0  0  0  0  0
    5.5410   11.0410   26.7900 N   0  0  0  0  0  0  0  0  0  0  0  0
 20 19  3  0
 19 18  1  0
 18 16  2  0
 16 15  1  0
 15 14  2  0
 14 13  1  0
 13 12  1  0
 12 10  1  0
 11 10  2  0
 10  9  1  0
  9  7  1  0
  7  6  1  0
  6  5  1  0
  5  4  1  0
  4  2  1  6
  3  2  1  0
  2  1  2  0
  8  4  1  0
  9  8  1  0
 17 13  2  0
 18 17  1  0
M  END
>  <id>  (191) 
191

>  <inchikey>  (191) 
USAPPLNLVADEDO-NSHDSACASA-N

>  <alias>  (191) 
A3509b

>  <smiles>  (191) 
N#Cc1cccc(NC(=O)N2CCC[C@H](C(N)=O)C2)c1

>  <path>  (191) 
/opt/xchem-fragalysis-2/maxwin/BulkDock/TARGETS/A71EV2A/aligned_files/A3509b/A3509b.pdb

>  <distance_score>  (191) 
None

>  <energy_score>  (191) 
None

>  <compound>  (191) 
USAPPLNLVADEDO-UHFFFAOYSA-N

>  <compound_id>  (191) 
158

>  <target>  (191) 
A71EV2A

>  <tags>  (191) 
['GOOD count', 'MEDIOCRE count', '[Other] S1 site', 'hits', '[Other] S2 site', '[Other] P3 compound design', '[Series] Piperidine series', 'Main status', '[Other] upload_061224', 'BAD count']

>  <inspirations>  (191) 
None

>  <subsites>  (191) 
None

>  <reference>  (191) 


>  <observation_longname>  (191) 
A71EV2A-x3509_C_201_v1

>  <ConformerSites alias>  (191) 
1b - A0911/A/147

>  <CanonSites alias>  (191) 
1 - Active Site

>  <CrystalformSites alias>  (191) 
F7k - A3509/C/201

>  <Quatassemblies alias>  (191) 
A1 - monomer

>  <Crystalforms alias>  (191) 
F7 - A712A_x4207_8.1_refmac1_1st_ref

>  <ConformerSites upload name>  (191) 
1b - A71EV2A-x0911/A/147

>  <CanonSites upload name>  (191) 
1 - A71EV2A-x0911/A/147/1

>  <CrystalformSites upload name>  (191) 
F7k - A71EV2A-x3509/C/201/1

>  <Quatassemblies upload name>  (191) 
A1 - monomer

>  <Crystalforms upload name>  (191) 
F7 - A712A_x4207_8.1_refmac1_1st_ref

>  <ConformerSites short tag>  (191) 
1b - A0911/A/147

>  <CanonSites short tag>  (191) 
1 - A0911/A/147/1

>  <CrystalformSites short tag>  (191) 
F7k - A3509/C/201

>  <Quatassemblies short tag>  (191) 
A1 - monomer

>  <Crystalforms short tag>  (191) 
F7 - A712A_x4207_8.1_refmac1_1st_ref

>  <Centroid res>  (191) 
A71EV2A-x0911/A/133/A_v1

>  <Experiment code>  (191) 
A71EV2A-x3509

>  <Pose>  (191) 
A3509a

$$$$
A3510a
     RDKit          3D

 19 20  0  0  0  0  0  0  0  0999 V2000
   10.5290   16.7780   19.2870 O   0  0  0  0  0  0  0  0  0  0  0  0
   10.7580   15.5880   19.5040 C   0  0  0  0  0  0  0  0  0  0  0  0
   10.9690   14.7110   18.5370 N   0  0  0  0  0  0  0  0  0  0  0  0
   10.7920   15.0400   20.9190 C   0  0  1  0  0  0  0  0  0  0  0  0
   11.8460   15.7550   21.7720 C   0  0  0  0  0  0  0  0  0  0  0  0
   11.8730   15.2160   23.2050 C   0  0  0  0  0  0  0  0  0  0  0  0
   10.4840   15.2680   23.8380 C   0  0  0  0  0  0  0  0  0  0  0  0
    9.4460   15.2540   21.6150 C   0  0  0  0  0  0  0  0  0  0  0  0
    9.4800   14.6550   22.9540 N   0  0  0  0  0  0  0  0  0  0  0  0
    8.6060   13.6560   23.2690 C   0  0  0  0  0  0  0  0  0  0  0  0
    7.7610   13.2690   22.4710 O   0  0  0  0  0  0  0  0  0  0  0  0
    8.7320   13.1180   24.5140 N   0  0  0  0  0  0  0  0  0  0  0  0
    7.9270   12.0670   25.0340 C   0  0  0  0  0  0  0  0  0  0  0  0
    8.1380   10.7450   24.5920 C   0  0  0  0  0  0  0  0  0  0  0  0
    9.3060   10.3730   23.7150 C   0  0  0  0  0  0  0  0  0  0  0  0
    6.9240   12.3560   25.9610 C   0  0  0  0  0  0  0  0  0  0  0  0
    6.1130   11.3430   26.4390 C   0  0  0  0  0  0  0  0  0  0  0  0
    6.2850   10.0520   25.9940 C   0  0  0  0  0  0  0  0  0  0  0  0
    7.2810    9.7570   25.0760 C   0  0  0  0  0  0  0  0  0  0  0  0
 15 14  1  0
 14 19  2  0
 19 18  1  0
 18 17  2  0
 17 16  1  0
 16 13  2  0
 14 13  1  0
 13 12  1  0
 12 10  1  0
 11 10  2  0
 10  9  1  0
  9  7  1  0
  7  6  1  0
  6  5  1  0
  5  4  1  0
  4  2  1  6
  3  2  1  0
  2  1  2  0
  8  4  1  0
  9  8  1  0
M  END
>  <id>  (192) 
192

>  <inchikey>  (192) 
AIEHCHWAPRSECY-NSHDSACASA-N

>  <alias>  (192) 
A3510a

>  <smiles>  (192) 
Cc1ccccc1NC(=O)N1CCC[C@H](C(N)=O)C1

>  <path>  (192) 
/opt/xchem-fragalysis-2/maxwin/BulkDock/TARGETS/A71EV2A/aligned_files/A3510a/A3510a.pdb

>  <distance_score>  (192) 
None

>  <energy_score>  (192) 
None

>  <compound>  (192) 
AIEHCHWAPRSECY-UHFFFAOYSA-N

>  <compound_id>  (192) 
159

>  <target>  (192) 
A71EV2A

>  <tags>  (192) 
['GOOD count', 'MEDIOCRE count', '[Other] S1 site', 'hits', '[Other] S2 site', '[Other] P3 compound design', '[Series] Piperidine series', 'Main status', '[Other] upload_061224', 'BAD count']

>  <inspirations>  (192) 
None

>  <subsites>  (192) 
None

>  <reference>  (192) 


>  <observation_longname>  (192) 
A71EV2A-x3510_A_201_v1

>  <ConformerSites alias>  (192) 
1b - A0911/A/147

>  <CanonSites alias>  (192) 
1 - Active Site

>  <CrystalformSites alias>  (192) 
F8h - A0884/A/147

>  <Quatassemblies alias>  (192) 
A1 - monomer

>  <Crystalforms alias>  (192) 
F8 - A712A_x4271_2.1_refmac1_1st_ref

>  <ConformerSites upload name>  (192) 
1b - A71EV2A-x0911/A/147

>  <CanonSites upload name>  (192) 
1 - A71EV2A-x0911/A/147/1

>  <CrystalformSites upload name>  (192) 
F8h - A71EV2A-x0884/A/147/1

>  <Quatassemblies upload name>  (192) 
A1 - monomer

>  <Crystalforms upload name>  (192) 
F8 - A712A_x4271_2.1_refmac1_1st_ref

>  <ConformerSites short tag>  (192) 
1b - A0911/A/147

>  <CanonSites short tag>  (192) 
1 - A0911/A/147/1

>  <CrystalformSites short tag>  (192) 
F8h - A0884/A/147

>  <Quatassemblies short tag>  (192) 
A1 - monomer

>  <Crystalforms short tag>  (192) 
F8 - A712A_x4271_2.1_refmac1_1st_ref

>  <Centroid res>  (192) 
A71EV2A-x0911/A/133/A_v1

>  <Experiment code>  (192) 
A71EV2A-x3510

>  <Pose>  (192) 
A3510a

$$$$
A3593a
     RDKit          3D

 21 23  0  0  0  0  0  0  0  0999 V2000
    9.3390   14.4470   24.5210 O   0  0  0  0  0  0  0  0  0  0  0  0
    9.6190   13.5070   23.7530 C   0  0  0  0  0  0  0  0  0  0  0  0
    9.0110   12.1640   23.9500 C   0  0  0  0  0  0  0  0  0  0  0  0
    7.9500   11.7680   24.8410 C   0  0  0  0  0  0  0  0  0  0  0  0
    7.1430   12.3950   25.7900 C   0  0  0  0  0  0  0  0  0  0  0  0
    6.2320   11.6340   26.5130 C   0  0  0  0  0  0  0  0  0  0  0  0
    6.1240   10.2640   26.3100 C   0  0  0  0  0  0  0  0  0  0  0  0
    6.9080    9.6280   25.3550 C   0  0  0  0  0  0  0  0  0  0  0  0
    7.8080   10.3880   24.6280 C   0  0  0  0  0  0  0  0  0  0  0  0
    8.7290   10.0360   23.6870 N   0  0  0  0  0  0  0  0  0  0  0  0
    9.0830    8.6950   23.2370 C   0  0  0  0  0  0  0  0  0  0  0  0
    9.4540   11.1200   23.2470 N   0  0  0  0  0  0  0  0  0  0  0  0
   10.4840   13.6310   22.7380 N   0  0  0  0  0  0  0  0  0  0  0  0
   11.5760   14.5910   22.9180 C   0  0  1  0  0  0  0  0  0  0  0  0
   12.6210   14.0740   23.8910 C   0  0  0  0  0  0  0  0  0  0  0  0
   12.1530   14.8770   21.5400 C   0  0  0  0  0  0  0  0  0  0  0  0
   11.1720   15.5670   20.6650 C   0  0  0  0  0  0  0  0  0  0  0  0
   10.5370   16.7390   21.0850 N   0  0  0  0  0  0  0  0  0  0  0  0
    9.7600   17.0390   20.1080 C   0  0  0  0  0  0  0  0  0  0  0  0
    9.8280   16.2080   19.0440 O   0  0  0  0  0  0  0  0  0  0  0  0
   10.7320   15.2590   19.4380 C   0  0  0  0  0  0  0  0  0  0  0  0
 14 15  1  1
 16 14  1  0
 17 16  1  0
 17 21  2  0
 21 20  1  0
 20 19  1  0
 19 18  2  0
 18 17  1  0
 14 13  1  0
 13  2  1  0
  2  1  2  0
  3  2  1  0
  3 12  2  0
 12 10  1  0
 11 10  1  0
 10  9  1  0
  9  8  1  0
  8  7  2  0
  7  6  1  0
  6  5  2  0
  5  4  1  0
  4  3  1  0
  9  4  2  0
M  END
>  <id>  (193) 
193

>  <inchikey>  (193) 
LQNOWDAJBFJAFM-JTQLQIEISA-N

>  <alias>  (193) 
A3593a

>  <smiles>  (193) 
C[C@@H](Cc1cocn1)NC(=O)c1nn(C)c2ccccc12

>  <path>  (193) 
/opt/xchem-fragalysis-2/maxwin/BulkDock/TARGETS/A71EV2A/aligned_files/A3593a/A3593a.pdb

>  <distance_score>  (193) 
None

>  <energy_score>  (193) 
None

>  <compound>  (193) 
LQNOWDAJBFJAFM-UHFFFAOYSA-N

>  <compound_id>  (193) 
143

>  <target>  (193) 
A71EV2A

>  <tags>  (193) 
['GOOD count', "[Other] S1' site", 'MEDIOCRE count', '[Other] S1 site', 'hits', '[Other] S2 site', '[Other] P3 compound design', '[Series] Indazole series', 'Main status', '[Other] upload_061224', 'BAD count']

>  <inspirations>  (193) 
None

>  <subsites>  (193) 
None

>  <reference>  (193) 


>  <observation_longname>  (193) 
A71EV2A-x3593_A_201_v1

>  <ConformerSites alias>  (193) 
1b - A0911/A/147

>  <CanonSites alias>  (193) 
1 - Active Site

>  <CrystalformSites alias>  (193) 
F5i - A3175/A/201

>  <Quatassemblies alias>  (193) 
A1 - monomer

>  <Crystalforms alias>  (193) 
F5 - A71EV2A_x3178_new_long_dials_041024

>  <ConformerSites upload name>  (193) 
1b - A71EV2A-x0911/A/147

>  <CanonSites upload name>  (193) 
1 - A71EV2A-x0911/A/147/1

>  <CrystalformSites upload name>  (193) 
F5i - A71EV2A-x3175/A/201/1

>  <Quatassemblies upload name>  (193) 
A1 - monomer

>  <Crystalforms upload name>  (193) 
F5 - A71EV2A_x3178_new_long_dials_041024

>  <ConformerSites short tag>  (193) 
1b - A0911/A/147

>  <CanonSites short tag>  (193) 
1 - A0911/A/147/1

>  <CrystalformSites short tag>  (193) 
F5i - A3175/A/201

>  <Quatassemblies short tag>  (193) 
A1 - monomer

>  <Crystalforms short tag>  (193) 
F5 - A71EV2A_x3178_new_long_dials_041024

>  <Centroid res>  (193) 
A71EV2A-x0911/A/133/A_v1

>  <Experiment code>  (193) 
A71EV2A-x3593

>  <Pose>  (193) 
A3593a

$$$$
A3606a
     RDKit          3D

 26 28  0  0  0  0  0  0  0  0999 V2000
   10.2370   16.5540   19.2680 O   0  0  0  0  0  0  0  0  0  0  0  0
   10.6410   15.4080   19.4940 C   0  0  0  0  0  0  0  0  0  0  0  0
   10.9780   14.5610   18.5350 N   0  0  0  0  0  0  0  0  0  0  0  0
   10.7100   14.8630   20.9080 C   0  0  1  0  0  0  0  0  0  0  0  0
   11.8330   15.5120   21.7380 C   0  0  0  0  0  0  0  0  0  0  0  0
   11.8470   14.9470   23.1610 C   0  0  0  0  0  0  0  0  0  0  0  0
   10.4720   15.0760   23.8090 C   0  0  0  0  0  0  0  0  0  0  0  0
    9.3650   15.1030   21.6030 C   0  0  0  0  0  0  0  0  0  0  0  0
    9.4200   14.5190   22.9430 N   0  0  0  0  0  0  0  0  0  0  0  0
    8.6040   13.4980   23.2780 C   0  0  0  0  0  0  0  0  0  0  0  0
    7.6720   13.1490   22.5710 O   0  0  0  0  0  0  0  0  0  0  0  0
    8.8800   12.8630   24.6220 C   0  0  0  0  0  0  0  0  0  0  0  0
    8.0330   11.6720   24.8880 C   0  0  0  0  0  0  0  0  0  0  0  0
    8.3630   10.4070   24.4820 N   0  0  0  0  0  0  0  0  0  0  0  0
    9.5380    9.9750   23.7330 C   0  0  0  0  0  0  0  0  0  0  0  0
    6.8750   11.5630   25.6200 C   0  0  0  0  0  0  0  0  0  0  0  0
    6.5640   10.1960   25.5910 C   0  0  0  0  0  0  0  0  0  0  0  0
    7.4540    9.4910   24.9100 N   0  0  0  0  0  0  0  0  0  0  0  0
    6.1650   12.6360   26.3700 C   0  0  0  0  0  0  0  0  0  0  0  0
    5.1780   12.2980   27.2900 C   0  0  0  0  0  0  0  0  0  0  0  0
    4.6730   13.2720   28.1290 C   0  0  0  0  0  0  0  0  0  0  0  0
    3.5270   12.8120   29.3600 Cl  0  0  0  0  0  0  0  0  0  0  0  0
    5.0970   14.5860   28.0660 C   0  0  0  0  0  0  0  0  0  0  0  0
    6.0620   14.9070   27.1310 C   0  0  0  0  0  0  0  0  0  0  0  0
    6.6100   16.5630   27.0140 Cl  0  0  0  0  0  0  0  0  0  0  0  0
    6.5910   13.9600   26.2760 C   0  0  0  0  0  0  0  0  0  0  0  0
 15 14  1  0
 14 18  1  0
 18 17  2  0
 17 16  1  0
 19 16  1  0
 19 26  2  0
 26 24  1  0
 25 24  1  0
 24 23  2  0
 23 21  1  0
 22 21  1  0
 21 20  2  0
 20 19  1  0
 16 13  2  0
 14 13  1  0
 13 12  1  0
 12 10  1  0
 11 10  2  0
 10  9  1  0
  9  7  1  0
  7  6  1  0
  6  5  1  0
  5  4  1  0
  4  2  1  6
  3  2  1  0
  2  1  2  0
  8  4  1  0
  9  8  1  0
M  END
>  <id>  (194) 
194

>  <inchikey>  (194) 
CSGCLFRVJTXKQJ-NSHDSACASA-N

>  <alias>  (194) 
A3606a

>  <smiles>  (194) 
Cn1ncc(-c2cc(Cl)cc(Cl)c2)c1CC(=O)N1CCC[C@H](C(N)=O)C1

>  <path>  (194) 
/opt/xchem-fragalysis-2/maxwin/BulkDock/TARGETS/A71EV2A/aligned_files/A3606a/A3606a.pdb

>  <distance_score>  (194) 
None

>  <energy_score>  (194) 
None

>  <compound>  (194) 
CSGCLFRVJTXKQJ-UHFFFAOYSA-N

>  <compound_id>  (194) 
160

>  <target>  (194) 
A71EV2A

>  <tags>  (194) 
['GOOD count', 'MEDIOCRE count', '[Other] S1 site', 'hits', '[Other] S2 site', '[Other] P3 compound design', '[Series] Piperidine series', 'Main status', '[Other] upload_061224', 'BAD count']

>  <inspirations>  (194) 
None

>  <subsites>  (194) 
None

>  <reference>  (194) 


>  <observation_longname>  (194) 
A71EV2A-x3606_A_201_v1

>  <ConformerSites alias>  (194) 
1b - A0911/A/147

>  <CanonSites alias>  (194) 
1 - Active Site

>  <CrystalformSites alias>  (194) 
F5i - A3175/A/201

>  <Quatassemblies alias>  (194) 
A1 - monomer

>  <Crystalforms alias>  (194) 
F5 - A71EV2A_x3178_new_long_dials_041024

>  <ConformerSites upload name>  (194) 
1b - A71EV2A-x0911/A/147

>  <CanonSites upload name>  (194) 
1 - A71EV2A-x0911/A/147/1

>  <CrystalformSites upload name>  (194) 
F5i - A71EV2A-x3175/A/201/1

>  <Quatassemblies upload name>  (194) 
A1 - monomer

>  <Crystalforms upload name>  (194) 
F5 - A71EV2A_x3178_new_long_dials_041024

>  <ConformerSites short tag>  (194) 
1b - A0911/A/147

>  <CanonSites short tag>  (194) 
1 - A0911/A/147/1

>  <CrystalformSites short tag>  (194) 
F5i - A3175/A/201

>  <Quatassemblies short tag>  (194) 
A1 - monomer

>  <Crystalforms short tag>  (194) 
F5 - A71EV2A_x3178_new_long_dials_041024

>  <Centroid res>  (194) 
A71EV2A-x0911/A/133/A_v1

>  <Experiment code>  (194) 
A71EV2A-x3606

>  <Pose>  (194) 
A3606a

$$$$
A3612a
     RDKit          3D

 19 20  0  0  0  0  0  0  0  0999 V2000
    9.0270   10.9370   23.5860 F   0  0  0  0  0  0  0  0  0  0  0  0
    8.0890   11.0840   24.5600 C   0  0  0  0  0  0  0  0  0  0  0  0
    7.3700    9.9870   24.9720 C   0  0  0  0  0  0  0  0  0  0  0  0
    6.4350   10.1550   25.9850 C   0  0  0  0  0  0  0  0  0  0  0  0
    6.2530   11.3930   26.5660 C   0  0  0  0  0  0  0  0  0  0  0  0
    6.9850   12.4890   26.1300 C   0  0  0  0  0  0  0  0  0  0  0  0
    7.9140   12.3500   25.1000 C   0  0  0  0  0  0  0  0  0  0  0  0
    8.6580   13.4250   24.5530 N   0  0  0  0  0  0  0  0  0  0  0  0
    8.5830   13.8220   23.2500 C   0  0  0  0  0  0  0  0  0  0  0  0
    7.7460   13.3770   22.4750 O   0  0  0  0  0  0  0  0  0  0  0  0
    9.4440   14.8100   22.8710 N   0  0  0  0  0  0  0  0  0  0  0  0
   10.5060   15.3970   23.7040 C   0  0  0  0  0  0  0  0  0  0  0  0
   11.8640   15.2650   23.0500 C   0  0  0  0  0  0  0  0  0  0  0  0
   11.8280   15.7510   21.5970 C   0  0  0  0  0  0  0  0  0  0  0  0
    9.3870   15.3460   21.5070 C   0  0  0  0  0  0  0  0  0  0  0  0
   10.7090   15.0710   20.7860 C   0  0  1  0  0  0  0  0  0  0  0  0
   10.6620   15.5960   19.3610 C   0  0  0  0  0  0  0  0  0  0  0  0
   10.3020   16.7560   19.1200 O   0  0  0  0  0  0  0  0  0  0  0  0
   11.0830   14.7600   18.4250 N   0  0  0  0  0  0  0  0  0  0  0  0
 19 17  1  0
 18 17  2  0
 16 17  1  6
 16 14  1  0
 14 13  1  0
 13 12  1  0
 12 11  1  0
 11  9  1  0
 10  9  2  0
  9  8  1  0
  8  7  1  0
  7  6  2  0
  6  5  1  0
  5  4  2  0
  4  3  1  0
  3  2  2  0
  7  2  1  0
  2  1  1  0
 15 11  1  0
 16 15  1  0
M  END
>  <id>  (195) 
195

>  <inchikey>  (195) 
SIJSHILCUHKBHW-VIFPVBQESA-N

>  <alias>  (195) 
A3612a

>  <smiles>  (195) 
NC(=O)[C@H]1CCCN(C(=O)Nc2ccccc2F)C1

>  <path>  (195) 
/opt/xchem-fragalysis-2/maxwin/BulkDock/TARGETS/A71EV2A/aligned_files/A3612a/A3612a.pdb

>  <distance_score>  (195) 
None

>  <energy_score>  (195) 
None

>  <compound>  (195) 
SIJSHILCUHKBHW-UHFFFAOYSA-N

>  <compound_id>  (195) 
161

>  <target>  (195) 
A71EV2A

>  <tags>  (195) 
['GOOD count', 'MEDIOCRE count', '[Other] S1 site', 'hits', '[Other] S2 site', '[Other] P3 compound design', '[Series] Piperidine series', 'Main status', '[Other] upload_061224', 'BAD count']

>  <inspirations>  (195) 
None

>  <subsites>  (195) 
None

>  <reference>  (195) 


>  <observation_longname>  (195) 
A71EV2A-x3612_A_201_v1

>  <ConformerSites alias>  (195) 
1b - A0911/A/147

>  <CanonSites alias>  (195) 
1 - Active Site

>  <CrystalformSites alias>  (195) 
F8h - A0884/A/147

>  <Quatassemblies alias>  (195) 
A1 - monomer

>  <Crystalforms alias>  (195) 
F8 - A712A_x4271_2.1_refmac1_1st_ref

>  <ConformerSites upload name>  (195) 
1b - A71EV2A-x0911/A/147

>  <CanonSites upload name>  (195) 
1 - A71EV2A-x0911/A/147/1

>  <CrystalformSites upload name>  (195) 
F8h - A71EV2A-x0884/A/147/1

>  <Quatassemblies upload name>  (195) 
A1 - monomer

>  <Crystalforms upload name>  (195) 
F8 - A712A_x4271_2.1_refmac1_1st_ref

>  <ConformerSites short tag>  (195) 
1b - A0911/A/147

>  <CanonSites short tag>  (195) 
1 - A0911/A/147/1

>  <CrystalformSites short tag>  (195) 
F8h - A0884/A/147

>  <Quatassemblies short tag>  (195) 
A1 - monomer

>  <Crystalforms short tag>  (195) 
F8 - A712A_x4271_2.1_refmac1_1st_ref

>  <Centroid res>  (195) 
A71EV2A-x0911/A/133/A_v1

>  <Experiment code>  (195) 
A71EV2A-x3612

>  <Pose>  (195) 
A3612a

$$$$
A3616a
     RDKit          3D

 20 21  0  0  0  0  0  0  0  0999 V2000
   10.3020   16.8140   19.0580 O   0  0  0  0  0  0  0  0  0  0  0  0
   10.5710   15.6450   19.3640 C   0  0  0  0  0  0  0  0  0  0  0  0
   10.8120   14.6990   18.4630 N   0  0  0  0  0  0  0  0  0  0  0  0
   10.5960   15.1990   20.8140 C   0  0  1  0  0  0  0  0  0  0  0  0
   11.9660   15.4370   21.4570 C   0  0  0  0  0  0  0  0  0  0  0  0
   11.9480   15.0270   22.9290 C   0  0  0  0  0  0  0  0  0  0  0  0
   10.7760   15.6730   23.6800 C   0  0  0  0  0  0  0  0  0  0  0  0
    9.5130   15.9500   21.5880 C   0  0  0  0  0  0  0  0  0  0  0  0
    9.4890   15.4850   22.9800 N   0  0  0  0  0  0  0  0  0  0  0  0
    8.4510   14.6770   23.3760 C   0  0  0  0  0  0  0  0  0  0  0  0
    7.5740   14.3120   22.5950 O   0  0  0  0  0  0  0  0  0  0  0  0
    8.4360   14.3330   24.6710 N   0  0  0  0  0  0  0  0  0  0  0  0
    7.4930   13.3350   25.1640 C   0  0  0  0  0  0  0  0  0  0  0  0
    7.8130   11.9080   24.7570 C   0  0  0  0  0  0  0  0  0  0  0  0
    6.9950   10.8690   25.2230 C   0  0  0  0  0  0  0  0  0  0  0  0
    5.8740   11.1100   26.2010 C   0  0  0  0  0  0  0  0  0  0  0  0
    8.8890   11.6010   23.9260 C   0  0  0  0  0  0  0  0  0  0  0  0
    9.1430   10.2950   23.5410 C   0  0  0  0  0  0  0  0  0  0  0  0
    8.3060    9.2890   23.9430 C   0  0  0  0  0  0  0  0  0  0  0  0
    7.2500    9.5710   24.7810 C   0  0  0  0  0  0  0  0  0  0  0  0
 16 15  1  0
 15 20  2  0
 20 19  1  0
 19 18  2  0
 18 17  1  0
 17 14  2  0
 15 14  1  0
 14 13  1  0
 13 12  1  0
 12 10  1  0
 11 10  2  0
 10  9  1  0
  9  7  1  0
  7  6  1  0
  6  5  1  0
  5  4  1  0
  4  2  1  6
  3  2  1  0
  2  1  2  0
  8  4  1  0
  9  8  1  0
M  END
>  <id>  (196) 
196

>  <inchikey>  (196) 
XDPSLKIUHCZBTI-ZDUSSCGKSA-N

>  <alias>  (196) 
A3616a

>  <smiles>  (196) 
Cc1ccccc1CNC(=O)N1CCC[C@H](C(N)=O)C1

>  <path>  (196) 
/opt/xchem-fragalysis-2/maxwin/BulkDock/TARGETS/A71EV2A/aligned_files/A3616a/A3616a_hippo.pdb

>  <distance_score>  (196) 
None

>  <energy_score>  (196) 
None

>  <compound>  (196) 
XDPSLKIUHCZBTI-UHFFFAOYSA-N

>  <compound_id>  (196) 
162

>  <target>  (196) 
A71EV2A

>  <tags>  (196) 
['GOOD count', 'MEDIOCRE count', '[Other] S1 site', 'hits', '[Other] S2 site', '[Other] P3 compound design', '[Series] Piperidine series', 'Main status', '[Other] upload_061224', 'BAD count']

>  <inspirations>  (196) 
None

>  <subsites>  (196) 
None

>  <reference>  (196) 


>  <observation_longname>  (196) 
A71EV2A-x3616_A_201_v1

>  <ConformerSites alias>  (196) 
1b - A0911/A/147

>  <CanonSites alias>  (196) 
1 - Active Site

>  <CrystalformSites alias>  (196) 
F7j - A3509/A/201

>  <Quatassemblies alias>  (196) 
A1 - monomer

>  <Crystalforms alias>  (196) 
F7 - A712A_x4207_8.1_refmac1_1st_ref

>  <ConformerSites upload name>  (196) 
1b - A71EV2A-x0911/A/147

>  <CanonSites upload name>  (196) 
1 - A71EV2A-x0911/A/147/1

>  <CrystalformSites upload name>  (196) 
F7j - A71EV2A-x3509/A/201/1

>  <Quatassemblies upload name>  (196) 
A1 - monomer

>  <Crystalforms upload name>  (196) 
F7 - A712A_x4207_8.1_refmac1_1st_ref

>  <ConformerSites short tag>  (196) 
1b - A0911/A/147

>  <CanonSites short tag>  (196) 
1 - A0911/A/147/1

>  <CrystalformSites short tag>  (196) 
F7j - A3509/A/201

>  <Quatassemblies short tag>  (196) 
A1 - monomer

>  <Crystalforms short tag>  (196) 
F7 - A712A_x4207_8.1_refmac1_1st_ref

>  <Centroid res>  (196) 
A71EV2A-x0911/A/133/A_v1

>  <Experiment code>  (196) 
A71EV2A-x3616

>  <Pose>  (196) 
A3616a

$$$$
A3616b
     RDKit          3D

 20 21  0  0  0  0  0  0  0  0999 V2000
   10.4140   16.8250   19.0750 O   0  0  0  0  0  0  0  0  0  0  0  0
   10.7140   15.6510   19.3620 C   0  0  0  0  0  0  0  0  0  0  0  0
   10.9300   14.7160   18.4540 N   0  0  0  0  0  0  0  0  0  0  0  0
   10.8130   15.1950   20.8080 C   0  0  1  0  0  0  0  0  0  0  0  0
   12.1630   15.5630   21.4330 C   0  0  0  0  0  0  0  0  0  0  0  0
   12.2140   15.1870   22.9190 C   0  0  0  0  0  0  0  0  0  0  0  0
   11.0240   15.7380   23.6810 C   0  0  0  0  0  0  0  0  0  0  0  0
    9.6860   15.8240   21.6160 C   0  0  0  0  0  0  0  0  0  0  0  0
    9.7640   15.3820   23.0120 N   0  0  0  0  0  0  0  0  0  0  0  0
    8.7660   14.5610   23.4570 C   0  0  0  0  0  0  0  0  0  0  0  0
    7.8700   14.1520   22.7140 O   0  0  0  0  0  0  0  0  0  0  0  0
    8.8240   14.2010   24.7580 N   0  0  0  0  0  0  0  0  0  0  0  0
    7.9100   13.1880   25.2730 C   0  0  0  0  0  0  0  0  0  0  0  0
    8.2010   11.7710   24.8180 C   0  0  0  0  0  0  0  0  0  0  0  0
    7.3800   10.7290   25.2690 C   0  0  0  0  0  0  0  0  0  0  0  0
    6.2900   10.9620   26.2840 C   0  0  0  0  0  0  0  0  0  0  0  0
    9.2700   11.4800   23.9700 C   0  0  0  0  0  0  0  0  0  0  0  0
    9.5080   10.1820   23.5460 C   0  0  0  0  0  0  0  0  0  0  0  0
    8.6950    9.1670   23.9650 C   0  0  0  0  0  0  0  0  0  0  0  0
    7.6480    9.4360   24.8270 C   0  0  0  0  0  0  0  0  0  0  0  0
 16 15  1  0
 15 20  2  0
 20 19  1  0
 19 18  2  0
 18 17  1  0
 17 14  2  0
 15 14  1  0
 14 13  1  0
 13 12  1  0
 12 10  1  0
 11 10  2  0
 10  9  1  0
  9  7  1  0
  7  6  1  0
  6  5  1  0
  5  4  1  0
  4  2  1  6
  3  2  1  0
  2  1  2  0
  8  4  1  0
  9  8  1  0
M  END
>  <id>  (197) 
197

>  <inchikey>  (197) 
XDPSLKIUHCZBTI-ZDUSSCGKSA-N

>  <alias>  (197) 
A3616b

>  <smiles>  (197) 
Cc1ccccc1CNC(=O)N1CCC[C@H](C(N)=O)C1

>  <path>  (197) 
/opt/xchem-fragalysis-2/maxwin/BulkDock/TARGETS/A71EV2A/aligned_files/A3616b/A3616b_hippo.pdb

>  <distance_score>  (197) 
None

>  <energy_score>  (197) 
None

>  <compound>  (197) 
XDPSLKIUHCZBTI-UHFFFAOYSA-N

>  <compound_id>  (197) 
162

>  <target>  (197) 
A71EV2A

>  <tags>  (197) 
['GOOD count', 'MEDIOCRE count', '[Other] S1 site', 'hits', '[Other] S2 site', '[Other] P3 compound design', '[Series] Piperidine series', 'Main status', '[Other] upload_061224', 'BAD count']

>  <inspirations>  (197) 
None

>  <subsites>  (197) 
None

>  <reference>  (197) 


>  <observation_longname>  (197) 
A71EV2A-x3616_C_201_v1

>  <ConformerSites alias>  (197) 
1b - A0911/A/147

>  <CanonSites alias>  (197) 
1 - Active Site

>  <CrystalformSites alias>  (197) 
F7k - A3509/C/201

>  <Quatassemblies alias>  (197) 
A1 - monomer

>  <Crystalforms alias>  (197) 
F7 - A712A_x4207_8.1_refmac1_1st_ref

>  <ConformerSites upload name>  (197) 
1b - A71EV2A-x0911/A/147

>  <CanonSites upload name>  (197) 
1 - A71EV2A-x0911/A/147/1

>  <CrystalformSites upload name>  (197) 
F7k - A71EV2A-x3509/C/201/1

>  <Quatassemblies upload name>  (197) 
A1 - monomer

>  <Crystalforms upload name>  (197) 
F7 - A712A_x4207_8.1_refmac1_1st_ref

>  <ConformerSites short tag>  (197) 
1b - A0911/A/147

>  <CanonSites short tag>  (197) 
1 - A0911/A/147/1

>  <CrystalformSites short tag>  (197) 
F7k - A3509/C/201

>  <Quatassemblies short tag>  (197) 
A1 - monomer

>  <Crystalforms short tag>  (197) 
F7 - A712A_x4207_8.1_refmac1_1st_ref

>  <Centroid res>  (197) 
A71EV2A-x0911/A/133/A_v1

>  <Experiment code>  (197) 
A71EV2A-x3616

>  <Pose>  (197) 
A3616a

$$$$
A3618a
     RDKit          3D

 23 24  0  0  0  0  0  0  0  0999 V2000
   10.4330   16.6170   19.1150 O   0  0  0  0  0  0  0  0  0  0  0  0
   10.7680   15.4510   19.3790 C   0  0  0  0  0  0  0  0  0  0  0  0
   11.1580   14.6030   18.4330 N   0  0  0  0  0  0  0  0  0  0  0  0
   10.6970   14.9040   20.7990 C   0  0  1  0  0  0  0  0  0  0  0  0
   11.7060   15.5560   21.7790 C   0  0  0  0  0  0  0  0  0  0  0  0
   11.6380   14.8610   23.1420 C   0  0  0  0  0  0  0  0  0  0  0  0
   10.2310   14.9500   23.7350 C   0  0  0  0  0  0  0  0  0  0  0  0
    9.3050   15.0840   21.4180 C   0  0  0  0  0  0  0  0  0  0  0  0
    9.2150   14.4960   22.7650 N   0  0  0  0  0  0  0  0  0  0  0  0
    8.2110   13.6220   23.0710 C   0  0  0  0  0  0  0  0  0  0  0  0
    7.4930   13.1640   22.2060 O   0  0  0  0  0  0  0  0  0  0  0  0
    7.9580   13.4070   24.4070 N   0  0  0  0  0  0  0  0  0  0  0  0
    7.0680   12.4160   24.9250 C   0  0  0  0  0  0  0  0  0  0  0  0
    7.4450   11.1020   24.6460 C   0  0  0  0  0  0  0  0  0  0  0  0
    6.6850   10.0460   25.1400 C   0  0  0  0  0  0  0  0  0  0  0  0
    5.5540   10.2890   25.9030 C   0  0  0  0  0  0  0  0  0  0  0  0
    5.9160   12.6540   25.6760 C   0  0  0  0  0  0  0  0  0  0  0  0
    5.1510   11.5940   26.1690 C   0  0  0  0  0  0  0  0  0  0  0  0
    3.9080   11.7960   26.9840 C   0  0  0  0  0  0  0  0  0  0  0  0
    3.5150   10.9380   27.7830 O   0  0  0  0  0  0  0  0  0  0  0  0
    3.2440   12.9410   26.8100 N   0  0  0  0  0  0  0  0  0  0  0  0
    2.0520   13.2710   27.5940 C   0  0  0  0  0  0  0  0  0  0  0  0
    0.9470   13.7770   26.7400 C   0  0  0  0  0  0  0  0  0  0  0  0
 23 22  1  0
 22 21  1  0
 21 19  1  0
 20 19  2  0
 19 18  1  0
 18 16  2  0
 16 15  1  0
 15 14  2  0
 14 13  1  0
 13 12  1  0
 12 10  1  0
 11 10  2  0
 10  9  1  0
  9  7  1  0
  7  6  1  0
  6  5  1  0
  5  4  1  0
  4  2  1  6
  3  2  1  0
  2  1  2  0
  8  4  1  0
  9  8  1  0
 17 13  2  0
 18 17  1  0
M  END
>  <id>  (198) 
198

>  <inchikey>  (198) 
AHABGCZYHXNKLQ-LBPRGKRZSA-N

>  <alias>  (198) 
A3618a

>  <smiles>  (198) 
CCNC(=O)c1cccc(NC(=O)N2CCC[C@H](C(N)=O)C2)c1

>  <path>  (198) 
/opt/xchem-fragalysis-2/maxwin/BulkDock/TARGETS/A71EV2A/aligned_files/A3618a/A3618a_hippo.pdb

>  <distance_score>  (198) 
None

>  <energy_score>  (198) 
None

>  <compound>  (198) 
AHABGCZYHXNKLQ-UHFFFAOYSA-N

>  <compound_id>  (198) 
163

>  <target>  (198) 
A71EV2A

>  <tags>  (198) 
['GOOD count', 'MEDIOCRE count', '[Other] S1 site', 'hits', '[Other] S2 site', '[Other] P3 compound design', '[Other] upload_1 2025-02-12', 'Main status', '[Other] upload_061224', '[Series] Piperidine series', 'BAD count']

>  <inspirations>  (198) 
None

>  <subsites>  (198) 
None

>  <reference>  (198) 


>  <observation_longname>  (198) 
A71EV2A-x3618_A_201_v1

>  <ConformerSites alias>  (198) 
1b - A0911/A/147

>  <CanonSites alias>  (198) 
1 - Active Site

>  <CrystalformSites alias>  (198) 
F5i - A3175/A/201

>  <Quatassemblies alias>  (198) 
A1 - monomer

>  <Crystalforms alias>  (198) 
F5 - A71EV2A_x3178_new_long_dials_041024

>  <ConformerSites upload name>  (198) 
1b - A71EV2A-x0911/A/147

>  <CanonSites upload name>  (198) 
1 - A71EV2A-x0911/A/147/1

>  <CrystalformSites upload name>  (198) 
F5i - A71EV2A-x3175/A/201/1

>  <Quatassemblies upload name>  (198) 
A1 - monomer

>  <Crystalforms upload name>  (198) 
F5 - A71EV2A_x3178_new_long_dials_041024

>  <ConformerSites short tag>  (198) 
1b - A0911/A/147

>  <CanonSites short tag>  (198) 
1 - A0911/A/147/1

>  <CrystalformSites short tag>  (198) 
F5i - A3175/A/201

>  <Quatassemblies short tag>  (198) 
A1 - monomer

>  <Crystalforms short tag>  (198) 
F5 - A71EV2A_x3178_new_long_dials_041024

>  <Centroid res>  (198) 
A71EV2A-x0911/A/133/A_v1

>  <Experiment code>  (198) 
A71EV2A-x3618

>  <Pose>  (198) 
A3618a

$$$$
A3621a
     RDKit          3D

 17 18  0  0  0  0  0  0  0  0999 V2000
    7.8350   13.4490   22.4460 O   0  0  0  0  0  0  0  0  0  0  0  0
    8.9710   13.4150   22.8830 C   0  0  0  0  0  0  0  0  0  0  0  0
    9.9880   14.0370   22.2600 N   0  0  0  0  0  0  0  0  0  0  0  0
    9.7660   14.8320   21.0450 C   0  0  0  0  0  0  0  0  0  0  0  0
   11.1670   15.2970   20.6600 C   0  0  2  0  0  0  0  0  0  0  0  0
   11.7460   14.4070   19.6870 O   0  0  0  0  0  0  0  0  0  0  0  0
   11.9210   15.2980   21.9790 C   0  0  0  0  0  0  0  0  0  0  0  0
   11.3990   14.0530   22.6750 C   0  0  0  0  0  0  0  0  0  0  0  0
    9.3230   12.7430   24.1970 C   0  0  0  0  0  0  0  0  0  0  0  0
    8.2130   11.8840   24.7520 C   0  0  0  0  0  0  0  0  0  0  0  0
    8.2150   10.5170   24.4910 C   0  0  0  0  0  0  0  0  0  0  0  0
    9.1690   10.1170   23.5880 O   0  0  0  0  0  0  0  0  0  0  0  0
    9.3880    8.7300   23.4090 C   0  0  0  0  0  0  0  0  0  0  0  0
    7.2540   12.3900   25.6270 C   0  0  0  0  0  0  0  0  0  0  0  0
    6.3570   11.5490   26.2600 C   0  0  0  0  0  0  0  0  0  0  0  0
    6.3870   10.2020   26.0160 C   0  0  0  0  0  0  0  0  0  0  0  0
    7.3010    9.6770   25.1140 C   0  0  0  0  0  0  0  0  0  0  0  0
 13 12  1  0
 12 11  1  0
 11 17  2  0
 17 16  1  0
 16 15  2  0
 15 14  1  0
 14 10  2  0
 11 10  1  0
 10  9  1  0
  9  2  1  0
  2  1  2  0
  3  2  1  0
  3  8  1  0
  8  7  1  0
  7  5  1  0
  5  6  1  6
  5  4  1  0
  4  3  1  0
M  END
>  <id>  (199) 
199

>  <inchikey>  (199) 
MYUHZHXRZFYTPE-LLVKDONJSA-N

>  <alias>  (199) 
A3621a

>  <smiles>  (199) 
COc1ccccc1CC(=O)N1CC[C@@H](O)C1

>  <path>  (199) 
/opt/xchem-fragalysis-2/maxwin/BulkDock/TARGETS/A71EV2A/aligned_files/A3621a/A3621a.pdb

>  <distance_score>  (199) 
None

>  <energy_score>  (199) 
None

>  <compound>  (199) 
MYUHZHXRZFYTPE-UHFFFAOYSA-N

>  <compound_id>  (199) 
164

>  <target>  (199) 
A71EV2A

>  <tags>  (199) 
['GOOD count', 'MEDIOCRE count', '[Other] S1 site', 'hits', '[Other] S2 site', '[Other] P3 compound design', '[Other] upload_1 2025-02-12', 'Main status', 'BAD count']

>  <inspirations>  (199) 
None

>  <subsites>  (199) 
None

>  <reference>  (199) 


>  <observation_longname>  (199) 
A71EV2A-x3621_A_201_v1

>  <ConformerSites alias>  (199) 
1b - A0911/A/147

>  <CanonSites alias>  (199) 
1 - Active Site

>  <CrystalformSites alias>  (199) 
F5i - A3175/A/201

>  <Quatassemblies alias>  (199) 
A1 - monomer

>  <Crystalforms alias>  (199) 
F5 - A71EV2A_x3178_new_long_dials_041024

>  <ConformerSites upload name>  (199) 
1b - A71EV2A-x0911/A/147

>  <CanonSites upload name>  (199) 
1 - A71EV2A-x0911/A/147/1

>  <CrystalformSites upload name>  (199) 
F5i - A71EV2A-x3175/A/201/1

>  <Quatassemblies upload name>  (199) 
A1 - monomer

>  <Crystalforms upload name>  (199) 
F5 - A71EV2A_x3178_new_long_dials_041024

>  <ConformerSites short tag>  (199) 
1b - A0911/A/147

>  <CanonSites short tag>  (199) 
1 - A0911/A/147/1

>  <CrystalformSites short tag>  (199) 
F5i - A3175/A/201

>  <Quatassemblies short tag>  (199) 
A1 - monomer

>  <Crystalforms short tag>  (199) 
F5 - A71EV2A_x3178_new_long_dials_041024

>  <Centroid res>  (199) 
A71EV2A-x0911/A/133/A_v1

>  <Experiment code>  (199) 
A71EV2A-x3621

>  <Pose>  (199) 
A3621a

$$$$
A3623a
     RDKit          3D

 20 21  0  0  0  0  0  0  0  0999 V2000
    7.9600   15.4200   21.7040 O   0  0  0  0  0  0  0  0  0  0  0  0
    6.9530   14.6060   22.2990 S   0  0  0  0  0  0  0  0  0  0  0  0
    6.8980   13.2170   21.9860 O   0  0  0  0  0  0  0  0  0  0  0  0
    5.5230   15.2450   21.8640 N   0  0  0  0  0  0  0  0  0  0  0  0
    4.2810   14.4980   22.0420 C   0  0  0  0  0  0  0  0  0  0  0  0
    3.5960   14.3330   20.7260 C   0  0  0  0  0  0  0  0  0  0  0  0
    2.8350   15.1810   20.1340 N   0  0  0  0  0  0  0  0  0  0  0  0
    2.4720   14.5560   18.9660 C   0  0  0  0  0  0  0  0  0  0  0  0
    3.7790   13.1670   20.0450 O   0  0  0  0  0  0  0  0  0  0  0  0
    3.0380   13.3490   18.8920 C   0  0  0  0  0  0  0  0  0  0  0  0
    3.0890   12.2420   17.9020 C   0  0  0  0  0  0  0  0  0  0  0  0
    7.0700   14.7480   24.0630 C   0  0  0  0  0  0  0  0  0  0  0  0
    8.3500   14.2410   24.7340 C   0  0  1  0  0  0  0  0  0  0  0  0
    8.4260   14.7360   26.1800 C   0  0  0  0  0  0  0  0  0  0  0  0
    8.4480   12.7280   24.6400 C   0  0  0  0  0  0  0  0  0  0  0  0
    7.6670   11.9140   25.4510 C   0  0  0  0  0  0  0  0  0  0  0  0
    7.7820   10.5390   25.3900 C   0  0  0  0  0  0  0  0  0  0  0  0
    8.6690    9.9550   24.5120 C   0  0  0  0  0  0  0  0  0  0  0  0
    9.4370   10.7480   23.6890 C   0  0  0  0  0  0  0  0  0  0  0  0
    9.3290   12.1290   23.7550 C   0  0  0  0  0  0  0  0  0  0  0  0
 11 10  1  0
 10  8  2  0
  8  7  1  0
  7  6  2  0
  6  5  1  0
  5  4  1  0
  4  2  1  0
  3  2  2  0
  2  1  2  0
 12  2  1  0
 13 12  1  0
 13 14  1  1
 15 13  1  0
 15 20  2  0
 20 19  1  0
 19 18  2  0
 18 17  1  0
 17 16  2  0
 16 15  1  0
  9  6  1  0
 10  9  1  0
M  END
>  <id>  (200) 
200

>  <inchikey>  (200) 
ZXLBDYWEYRPSHD-LLVKDONJSA-N

>  <alias>  (200) 
A3623a

>  <smiles>  (200) 
Cc1cnc(CNS(=O)(=O)C[C@@H](C)c2ccccc2)o1

>  <path>  (200) 
/opt/xchem-fragalysis-2/maxwin/BulkDock/TARGETS/A71EV2A/aligned_files/A3623a/A3623a.pdb

>  <distance_score>  (200) 
None

>  <energy_score>  (200) 
None

>  <compound>  (200) 
ZXLBDYWEYRPSHD-UHFFFAOYSA-N

>  <compound_id>  (200) 
165

>  <target>  (200) 
A71EV2A

>  <tags>  (200) 
['GOOD count', '[Other] S4 site', 'MEDIOCRE count', '[Other] S1 site', 'hits', '[Other] P3 compound design', '[Other] upload_2 2024-12-12', 'Main status', 'BAD count', '[Other] S3 site']

>  <inspirations>  (200) 
None

>  <subsites>  (200) 
None

>  <reference>  (200) 


>  <observation_longname>  (200) 
A71EV2A-x3623_A_201_v1

>  <ConformerSites alias>  (200) 
1b - A0911/A/147

>  <CanonSites alias>  (200) 
1 - Active Site

>  <CrystalformSites alias>  (200) 
F5i - A3175/A/201

>  <Quatassemblies alias>  (200) 
A1 - monomer

>  <Crystalforms alias>  (200) 
F5 - A71EV2A_x3178_new_long_dials_041024

>  <ConformerSites upload name>  (200) 
1b - A71EV2A-x0911/A/147

>  <CanonSites upload name>  (200) 
1 - A71EV2A-x0911/A/147/1

>  <CrystalformSites upload name>  (200) 
F5i - A71EV2A-x3175/A/201/1

>  <Quatassemblies upload name>  (200) 
A1 - monomer

>  <Crystalforms upload name>  (200) 
F5 - A71EV2A_x3178_new_long_dials_041024

>  <ConformerSites short tag>  (200) 
1b - A0911/A/147

>  <CanonSites short tag>  (200) 
1 - A0911/A/147/1

>  <CrystalformSites short tag>  (200) 
F5i - A3175/A/201

>  <Quatassemblies short tag>  (200) 
A1 - monomer

>  <Crystalforms short tag>  (200) 
F5 - A71EV2A_x3178_new_long_dials_041024

>  <Centroid res>  (200) 
A71EV2A-x0911/A/133/A_v1

>  <Experiment code>  (200) 
A71EV2A-x3623

>  <Pose>  (200) 
A3623a

$$$$
A3634a
     RDKit          3D

 20 21  0  0  0  0  0  0  0  0999 V2000
   10.0460   16.7480   18.6010 O   0  0  0  0  0  0  0  0  0  0  0  0
   10.3750   15.6830   19.1290 C   0  0  0  0  0  0  0  0  0  0  0  0
   10.9340   14.6720   18.4600 N   0  0  0  0  0  0  0  0  0  0  0  0
   10.1450   15.4780   20.6020 C   0  0  1  0  0  0  0  0  0  0  0  0
    8.9080   14.6370   20.8880 C   0  0  0  0  0  0  0  0  0  0  0  0
   11.2590   14.8830   21.4930 C   0  0  1  0  0  0  0  0  0  0  0  0
   12.3770   15.8760   21.8060 C   0  0  0  0  0  0  0  0  0  0  0  0
   10.4990   14.4270   22.7340 C   0  0  0  0  0  0  0  0  0  0  0  0
    9.1530   14.1280   22.2340 N   0  0  0  0  0  0  0  0  0  0  0  0
    8.1760   13.5200   22.9210 C   0  0  0  0  0  0  0  0  0  0  0  0
    7.0800   13.3070   22.4370 O   0  0  0  0  0  0  0  0  0  0  0  0
    8.5080   13.1650   24.3570 C   0  0  0  0  0  0  0  0  0  0  0  0
    7.5790   12.1140   24.9160 C   0  0  0  0  0  0  0  0  0  0  0  0
    7.7700   10.7790   24.5790 C   0  0  0  0  0  0  0  0  0  0  0  0
    8.6730   10.5750   23.5690 O   0  0  0  0  0  0  0  0  0  0  0  0
    9.5890    9.4850   23.6780 C   0  0  0  0  0  0  0  0  0  0  0  0
    6.5840   12.4340   25.8370 C   0  0  0  0  0  0  0  0  0  0  0  0
    5.8360   11.4410   26.4470 C   0  0  0  0  0  0  0  0  0  0  0  0
    6.0580   10.1240   26.1300 C   0  0  0  0  0  0  0  0  0  0  0  0
    7.0170    9.7800   25.1840 C   0  0  0  0  0  0  0  0  0  0  0  0
 16 15  1  0
 15 14  1  0
 14 20  2  0
 20 19  1  0
 19 18  2  0
 18 17  1  0
 17 13  2  0
 14 13  1  0
 13 12  1  0
 12 10  1  0
 11 10  2  0
 10  9  1  0
  9  5  1  0
  5  4  1  0
  4  2  1  6
  3  2  1  0
  2  1  2  0
  6  4  1  0
  6  7  1  1
  8  6  1  0
  9  8  1  0
M  END
>  <id>  (201) 
201

>  <inchikey>  (201) 
YUYPXSAJEYKAGG-JQWIXIFHSA-N

>  <alias>  (201) 
A3634a

>  <smiles>  (201) 
COc1ccccc1CC(=O)N1C[C@H](C(N)=O)[C@@H](C)C1

>  <path>  (201) 
/opt/xchem-fragalysis-2/maxwin/BulkDock/TARGETS/A71EV2A/aligned_files/A3634a/A3634a.pdb

>  <distance_score>  (201) 
None

>  <energy_score>  (201) 
None

>  <compound>  (201) 
YUYPXSAJEYKAGG-UHFFFAOYSA-N

>  <compound_id>  (201) 
166

>  <target>  (201) 
A71EV2A

>  <tags>  (201) 
['GOOD count', "[Other] S1' site", 'MEDIOCRE count', '[Other] S1 site', 'hits', '[Other] S2 site', '[Other] P3 compound design', 'Main status', '[Other] upload_061224', 'BAD count']

>  <inspirations>  (201) 
None

>  <subsites>  (201) 
None

>  <reference>  (201) 


>  <observation_longname>  (201) 
A71EV2A-x3634_A_201_v1

>  <ConformerSites alias>  (201) 
1b - A0911/A/147

>  <CanonSites alias>  (201) 
1 - Active Site

>  <CrystalformSites alias>  (201) 
F5i - A3175/A/201

>  <Quatassemblies alias>  (201) 
A1 - monomer

>  <Crystalforms alias>  (201) 
F5 - A71EV2A_x3178_new_long_dials_041024

>  <ConformerSites upload name>  (201) 
1b - A71EV2A-x0911/A/147

>  <CanonSites upload name>  (201) 
1 - A71EV2A-x0911/A/147/1

>  <CrystalformSites upload name>  (201) 
F5i - A71EV2A-x3175/A/201/1

>  <Quatassemblies upload name>  (201) 
A1 - monomer

>  <Crystalforms upload name>  (201) 
F5 - A71EV2A_x3178_new_long_dials_041024

>  <ConformerSites short tag>  (201) 
1b - A0911/A/147

>  <CanonSites short tag>  (201) 
1 - A0911/A/147/1

>  <CrystalformSites short tag>  (201) 
F5i - A3175/A/201

>  <Quatassemblies short tag>  (201) 
A1 - monomer

>  <Crystalforms short tag>  (201) 
F5 - A71EV2A_x3178_new_long_dials_041024

>  <Centroid res>  (201) 
A71EV2A-x0911/A/133/A_v1

>  <Experiment code>  (201) 
A71EV2A-x3634

>  <Pose>  (201) 
A3634a

$$$$
A3663a
     RDKit          3D

 20 21  0  0  0  0  0  0  0  0999 V2000
    9.8970   16.3480   18.7200 O   0  0  0  0  0  0  0  0  0  0  0  0
   10.6220   15.4830   19.2200 C   0  0  0  0  0  0  0  0  0  0  0  0
   11.3010   14.5900   18.5200 N   0  0  0  0  0  0  0  0  0  0  0  0
   10.7690   15.4490   20.7270 C   0  0  2  0  0  0  0  0  0  0  0  0
   12.1070   15.1190   21.1300 O   0  0  0  0  0  0  0  0  0  0  0  0
   12.2020   15.1190   22.5630 C   0  0  0  0  0  0  0  0  0  0  0  0
   11.3640   13.9910   23.1420 C   0  0  0  0  0  0  0  0  0  0  0  0
    9.8230   14.3560   21.1620 C   0  0  0  0  0  0  0  0  0  0  0  0
    9.9970   14.0170   22.5790 N   0  0  0  0  0  0  0  0  0  0  0  0
    8.8820   13.6320   23.2380 C   0  0  0  0  0  0  0  0  0  0  0  0
    7.7870   13.5330   22.6860 O   0  0  0  0  0  0  0  0  0  0  0  0
    9.0550   13.2380   24.6900 C   0  0  0  0  0  0  0  0  0  0  0  0
    7.9630   12.2760   25.0890 C   0  0  0  0  0  0  0  0  0  0  0  0
    8.0180   10.9520   24.6710 C   0  0  0  0  0  0  0  0  0  0  0  0
    8.8250   10.7250   23.5860 O   0  0  0  0  0  0  0  0  0  0  0  0
    9.6300    9.5480   23.5850 C   0  0  0  0  0  0  0  0  0  0  0  0
    6.9440   12.6520   25.9560 C   0  0  0  0  0  0  0  0  0  0  0  0
    6.0640   11.7140   26.4650 C   0  0  0  0  0  0  0  0  0  0  0  0
    6.2020   10.3930   26.1280 C   0  0  0  0  0  0  0  0  0  0  0  0
    7.1740   10.0010   25.2190 C   0  0  0  0  0  0  0  0  0  0  0  0
 16 15  1  0
 15 14  1  0
 14 20  2  0
 20 19  1  0
 19 18  2  0
 18 17  1  0
 17 13  2  0
 14 13  1  0
 13 12  1  0
 12 10  1  0
 11 10  2  0
 10  9  1  0
  9  7  1  0
  7  6  1  0
  6  5  1  0
  5  4  1  0
  4  2  1  6
  3  2  1  0
  2  1  2  0
  8  4  1  0
  9  8  1  0
M  END
>  <id>  (202) 
202

>  <inchikey>  (202) 
KJLPLKHZEUNURY-GFCCVEGCSA-N

>  <alias>  (202) 
A3663a

>  <smiles>  (202) 
COc1ccccc1CC(=O)N1CCO[C@@H](C(N)=O)C1

>  <path>  (202) 
/opt/xchem-fragalysis-2/maxwin/BulkDock/TARGETS/A71EV2A/aligned_files/A3663a/A3663a.pdb

>  <distance_score>  (202) 
None

>  <energy_score>  (202) 
None

>  <compound>  (202) 
KJLPLKHZEUNURY-UHFFFAOYSA-N

>  <compound_id>  (202) 
167

>  <target>  (202) 
A71EV2A

>  <tags>  (202) 
['GOOD count', 'MEDIOCRE count', '[Other] S1 site', 'hits', '[Other] S2 site', '[Other] P3 compound design', 'Main status', '[Other] upload_061224', 'BAD count']

>  <inspirations>  (202) 
None

>  <subsites>  (202) 
None

>  <reference>  (202) 


>  <observation_longname>  (202) 
A71EV2A-x3663_A_201_v1

>  <ConformerSites alias>  (202) 
1b - A0911/A/147

>  <CanonSites alias>  (202) 
1 - Active Site

>  <CrystalformSites alias>  (202) 
F5i - A3175/A/201

>  <Quatassemblies alias>  (202) 
A1 - monomer

>  <Crystalforms alias>  (202) 
F5 - A71EV2A_x3178_new_long_dials_041024

>  <ConformerSites upload name>  (202) 
1b - A71EV2A-x0911/A/147

>  <CanonSites upload name>  (202) 
1 - A71EV2A-x0911/A/147/1

>  <CrystalformSites upload name>  (202) 
F5i - A71EV2A-x3175/A/201/1

>  <Quatassemblies upload name>  (202) 
A1 - monomer

>  <Crystalforms upload name>  (202) 
F5 - A71EV2A_x3178_new_long_dials_041024

>  <ConformerSites short tag>  (202) 
1b - A0911/A/147

>  <CanonSites short tag>  (202) 
1 - A0911/A/147/1

>  <CrystalformSites short tag>  (202) 
F5i - A3175/A/201

>  <Quatassemblies short tag>  (202) 
A1 - monomer

>  <Crystalforms short tag>  (202) 
F5 - A71EV2A_x3178_new_long_dials_041024

>  <Centroid res>  (202) 
A71EV2A-x0911/A/133/A_v1

>  <Experiment code>  (202) 
A71EV2A-x3663

>  <Pose>  (202) 
A3663a

$$$$
A3665a
     RDKit          3D

 22 23  0  0  0  0  0  0  0  0999 V2000
   12.1110   14.1720   23.4890 F   0  0  0  0  0  0  0  0  0  0  0  0
   11.6210   15.4470   23.3250 C   0  0  0  0  0  0  0  0  0  0  0  0
   12.4560   16.2290   24.0930 F   0  0  0  0  0  0  0  0  0  0  0  0
   11.7300   15.8550   21.8740 C   0  0  0  0  0  0  0  0  0  0  0  0
   10.7330   15.0900   20.9760 C   0  0  2  0  0  0  0  0  0  0  0  0
   10.7610   15.5830   19.5360 C   0  0  0  0  0  0  0  0  0  0  0  0
   10.4340   16.7410   19.2500 O   0  0  0  0  0  0  0  0  0  0  0  0
   11.1160   14.6930   18.6260 N   0  0  0  0  0  0  0  0  0  0  0  0
    9.3160   15.2100   21.5490 C   0  0  0  0  0  0  0  0  0  0  0  0
   10.1430   15.4990   23.8480 C   0  0  0  0  0  0  0  0  0  0  0  0
    9.2790   14.7400   22.9390 N   0  0  0  0  0  0  0  0  0  0  0  0
    8.4830   13.7100   23.3050 C   0  0  0  0  0  0  0  0  0  0  0  0
    7.6290   13.2550   22.5600 O   0  0  0  0  0  0  0  0  0  0  0  0
    8.7000   13.1770   24.7110 C   0  0  0  0  0  0  0  0  0  0  0  0
    7.7900   12.0280   25.0800 C   0  0  0  0  0  0  0  0  0  0  0  0
    8.0460   10.7390   24.6080 C   0  0  0  0  0  0  0  0  0  0  0  0
    9.1260   10.6360   23.7700 O   0  0  0  0  0  0  0  0  0  0  0  0
    9.5370    9.3350   23.3550 C   0  0  0  0  0  0  0  0  0  0  0  0
    6.7510   12.2030   25.9930 C   0  0  0  0  0  0  0  0  0  0  0  0
    5.9770   11.1340   26.4040 C   0  0  0  0  0  0  0  0  0  0  0  0
    6.2340    9.8770   25.9290 C   0  0  0  0  0  0  0  0  0  0  0  0
    7.2710    9.6650   25.0310 C   0  0  0  0  0  0  0  0  0  0  0  0
 18 17  1  0
 17 16  1  0
 16 22  2  0
 22 21  1  0
 21 20  2  0
 20 19  1  0
 19 15  2  0
 16 15  1  0
 15 14  1  0
 14 12  1  0
 13 12  2  0
 12 11  1  0
 11  9  1  0
  9  5  1  0
  5  6  1  6
  8  6  1  0
  7  6  2  0
  5  4  1  0
  4  2  1  0
  3  2  1  0
  2  1  1  0
 10  2  1  0
 11 10  1  0
M  END
>  <id>  (203) 
203

>  <inchikey>  (203) 
DUWCUXLXYUMFLN-NSHDSACASA-N

>  <alias>  (203) 
A3665a

>  <smiles>  (203) 
COc1ccccc1CC(=O)N1C[C@@H](C(N)=O)CC(F)(F)C1

>  <path>  (203) 
/opt/xchem-fragalysis-2/maxwin/BulkDock/TARGETS/A71EV2A/aligned_files/A3665a/A3665a.pdb

>  <distance_score>  (203) 
None

>  <energy_score>  (203) 
None

>  <compound>  (203) 
DUWCUXLXYUMFLN-UHFFFAOYSA-N

>  <compound_id>  (203) 
168

>  <target>  (203) 
A71EV2A

>  <tags>  (203) 
['GOOD count', 'MEDIOCRE count', 'hits', '[Other] S2 site', '[Other] P3 compound design', '[Other] upload_1 2024-12-06', 'Main status', '[Other] upload_061224', '[Other] upload_1 2025-02-12', 'BAD count', '[Series] Piperidine series']

>  <inspirations>  (203) 
None

>  <subsites>  (203) 
None

>  <reference>  (203) 


>  <observation_longname>  (203) 
A71EV2A-x3665_A_201_v1

>  <ConformerSites alias>  (203) 
1b - A0911/A/147

>  <CanonSites alias>  (203) 
1 - Active Site

>  <CrystalformSites alias>  (203) 
F8h - A0884/A/147

>  <Quatassemblies alias>  (203) 
A1 - monomer

>  <Crystalforms alias>  (203) 
F8 - A712A_x4271_2.1_refmac1_1st_ref

>  <ConformerSites upload name>  (203) 
1b - A71EV2A-x0911/A/147

>  <CanonSites upload name>  (203) 
1 - A71EV2A-x0911/A/147/1

>  <CrystalformSites upload name>  (203) 
F8h - A71EV2A-x0884/A/147/1

>  <Quatassemblies upload name>  (203) 
A1 - monomer

>  <Crystalforms upload name>  (203) 
F8 - A712A_x4271_2.1_refmac1_1st_ref

>  <ConformerSites short tag>  (203) 
1b - A0911/A/147

>  <CanonSites short tag>  (203) 
1 - A0911/A/147/1

>  <CrystalformSites short tag>  (203) 
F8h - A0884/A/147

>  <Quatassemblies short tag>  (203) 
A1 - monomer

>  <Crystalforms short tag>  (203) 
F8 - A712A_x4271_2.1_refmac1_1st_ref

>  <Centroid res>  (203) 
A71EV2A-x0911/A/133/A_v1

>  <Experiment code>  (203) 
A71EV2A-x3665

>  <Pose>  (203) 
A3665a

$$$$
A3685a
     RDKit          3D

 20 21  0  0  0  0  0  0  0  0999 V2000
   10.3190   16.2790   19.2040 O   0  0  0  0  0  0  0  0  0  0  0  0
   10.9790   15.2260   19.1990 C   0  0  0  0  0  0  0  0  0  0  0  0
   11.2940   14.5940   18.0630 N   0  0  0  0  0  0  0  0  0  0  0  0
   11.5060   14.6980   20.3400 N   0  0  0  0  0  0  0  0  0  0  0  0
   11.1460   15.1100   21.7060 C   0  0  2  0  0  0  0  0  0  0  0  0
   12.1470   14.6100   22.7250 C   0  0  0  0  0  0  0  0  0  0  0  0
   11.4170   14.7010   24.0550 C   0  0  0  0  0  0  0  0  0  0  0  0
    9.8500   14.4230   22.2270 C   0  0  0  0  0  0  0  0  0  0  0  0
   10.0350   14.3980   23.6830 N   0  0  0  0  0  0  0  0  0  0  0  0
    9.0990   14.1740   24.6310 C   0  0  0  0  0  0  0  0  0  0  0  0
    9.3450   14.2890   25.8280 O   0  0  0  0  0  0  0  0  0  0  0  0
    7.7380   13.7050   24.1480 C   0  0  0  0  0  0  0  0  0  0  0  0
    7.2090   12.5150   24.9280 C   0  0  0  0  0  0  0  0  0  0  0  0
    7.6370   11.2210   24.6280 C   0  0  0  0  0  0  0  0  0  0  0  0
    8.6150   11.1460   23.6820 O   0  0  0  0  0  0  0  0  0  0  0  0
    9.1450    9.8610   23.3710 C   0  0  0  0  0  0  0  0  0  0  0  0
    6.2250   12.6660   25.9020 C   0  0  0  0  0  0  0  0  0  0  0  0
    5.6680   11.5640   26.5330 C   0  0  0  0  0  0  0  0  0  0  0  0
    6.0750   10.2890   26.1960 C   0  0  0  0  0  0  0  0  0  0  0  0
    7.0550   10.1020   25.2280 C   0  0  0  0  0  0  0  0  0  0  0  0
 16 15  1  0
 15 14  1  0
 14 20  2  0
 20 19  1  0
 19 18  2  0
 18 17  1  0
 17 13  2  0
 14 13  1  0
 13 12  1  0
 12 10  1  0
 11 10  2  0
 10  9  1  0
  9  7  1  0
  7  6  1  0
  6  5  1  0
  5  4  1  6
  4  2  1  0
  3  2  1  0
  2  1  2  0
  8  5  1  0
  9  8  1  0
M  END
>  <id>  (204) 
204

>  <inchikey>  (204) 
GQYBHVCKCWFZQQ-LLVKDONJSA-N

>  <alias>  (204) 
A3685a

>  <smiles>  (204) 
COc1ccccc1CC(=O)N1CC[C@@H](NC(N)=O)C1

>  <path>  (204) 
/opt/xchem-fragalysis-2/maxwin/BulkDock/TARGETS/A71EV2A/aligned_files/A3685a/A3685a.pdb

>  <distance_score>  (204) 
None

>  <energy_score>  (204) 
None

>  <compound>  (204) 
GQYBHVCKCWFZQQ-UHFFFAOYSA-N

>  <compound_id>  (204) 
169

>  <target>  (204) 
A71EV2A

>  <tags>  (204) 
['GOOD count', 'MEDIOCRE count', '[Other] S1 site', 'hits', '[Other] S2 site', '[Other] P3 compound design', 'Main status', '[Other] upload_061224', 'BAD count']

>  <inspirations>  (204) 
None

>  <subsites>  (204) 
None

>  <reference>  (204) 


>  <observation_longname>  (204) 
A71EV2A-x3685_A_201_v1

>  <ConformerSites alias>  (204) 
1b - A0911/A/147

>  <CanonSites alias>  (204) 
1 - Active Site

>  <CrystalformSites alias>  (204) 
F5i - A3175/A/201

>  <Quatassemblies alias>  (204) 
A1 - monomer

>  <Crystalforms alias>  (204) 
F5 - A71EV2A_x3178_new_long_dials_041024

>  <ConformerSites upload name>  (204) 
1b - A71EV2A-x0911/A/147

>  <CanonSites upload name>  (204) 
1 - A71EV2A-x0911/A/147/1

>  <CrystalformSites upload name>  (204) 
F5i - A71EV2A-x3175/A/201/1

>  <Quatassemblies upload name>  (204) 
A1 - monomer

>  <Crystalforms upload name>  (204) 
F5 - A71EV2A_x3178_new_long_dials_041024

>  <ConformerSites short tag>  (204) 
1b - A0911/A/147

>  <CanonSites short tag>  (204) 
1 - A0911/A/147/1

>  <CrystalformSites short tag>  (204) 
F5i - A3175/A/201

>  <Quatassemblies short tag>  (204) 
A1 - monomer

>  <Crystalforms short tag>  (204) 
F5 - A71EV2A_x3178_new_long_dials_041024

>  <Centroid res>  (204) 
A71EV2A-x0911/A/133/A_v1

>  <Experiment code>  (204) 
A71EV2A-x3685

>  <Pose>  (204) 
A3685a

$$$$
A3694a
     RDKit          3D

 20 21  0  0  0  0  0  0  0  0999 V2000
   10.4860   16.6760   19.0220 O   0  0  0  0  0  0  0  0  0  0  0  0
   11.0440   15.5940   19.2180 C   0  0  0  0  0  0  0  0  0  0  0  0
   11.0440   14.6200   18.3240 N   0  0  0  0  0  0  0  0  0  0  0  0
   11.7990   15.3310   20.4990 C   0  0  0  0  0  0  0  0  0  0  0  0
   11.0050   15.6810   21.7170 C   0  0  2  0  0  0  0  0  0  0  0  0
   11.8080   15.3430   22.9900 C   0  0  0  0  0  0  0  0  0  0  0  0
   11.0870   14.2150   23.7010 C   0  0  0  0  0  0  0  0  0  0  0  0
    9.6870   14.9130   21.8150 C   0  0  0  0  0  0  0  0  0  0  0  0
    9.7440   14.2020   23.0930 N   0  0  0  0  0  0  0  0  0  0  0  0
    8.6800   13.5150   23.5390 C   0  0  0  0  0  0  0  0  0  0  0  0
    7.6470   13.4130   22.8880 O   0  0  0  0  0  0  0  0  0  0  0  0
    8.8360   12.9110   24.9220 C   0  0  0  0  0  0  0  0  0  0  0  0
    7.7630   11.8910   25.2260 C   0  0  0  0  0  0  0  0  0  0  0  0
    7.8570   10.6070   24.6940 C   0  0  0  0  0  0  0  0  0  0  0  0
    8.8800   10.4240   23.8020 O   0  0  0  0  0  0  0  0  0  0  0  0
    9.2290    9.1000   23.4300 C   0  0  0  0  0  0  0  0  0  0  0  0
    6.7300   12.1660   26.1150 C   0  0  0  0  0  0  0  0  0  0  0  0
    5.8260   11.1850   26.4780 C   0  0  0  0  0  0  0  0  0  0  0  0
    5.9420    9.9200   25.9600 C   0  0  0  0  0  0  0  0  0  0  0  0
    6.9570    9.6230   25.0620 C   0  0  0  0  0  0  0  0  0  0  0  0
 16 15  1  0
 15 14  1  0
 14 20  2  0
 20 19  1  0
 19 18  2  0
 18 17  1  0
 17 13  2  0
 14 13  1  0
 13 12  1  0
 12 10  1  0
 11 10  2  0
 10  9  1  0
  9  7  1  0
  7  6  1  0
  6  5  1  0
  5  4  1  6
  4  2  1  0
  3  2  1  0
  2  1  2  0
  8  5  1  0
  9  8  1  0
M  END
>  <id>  (205) 
205

>  <inchikey>  (205) 
MSPWRYALONZABD-NSHDSACASA-N

>  <alias>  (205) 
A3694a

>  <smiles>  (205) 
COc1ccccc1CC(=O)N1CC[C@@H](CC(N)=O)C1

>  <path>  (205) 
/opt/xchem-fragalysis-2/maxwin/BulkDock/TARGETS/A71EV2A/aligned_files/A3694a/A3694a_hippo.pdb

>  <distance_score>  (205) 
None

>  <energy_score>  (205) 
None

>  <compound>  (205) 
MSPWRYALONZABD-UHFFFAOYSA-N

>  <compound_id>  (205) 
170

>  <target>  (205) 
A71EV2A

>  <tags>  (205) 
['GOOD count', 'MEDIOCRE count', '[Other] S1 site', 'hits', '[Other] S2 site', '[Other] P3 compound design', 'Main status', '[Other] upload_061224', 'BAD count']

>  <inspirations>  (205) 
None

>  <subsites>  (205) 
None

>  <reference>  (205) 


>  <observation_longname>  (205) 
A71EV2A-x3694_A_201_v1

>  <ConformerSites alias>  (205) 
1b - A0911/A/147

>  <CanonSites alias>  (205) 
1 - Active Site

>  <CrystalformSites alias>  (205) 
F7j - A3509/A/201

>  <Quatassemblies alias>  (205) 
A1 - monomer

>  <Crystalforms alias>  (205) 
F7 - A712A_x4207_8.1_refmac1_1st_ref

>  <ConformerSites upload name>  (205) 
1b - A71EV2A-x0911/A/147

>  <CanonSites upload name>  (205) 
1 - A71EV2A-x0911/A/147/1

>  <CrystalformSites upload name>  (205) 
F7j - A71EV2A-x3509/A/201/1

>  <Quatassemblies upload name>  (205) 
A1 - monomer

>  <Crystalforms upload name>  (205) 
F7 - A712A_x4207_8.1_refmac1_1st_ref

>  <ConformerSites short tag>  (205) 
1b - A0911/A/147

>  <CanonSites short tag>  (205) 
1 - A0911/A/147/1

>  <CrystalformSites short tag>  (205) 
F7j - A3509/A/201

>  <Quatassemblies short tag>  (205) 
A1 - monomer

>  <Crystalforms short tag>  (205) 
F7 - A712A_x4207_8.1_refmac1_1st_ref

>  <Centroid res>  (205) 
A71EV2A-x0911/A/133/A_v1

>  <Experiment code>  (205) 
A71EV2A-x3694

>  <Pose>  (205) 
A3694a

$$$$
A3694b
     RDKit          3D

 20 21  0  0  0  0  0  0  0  0999 V2000
   10.6200   16.6980   19.0130 O   0  0  0  0  0  0  0  0  0  0  0  0
   11.1710   15.5980   19.2020 C   0  0  0  0  0  0  0  0  0  0  0  0
   11.0970   14.5940   18.3460 N   0  0  0  0  0  0  0  0  0  0  0  0
   11.9390   15.3240   20.4730 C   0  0  0  0  0  0  0  0  0  0  0  0
   11.2690   15.8530   21.6920 C   0  0  2  0  0  0  0  0  0  0  0  0
   12.0890   15.5920   22.9680 C   0  0  0  0  0  0  0  0  0  0  0  0
   11.5180   14.3220   23.5760 C   0  0  0  0  0  0  0  0  0  0  0  0
    9.9030   15.1870   21.9390 C   0  0  0  0  0  0  0  0  0  0  0  0
   10.1270   14.2850   23.0700 N   0  0  0  0  0  0  0  0  0  0  0  0
    9.1430   13.4860   23.5120 C   0  0  0  0  0  0  0  0  0  0  0  0
    8.0420   13.4320   22.9610 O   0  0  0  0  0  0  0  0  0  0  0  0
    9.4950   12.6680   24.7410 C   0  0  0  0  0  0  0  0  0  0  0  0
    8.3850   11.7180   25.1400 C   0  0  0  0  0  0  0  0  0  0  0  0
    8.3610   10.4190   24.6340 C   0  0  0  0  0  0  0  0  0  0  0  0
    9.3200   10.1520   23.6960 O   0  0  0  0  0  0  0  0  0  0  0  0
    9.4820    8.8050   23.2640 C   0  0  0  0  0  0  0  0  0  0  0  0
    7.4230   12.0790   26.0820 C   0  0  0  0  0  0  0  0  0  0  0  0
    6.4730   11.1690   26.5110 C   0  0  0  0  0  0  0  0  0  0  0  0
    6.4610    9.8890   26.0110 C   0  0  0  0  0  0  0  0  0  0  0  0
    7.4070    9.4980   25.0700 C   0  0  0  0  0  0  0  0  0  0  0  0
 16 15  1  0
 15 14  1  0
 14 20  2  0
 20 19  1  0
 19 18  2  0
 18 17  1  0
 17 13  2  0
 14 13  1  0
 13 12  1  0
 12 10  1  0
 11 10  2  0
 10  9  1  0
  9  7  1  0
  7  6  1  0
  6  5  1  0
  5  4  1  6
  4  2  1  0
  3  2  1  0
  2  1  2  0
  8  5  1  0
  9  8  1  0
M  END
>  <id>  (206) 
206

>  <inchikey>  (206) 
MSPWRYALONZABD-NSHDSACASA-N

>  <alias>  (206) 
A3694b

>  <smiles>  (206) 
COc1ccccc1CC(=O)N1CC[C@@H](CC(N)=O)C1

>  <path>  (206) 
/opt/xchem-fragalysis-2/maxwin/BulkDock/TARGETS/A71EV2A/aligned_files/A3694b/A3694b.pdb

>  <distance_score>  (206) 
None

>  <energy_score>  (206) 
None

>  <compound>  (206) 
MSPWRYALONZABD-UHFFFAOYSA-N

>  <compound_id>  (206) 
170

>  <target>  (206) 
A71EV2A

>  <tags>  (206) 
['GOOD count', 'MEDIOCRE count', '[Other] S1 site', 'hits', '[Other] S2 site', '[Other] P3 compound design', 'Main status', '[Other] upload_061224', 'BAD count']

>  <inspirations>  (206) 
None

>  <subsites>  (206) 
None

>  <reference>  (206) 


>  <observation_longname>  (206) 
A71EV2A-x3694_C_201_v1

>  <ConformerSites alias>  (206) 
1b - A0911/A/147

>  <CanonSites alias>  (206) 
1 - Active Site

>  <CrystalformSites alias>  (206) 
F7k - A3509/C/201

>  <Quatassemblies alias>  (206) 
A1 - monomer

>  <Crystalforms alias>  (206) 
F7 - A712A_x4207_8.1_refmac1_1st_ref

>  <ConformerSites upload name>  (206) 
1b - A71EV2A-x0911/A/147

>  <CanonSites upload name>  (206) 
1 - A71EV2A-x0911/A/147/1

>  <CrystalformSites upload name>  (206) 
F7k - A71EV2A-x3509/C/201/1

>  <Quatassemblies upload name>  (206) 
A1 - monomer

>  <Crystalforms upload name>  (206) 
F7 - A712A_x4207_8.1_refmac1_1st_ref

>  <ConformerSites short tag>  (206) 
1b - A0911/A/147

>  <CanonSites short tag>  (206) 
1 - A0911/A/147/1

>  <CrystalformSites short tag>  (206) 
F7k - A3509/C/201

>  <Quatassemblies short tag>  (206) 
A1 - monomer

>  <Crystalforms short tag>  (206) 
F7 - A712A_x4207_8.1_refmac1_1st_ref

>  <Centroid res>  (206) 
A71EV2A-x0911/A/133/A_v1

>  <Experiment code>  (206) 
A71EV2A-x3694

>  <Pose>  (206) 
A3694a

$$$$
A3706a
     RDKit          3D

 20 21  0  0  0  0  0  0  0  0999 V2000
   10.3140   16.7560   19.0990 O   0  0  0  0  0  0  0  0  0  0  0  0
   10.6230   15.5980   19.4080 C   0  0  0  0  0  0  0  0  0  0  0  0
   10.9240   14.6740   18.5050 N   0  0  0  0  0  0  0  0  0  0  0  0
   10.6440   15.1480   20.8610 C   0  0  1  0  0  0  0  0  0  0  0  0
   11.9820   15.4720   21.5510 C   0  0  0  0  0  0  0  0  0  0  0  0
   11.9810   14.9710   22.9950 C   0  0  0  0  0  0  0  0  0  0  0  0
   10.7770   15.5150   23.7800 C   0  0  0  0  0  0  0  0  0  0  0  0
    9.5560   15.8850   21.6390 C   0  0  0  0  0  0  0  0  0  0  0  0
    9.5140   15.3960   23.0240 N   0  0  0  0  0  0  0  0  0  0  0  0
    8.3440   14.8330   23.4590 C   0  0  0  0  0  0  0  0  0  0  0  0
    7.4080   14.6270   22.6920 O   0  0  0  0  0  0  0  0  0  0  0  0
    8.3100   14.5330   24.7760 N   0  0  0  0  0  0  0  0  0  0  0  0
    7.1340   13.8590   25.3100 C   0  0  0  0  0  0  0  0  0  0  0  0
    7.1570   12.3590   25.1460 C   0  0  0  0  0  0  0  0  0  0  0  0
    6.2780   11.5950   25.8990 C   0  0  0  0  0  0  0  0  0  0  0  0
    6.2830   10.2210   25.7970 C   0  0  0  0  0  0  0  0  0  0  0  0
    7.1900    9.5900   24.9540 C   0  0  0  0  0  0  0  0  0  0  0  0
    8.0600   11.7080   24.3050 C   0  0  0  0  0  0  0  0  0  0  0  0
    8.1190   10.3210   24.2280 C   0  0  0  0  0  0  0  0  0  0  0  0
    9.2240    9.6290   23.4590 C   0  0  0  0  0  0  0  0  0  0  0  0
 20 19  1  0
 19 17  2  0
 17 16  1  0
 16 15  2  0
 15 14  1  0
 14 13  1  0
 13 12  1  0
 12 10  1  0
 11 10  2  0
 10  9  1  0
  9  7  1  0
  7  6  1  0
  6  5  1  0
  5  4  1  0
  4  2  1  6
  3  2  1  0
  2  1  2  0
  8  4  1  0
  9  8  1  0
 18 14  2  0
 19 18  1  0
M  END
>  <id>  (207) 
207

>  <inchikey>  (207) 
DVNZCRUHPFYGIQ-ZDUSSCGKSA-N

>  <alias>  (207) 
A3706a

>  <smiles>  (207) 
Cc1cccc(CNC(=O)N2CCC[C@H](C(N)=O)C2)c1

>  <path>  (207) 
/opt/xchem-fragalysis-2/maxwin/BulkDock/TARGETS/A71EV2A/aligned_files/A3706a/A3706a_hippo.pdb

>  <distance_score>  (207) 
None

>  <energy_score>  (207) 
None

>  <compound>  (207) 
DVNZCRUHPFYGIQ-UHFFFAOYSA-N

>  <compound_id>  (207) 
171

>  <target>  (207) 
A71EV2A

>  <tags>  (207) 
['GOOD count', 'MEDIOCRE count', '[Other] S1 site', 'hits', '[Other] S2 site', '[Other] P3 compound design', '[Other] upload_1 2025-02-12', 'Main status', '[Series] Piperidine series', 'BAD count']

>  <inspirations>  (207) 
None

>  <subsites>  (207) 
None

>  <reference>  (207) 


>  <observation_longname>  (207) 
A71EV2A-x3706_A_201_v1

>  <ConformerSites alias>  (207) 
1b - A0911/A/147

>  <CanonSites alias>  (207) 
1 - Active Site

>  <CrystalformSites alias>  (207) 
F7j - A3509/A/201

>  <Quatassemblies alias>  (207) 
A1 - monomer

>  <Crystalforms alias>  (207) 
F7 - A712A_x4207_8.1_refmac1_1st_ref

>  <ConformerSites upload name>  (207) 
1b - A71EV2A-x0911/A/147

>  <CanonSites upload name>  (207) 
1 - A71EV2A-x0911/A/147/1

>  <CrystalformSites upload name>  (207) 
F7j - A71EV2A-x3509/A/201/1

>  <Quatassemblies upload name>  (207) 
A1 - monomer

>  <Crystalforms upload name>  (207) 
F7 - A712A_x4207_8.1_refmac1_1st_ref

>  <ConformerSites short tag>  (207) 
1b - A0911/A/147

>  <CanonSites short tag>  (207) 
1 - A0911/A/147/1

>  <CrystalformSites short tag>  (207) 
F7j - A3509/A/201

>  <Quatassemblies short tag>  (207) 
A1 - monomer

>  <Crystalforms short tag>  (207) 
F7 - A712A_x4207_8.1_refmac1_1st_ref

>  <Centroid res>  (207) 
A71EV2A-x0911/A/133/A_v1

>  <Experiment code>  (207) 
A71EV2A-x3706

>  <Pose>  (207) 
A3706a

$$$$
A3706b
     RDKit          3D

 20 21  0  0  0  0  0  0  0  0999 V2000
   10.4730   16.8120   19.0570 O   0  0  0  0  0  0  0  0  0  0  0  0
   10.8300   15.6550   19.3610 C   0  0  0  0  0  0  0  0  0  0  0  0
   11.0460   14.7030   18.4570 N   0  0  0  0  0  0  0  0  0  0  0  0
   10.9170   15.2150   20.8130 C   0  0  1  0  0  0  0  0  0  0  0  0
   12.2420   15.6270   21.4690 C   0  0  0  0  0  0  0  0  0  0  0  0
   12.3100   15.1750   22.9350 C   0  0  0  0  0  0  0  0  0  0  0  0
   11.1100   15.6550   23.7410 C   0  0  0  0  0  0  0  0  0  0  0  0
    9.8250   15.8830   21.6410 C   0  0  0  0  0  0  0  0  0  0  0  0
    9.8580   15.3930   23.0230 N   0  0  0  0  0  0  0  0  0  0  0  0
    8.7300   14.7860   23.5030 C   0  0  0  0  0  0  0  0  0  0  0  0
    7.7760   14.5140   22.7760 O   0  0  0  0  0  0  0  0  0  0  0  0
    8.7290   14.4680   24.8100 N   0  0  0  0  0  0  0  0  0  0  0  0
    7.5820   13.7930   25.4020 C   0  0  0  0  0  0  0  0  0  0  0  0
    7.5560   12.2990   25.1710 C   0  0  0  0  0  0  0  0  0  0  0  0
    6.6760   11.5310   25.9110 C   0  0  0  0  0  0  0  0  0  0  0  0
    6.6800   10.1610   25.8050 C   0  0  0  0  0  0  0  0  0  0  0  0
    7.5490    9.5340   24.9310 C   0  0  0  0  0  0  0  0  0  0  0  0
    8.4700   11.6480   24.3440 C   0  0  0  0  0  0  0  0  0  0  0  0
    8.4910   10.2610   24.2240 C   0  0  0  0  0  0  0  0  0  0  0  0
    9.5530    9.5630   23.4070 C   0  0  0  0  0  0  0  0  0  0  0  0
 20 19  1  0
 19 17  2  0
 17 16  1  0
 16 15  2  0
 15 14  1  0
 14 13  1  0
 13 12  1  0
 12 10  1  0
 11 10  2  0
 10  9  1  0
  9  7  1  0
  7  6  1  0
  6  5  1  0
  5  4  1  0
  4  2  1  6
  3  2  1  0
  2  1  2  0
  8  4  1  0
  9  8  1  0
 18 14  2  0
 19 18  1  0
M  END
>  <id>  (208) 
208

>  <inchikey>  (208) 
DVNZCRUHPFYGIQ-ZDUSSCGKSA-N

>  <alias>  (208) 
A3706b

>  <smiles>  (208) 
Cc1cccc(CNC(=O)N2CCC[C@H](C(N)=O)C2)c1

>  <path>  (208) 
/opt/xchem-fragalysis-2/maxwin/BulkDock/TARGETS/A71EV2A/aligned_files/A3706b/A3706b_hippo.pdb

>  <distance_score>  (208) 
None

>  <energy_score>  (208) 
None

>  <compound>  (208) 
DVNZCRUHPFYGIQ-UHFFFAOYSA-N

>  <compound_id>  (208) 
171

>  <target>  (208) 
A71EV2A

>  <tags>  (208) 
['GOOD count', 'MEDIOCRE count', '[Other] S1 site', 'hits', '[Other] S2 site', '[Other] P3 compound design', '[Other] upload_1 2025-02-12', 'Main status', '[Series] Piperidine series', 'BAD count']

>  <inspirations>  (208) 
None

>  <subsites>  (208) 
None

>  <reference>  (208) 


>  <observation_longname>  (208) 
A71EV2A-x3706_C_201_v1

>  <ConformerSites alias>  (208) 
1b - A0911/A/147

>  <CanonSites alias>  (208) 
1 - Active Site

>  <CrystalformSites alias>  (208) 
F7k - A3509/C/201

>  <Quatassemblies alias>  (208) 
A1 - monomer

>  <Crystalforms alias>  (208) 
F7 - A712A_x4207_8.1_refmac1_1st_ref

>  <ConformerSites upload name>  (208) 
1b - A71EV2A-x0911/A/147

>  <CanonSites upload name>  (208) 
1 - A71EV2A-x0911/A/147/1

>  <CrystalformSites upload name>  (208) 
F7k - A71EV2A-x3509/C/201/1

>  <Quatassemblies upload name>  (208) 
A1 - monomer

>  <Crystalforms upload name>  (208) 
F7 - A712A_x4207_8.1_refmac1_1st_ref

>  <ConformerSites short tag>  (208) 
1b - A0911/A/147

>  <CanonSites short tag>  (208) 
1 - A0911/A/147/1

>  <CrystalformSites short tag>  (208) 
F7k - A3509/C/201

>  <Quatassemblies short tag>  (208) 
A1 - monomer

>  <Crystalforms short tag>  (208) 
F7 - A712A_x4207_8.1_refmac1_1st_ref

>  <Centroid res>  (208) 
A71EV2A-x0911/A/133/A_v1

>  <Experiment code>  (208) 
A71EV2A-x3706

>  <Pose>  (208) 
A3706a

$$$$
A3521a
     RDKit          3D

 23 25  0  0  0  0  0  0  0  0999 V2000
    9.3450   13.8760   25.1640 Cl  0  0  0  0  0  0  0  0  0  0  0  0
    8.7760   12.2380   25.1680 C   0  0  0  0  0  0  0  0  0  0  0  0
    9.4770   11.3350   24.3890 C   0  0  0  0  0  0  0  0  0  0  0  0
    9.0540   10.0220   24.3540 C   0  0  0  0  0  0  0  0  0  0  0  0
    9.8910    8.8940   23.3320 Cl  0  0  0  0  0  0  0  0  0  0  0  0
    7.9690    9.6010   25.0820 C   0  0  0  0  0  0  0  0  0  0  0  0
    7.2920   10.5190   25.8640 C   0  0  0  0  0  0  0  0  0  0  0  0
    7.6720   11.8530   25.9350 C   0  0  0  0  0  0  0  0  0  0  0  0
    6.9490   12.8250   26.8870 C   0  0  0  0  0  0  0  0  0  0  0  0
    5.5970   12.2400   27.3730 C   0  0  0  0  0  0  0  0  0  0  0  0
    4.9710   13.0810   28.4720 C   0  0  0  0  0  0  0  0  0  0  0  0
    5.8440   13.2130   29.5990 O   0  0  0  0  0  0  0  0  0  0  0  0
    7.0900   13.8420   29.2250 C   0  0  0  0  0  0  0  0  0  0  0  0
    7.8300   13.0690   28.1420 C   0  0  0  0  0  0  0  0  0  0  0  0
    6.5090   14.0840   26.0990 C   0  0  0  0  0  0  0  0  0  0  0  0
    5.9130   13.9740   25.0310 O   0  0  0  0  0  0  0  0  0  0  0  0
    6.7770   15.2780   26.6380 N   0  0  0  0  0  0  0  0  0  0  0  0
    5.7750   16.0250   27.4060 C   0  0  1  0  0  0  0  0  0  0  0  0
    5.7320   17.5480   27.2340 C   0  0  0  0  0  0  0  0  0  0  0  0
    4.3050   15.9810   26.9510 C   0  0  0  0  0  0  0  0  0  0  0  0
    4.2300   17.5220   26.8630 C   0  0  2  0  0  0  0  0  0  0  0  0
    3.8960   18.0800   25.5420 C   0  0  0  0  0  0  0  0  0  0  0  0
    3.6730   18.4980   24.5090 N   0  0  0  0  0  0  0  0  0  0  0  0
 23 22  3  0
 21 22  1  6
 21 19  1  0
 19 18  1  0
 18 17  1  6
 17 15  1  0
 16 15  2  0
 15  9  1  0
  9  8  1  0
  8  7  2  0
  7  6  1  0
  6  4  2  0
  5  4  1  0
  4  3  1  0
  3  2  2  0
  8  2  1  0
  2  1  1  0
  9 14  1  0
 14 13  1  0
 13 12  1  0
 12 11  1  0
 11 10  1  0
 10  9  1  0
 20 18  1  0
 21 20  1  0
M  END
>  <id>  (209) 
209

>  <inchikey>  (209) 
NHIMIHAWLVCISG-BJHJDKERSA-N

>  <alias>  (209) 
A3521a

>  <smiles>  (209) 
N#C[C@H]1C[C@@H](NC(=O)C2(c3ccc(Cl)cc3Cl)CCOCC2)C1

>  <path>  (209) 
/opt/xchem-fragalysis-2/maxwin/BulkDock/TARGETS/A71EV2A/aligned_files/A3521a/A3521a.pdb

>  <distance_score>  (209) 
None

>  <energy_score>  (209) 
None

>  <compound>  (209) 
NHIMIHAWLVCISG-UHFFFAOYSA-N

>  <compound_id>  (209) 
172

>  <target>  (209) 
A71EV2A

>  <tags>  (209) 
['GOOD count', 'MEDIOCRE count', '[Other] S1 site', 'hits', '[Other] upload_6_2025-02-13', '[Other] P3 compound design', 'Main status', 'BAD count']

>  <inspirations>  (209) 
None

>  <subsites>  (209) 
None

>  <reference>  (209) 


>  <observation_longname>  (209) 
A71EV2A-x3521_A_201_v1

>  <ConformerSites alias>  (209) 
1b - A0911/A/147

>  <CanonSites alias>  (209) 
1 - Active Site

>  <CrystalformSites alias>  (209) 
F1a - A0375/A/201

>  <Quatassemblies alias>  (209) 
A1 - monomer

>  <Crystalforms alias>  (209) 
F1 - A71_2A_open

>  <ConformerSites upload name>  (209) 
1b - A71EV2A-x0911/A/147

>  <CanonSites upload name>  (209) 
1 - A71EV2A-x0911/A/147/1

>  <CrystalformSites upload name>  (209) 
F1a - A71EV2A-x0375/A/201/1

>  <Quatassemblies upload name>  (209) 
A1 - monomer

>  <Crystalforms upload name>  (209) 
F1 - A71_2A_open

>  <ConformerSites short tag>  (209) 
1b - A0911/A/147

>  <CanonSites short tag>  (209) 
1 - A0911/A/147/1

>  <CrystalformSites short tag>  (209) 
F1a - A0375/A/201

>  <Quatassemblies short tag>  (209) 
A1 - monomer

>  <Crystalforms short tag>  (209) 
F1 - A71_2A_open

>  <Centroid res>  (209) 
A71EV2A-x0911/A/133/A_v1

>  <Experiment code>  (209) 
A71EV2A-x3521

>  <Pose>  (209) 
A3521a

$$$$
A3521b
     RDKit          3D

 23 25  0  0  0  0  0  0  0  0999 V2000
   -1.2410   12.0930   20.7070 Cl  0  0  0  0  0  0  0  0  0  0  0  0
    0.1620   12.3510   19.7220 C   0  0  0  0  0  0  0  0  0  0  0  0
    1.3050   11.6460   20.0670 C   0  0  0  0  0  0  0  0  0  0  0  0
    2.4660   11.8780   19.3580 C   0  0  0  0  0  0  0  0  0  0  0  0
    3.9070   10.9950   19.7820 Cl  0  0  0  0  0  0  0  0  0  0  0  0
    2.5080   12.7770   18.3270 C   0  0  0  0  0  0  0  0  0  0  0  0
    1.3530   13.4500   17.9840 C   0  0  0  0  0  0  0  0  0  0  0  0
    0.1530   13.2680   18.6640 C   0  0  0  0  0  0  0  0  0  0  0  0
   -1.1250   14.0190   18.2490 C   0  0  0  0  0  0  0  0  0  0  0  0
   -0.8960   15.0250   17.0920 C   0  0  0  0  0  0  0  0  0  0  0  0
   -0.6730   14.3110   15.7760 C   0  0  0  0  0  0  0  0  0  0  0  0
   -1.7640   13.4460   15.4530 O   0  0  0  0  0  0  0  0  0  0  0  0
   -1.9280   12.4380   16.4500 C   0  0  0  0  0  0  0  0  0  0  0  0
   -2.2360   13.0390   17.8020 C   0  0  0  0  0  0  0  0  0  0  0  0
   -1.6130   14.8940   19.4000 C   0  0  0  0  0  0  0  0  0  0  0  0
   -2.8070   15.0960   19.5820 O   0  0  0  0  0  0  0  0  0  0  0  0
   -0.6490   15.3730   20.1870 N   0  0  0  0  0  0  0  0  0  0  0  0
   -0.8690   16.3590   21.2320 C   0  0  1  0  0  0  0  0  0  0  0  0
   -1.3940   17.7290   20.7850 C   0  0  0  0  0  0  0  0  0  0  0  0
   -2.1110   16.2350   22.1270 C   0  0  0  0  0  0  0  0  0  0  0  0
   -1.8320   17.7550   22.2640 C   0  0  1  0  0  0  0  0  0  0  0  0
   -0.7680   18.1890   23.1840 C   0  0  0  0  0  0  0  0  0  0  0  0
    0.0800   18.5310   23.8660 N   0  0  0  0  0  0  0  0  0  0  0  0
 23 22  3  0
 21 22  1  1
 21 19  1  0
 19 18  1  0
 18 17  1  6
 17 15  1  0
 16 15  2  0
 15  9  1  0
  9  8  1  0
  8  7  2  0
  7  6  1  0
  6  4  2  0
  5  4  1  0
  4  3  1  0
  3  2  2  0
  8  2  1  0
  2  1  1  0
  9 14  1  0
 14 13  1  0
 13 12  1  0
 12 11  1  0
 11 10  1  0
 10  9  1  0
 20 18  1  0
 21 20  1  0
M  END
>  <id>  (210) 
210

>  <inchikey>  (210) 
NHIMIHAWLVCISG-AULYBMBSSA-N

>  <alias>  (210) 
A3521b

>  <smiles>  (210) 
N#C[C@H]1C[C@H](NC(=O)C2(c3ccc(Cl)cc3Cl)CCOCC2)C1

>  <path>  (210) 
/opt/xchem-fragalysis-2/maxwin/BulkDock/TARGETS/A71EV2A/aligned_files/A3521b/A3521b.pdb

>  <distance_score>  (210) 
None

>  <energy_score>  (210) 
None

>  <compound>  (210) 
NHIMIHAWLVCISG-UHFFFAOYSA-N

>  <compound_id>  (210) 
172

>  <target>  (210) 
A71EV2A

>  <tags>  (210) 
['GOOD count', 'MEDIOCRE count', '[Other] S1 site', 'hits', '[Other] upload_6_2025-02-13', '[Other] P3 compound design', 'Main status', 'BAD count']

>  <inspirations>  (210) 
None

>  <subsites>  (210) 
None

>  <reference>  (210) 


>  <observation_longname>  (210) 
A71EV2A-x3521_A_202_v1

>  <ConformerSites alias>  (210) 
1b - A0911/A/147

>  <CanonSites alias>  (210) 
1 - Active Site

>  <CrystalformSites alias>  (210) 
F1a - A0375/A/201

>  <Quatassemblies alias>  (210) 
A1 - monomer

>  <Crystalforms alias>  (210) 
F1 - A71_2A_open

>  <ConformerSites upload name>  (210) 
1b - A71EV2A-x0911/A/147

>  <CanonSites upload name>  (210) 
1 - A71EV2A-x0911/A/147/1

>  <CrystalformSites upload name>  (210) 
F1a - A71EV2A-x0375/A/201/1

>  <Quatassemblies upload name>  (210) 
A1 - monomer

>  <Crystalforms upload name>  (210) 
F1 - A71_2A_open

>  <ConformerSites short tag>  (210) 
1b - A0911/A/147

>  <CanonSites short tag>  (210) 
1 - A0911/A/147/1

>  <CrystalformSites short tag>  (210) 
F1a - A0375/A/201

>  <Quatassemblies short tag>  (210) 
A1 - monomer

>  <Crystalforms short tag>  (210) 
F1 - A71_2A_open

>  <Centroid res>  (210) 
A71EV2A-x0911/A/133/A_v1

>  <Experiment code>  (210) 
A71EV2A-x3521

>  <Pose>  (210) 
A3521a

$$$$
A3522a
     RDKit          3D

 22 23  0  0  0  0  0  0  0  0999 V2000
    6.1360   10.9690   26.5560 Cl  0  0  0  0  0  0  0  0  0  0  0  0
    7.4510   11.2350   25.4300 C   0  0  0  0  0  0  0  0  0  0  0  0
    8.1400   10.1340   24.9550 C   0  0  0  0  0  0  0  0  0  0  0  0
    9.1700   10.2810   24.0310 C   0  0  0  0  0  0  0  0  0  0  0  0
   10.1040    9.1380   23.7190 C   0  0  0  0  0  0  0  0  0  0  0  0
    9.4350   11.5450   23.5380 C   0  0  0  0  0  0  0  0  0  0  0  0
    8.7770   12.6460   24.0280 C   0  0  0  0  0  0  0  0  0  0  0  0
    7.7750   12.5320   25.0080 C   0  0  0  0  0  0  0  0  0  0  0  0
    7.1920   13.6940   25.6070 N   0  0  0  0  0  0  0  0  0  0  0  0
    7.8830   14.6840   26.1760 C   0  0  0  0  0  0  0  0  0  0  0  0
    9.0500   14.5990   26.5330 O   0  0  0  0  0  0  0  0  0  0  0  0
    7.1020   15.9630   26.3640 C   0  0  0  0  0  0  0  0  0  0  0  0
    6.9270   16.3040   27.7170 O   0  0  0  0  0  0  0  0  0  0  0  0
    5.6930   15.8400   28.2760 C   0  0  0  0  0  0  0  0  0  0  0  0
    9.0830   13.9220   23.6430 O   0  0  0  0  0  0  0  0  0  0  0  0
    8.9280   14.2480   22.2480 C   0  0  0  0  0  0  0  0  0  0  0  0
    7.4630   14.6360   22.1880 C   0  0  0  0  0  0  0  0  0  0  0  0
    6.5960   13.7590   21.6060 N   0  0  0  0  0  0  0  0  0  0  0  0
    5.2980   14.0550   21.7190 C   0  0  0  0  0  0  0  0  0  0  0  0
    4.8260   15.1620   22.3840 C   0  0  0  0  0  0  0  0  0  0  0  0
    5.7750   15.9950   22.9210 C   0  0  0  0  0  0  0  0  0  0  0  0
    7.0900   15.7800   22.8230 N   0  0  0  0  0  0  0  0  0  0  0  0
 14 13  1  0
 13 12  1  0
 12 10  1  0
 11 10  2  0
 10  9  1  0
  9  8  1  0
  8  2  2  0
  2  1  1  0
  3  2  1  0
  4  3  2  0
  5  4  1  0
  6  4  1  0
  7  6  2  0
  8  7  1  0
 15  7  1  0
 16 15  1  0
 17 16  1  0
 17 22  2  0
 22 21  1  0
 21 20  2  0
 20 19  1  0
 19 18  2  0
 18 17  1  0
M  END
>  <id>  (211) 
211

>  <inchikey>  (211) 
ATXBWRYERKVHTO-UHFFFAOYSA-N

>  <alias>  (211) 
A3522a

>  <smiles>  (211) 
COCC(=O)Nc1c(Cl)cc(C)cc1OCc1ncccn1

>  <path>  (211) 
/opt/xchem-fragalysis-2/maxwin/BulkDock/TARGETS/A71EV2A/aligned_files/A3522a/A3522a_hippo.pdb

>  <distance_score>  (211) 
None

>  <energy_score>  (211) 
None

>  <compound>  (211) 
ATXBWRYERKVHTO-UHFFFAOYSA-N

>  <compound_id>  (211) 
173

>  <target>  (211) 
A71EV2A

>  <tags>  (211) 
['GOOD count', 'MEDIOCRE count', '[Other] S1 site', 'hits', '[Other] P3 compound design', 'Main status', '[Other] upload_061224', 'BAD count', '[Other] S3 site']

>  <inspirations>  (211) 
None

>  <subsites>  (211) 
None

>  <reference>  (211) 


>  <observation_longname>  (211) 
A71EV2A-x3522_A_201_v1

>  <ConformerSites alias>  (211) 
1b - A0911/A/147

>  <CanonSites alias>  (211) 
1 - Active Site

>  <CrystalformSites alias>  (211) 
F5i - A3175/A/201

>  <Quatassemblies alias>  (211) 
A1 - monomer

>  <Crystalforms alias>  (211) 
F5 - A71EV2A_x3178_new_long_dials_041024

>  <ConformerSites upload name>  (211) 
1b - A71EV2A-x0911/A/147

>  <CanonSites upload name>  (211) 
1 - A71EV2A-x0911/A/147/1

>  <CrystalformSites upload name>  (211) 
F5i - A71EV2A-x3175/A/201/1

>  <Quatassemblies upload name>  (211) 
A1 - monomer

>  <Crystalforms upload name>  (211) 
F5 - A71EV2A_x3178_new_long_dials_041024

>  <ConformerSites short tag>  (211) 
1b - A0911/A/147

>  <CanonSites short tag>  (211) 
1 - A0911/A/147/1

>  <CrystalformSites short tag>  (211) 
F5i - A3175/A/201

>  <Quatassemblies short tag>  (211) 
A1 - monomer

>  <Crystalforms short tag>  (211) 
F5 - A71EV2A_x3178_new_long_dials_041024

>  <Centroid res>  (211) 
A71EV2A-x0911/A/133/A_v1

>  <Experiment code>  (211) 
A71EV2A-x3522

>  <Pose>  (211) 
A3522a

$$$$
A3546a
     RDKit          3D

 21 22  0  0  0  0  0  0  0  0999 V2000
   10.4140   16.7530   19.2190 O   0  0  0  0  0  0  0  0  0  0  0  0
   10.7250   15.5760   19.4580 C   0  0  0  0  0  0  0  0  0  0  0  0
   11.0870   14.7240   18.5210 N   0  0  0  0  0  0  0  0  0  0  0  0
   10.7600   15.0430   20.8810 C   0  0  1  0  0  0  0  0  0  0  0  0
   11.9090   15.6740   21.6870 C   0  0  0  0  0  0  0  0  0  0  0  0
   11.9380   15.1890   23.1440 C   0  0  0  0  0  0  0  0  0  0  0  0
   10.5680   15.3020   23.8010 C   0  0  0  0  0  0  0  0  0  0  0  0
    9.4330   15.2410   21.6180 C   0  0  0  0  0  0  0  0  0  0  0  0
    9.5330   14.6700   22.9660 N   0  0  0  0  0  0  0  0  0  0  0  0
    8.7640   13.6240   23.3400 C   0  0  0  0  0  0  0  0  0  0  0  0
    7.8820   13.1790   22.6210 O   0  0  0  0  0  0  0  0  0  0  0  0
    9.0590   13.0370   24.7110 C   0  0  0  0  0  0  0  0  0  0  0  0
    8.0600   11.9880   25.1390 C   0  0  0  0  0  0  0  0  0  0  0  0
    8.1620   10.6770   24.6720 C   0  0  0  0  0  0  0  0  0  0  0  0
    9.1950   10.4620   23.7940 O   0  0  0  0  0  0  0  0  0  0  0  0
    9.4500    9.1220   23.3610 C   0  0  0  0  0  0  0  0  0  0  0  0
    7.0700   12.2940   26.0710 C   0  0  0  0  0  0  0  0  0  0  0  0
    6.2120   11.3070   26.4820 C   0  0  0  0  0  0  0  0  0  0  0  0
    5.1760   11.6610   27.2880 F   0  0  0  0  0  0  0  0  0  0  0  0
    6.2970   10.0130   26.0460 C   0  0  0  0  0  0  0  0  0  0  0  0
    7.2860    9.6950   25.1270 C   0  0  0  0  0  0  0  0  0  0  0  0
 16 15  1  0
 15 14  1  0
 14 21  2  0
 21 20  1  0
 20 18  2  0
 19 18  1  0
 18 17  1  0
 17 13  2  0
 14 13  1  0
 13 12  1  0
 12 10  1  0
 11 10  2  0
 10  9  1  0
  9  7  1  0
  7  6  1  0
  6  5  1  0
  5  4  1  0
  4  2  1  6
  3  2  1  0
  2  1  2  0
  8  4  1  0
  9  8  1  0
M  END
>  <id>  (212) 
212

>  <inchikey>  (212) 
OAXWWUQUJMBBQP-JTQLQIEISA-N

>  <alias>  (212) 
A3546a

>  <smiles>  (212) 
COc1ccc(F)cc1CC(=O)N1CCC[C@H](C(N)=O)C1

>  <path>  (212) 
/opt/xchem-fragalysis-2/maxwin/BulkDock/TARGETS/A71EV2A/aligned_files/A3546a/A3546a.pdb

>  <distance_score>  (212) 
None

>  <energy_score>  (212) 
None

>  <compound>  (212) 
OAXWWUQUJMBBQP-UHFFFAOYSA-N

>  <compound_id>  (212) 
174

>  <target>  (212) 
A71EV2A

>  <tags>  (212) 
['GOOD count', 'MEDIOCRE count', '[Other] S1 site', 'hits', '[Other] S2 site', '[Other] P3 compound design', '[Series] Piperidine series', 'Main status', '[Other] upload_061224', 'BAD count']

>  <inspirations>  (212) 
None

>  <subsites>  (212) 
None

>  <reference>  (212) 


>  <observation_longname>  (212) 
A71EV2A-x3546_A_201_v1

>  <ConformerSites alias>  (212) 
1b - A0911/A/147

>  <CanonSites alias>  (212) 
1 - Active Site

>  <CrystalformSites alias>  (212) 
F8h - A0884/A/147

>  <Quatassemblies alias>  (212) 
A1 - monomer

>  <Crystalforms alias>  (212) 
F8 - A712A_x4271_2.1_refmac1_1st_ref

>  <ConformerSites upload name>  (212) 
1b - A71EV2A-x0911/A/147

>  <CanonSites upload name>  (212) 
1 - A71EV2A-x0911/A/147/1

>  <CrystalformSites upload name>  (212) 
F8h - A71EV2A-x0884/A/147/1

>  <Quatassemblies upload name>  (212) 
A1 - monomer

>  <Crystalforms upload name>  (212) 
F8 - A712A_x4271_2.1_refmac1_1st_ref

>  <ConformerSites short tag>  (212) 
1b - A0911/A/147

>  <CanonSites short tag>  (212) 
1 - A0911/A/147/1

>  <CrystalformSites short tag>  (212) 
F8h - A0884/A/147

>  <Quatassemblies short tag>  (212) 
A1 - monomer

>  <Crystalforms short tag>  (212) 
F8 - A712A_x4271_2.1_refmac1_1st_ref

>  <Centroid res>  (212) 
A71EV2A-x0911/A/133/A_v1

>  <Experiment code>  (212) 
A71EV2A-x3546

>  <Pose>  (212) 
A3546a

$$$$
A3548a
     RDKit          3D

 20 21  0  0  0  0  0  0  0  0999 V2000
   10.6250   16.7900   19.1500 O   0  0  0  0  0  0  0  0  0  0  0  0
   10.9080   15.6070   19.3450 C   0  0  0  0  0  0  0  0  0  0  0  0
   11.1410   14.7590   18.3620 N   0  0  0  0  0  0  0  0  0  0  0  0
   11.0090   15.0470   20.7540 C   0  0  1  0  0  0  0  0  0  0  0  0
   11.9860   15.8750   21.6020 C   0  0  0  0  0  0  0  0  0  0  0  0
   12.0270   15.3900   23.0520 C   0  0  0  0  0  0  0  0  0  0  0  0
   10.6320   15.3810   23.6560 C   0  0  0  0  0  0  0  0  0  0  0  0
    9.6320   15.1150   21.4260 C   0  0  0  0  0  0  0  0  0  0  0  0
    9.6910   14.6290   22.8090 N   0  0  0  0  0  0  0  0  0  0  0  0
    8.8890   13.6320   23.2580 C   0  0  0  0  0  0  0  0  0  0  0  0
    8.0090   13.1370   22.5640 O   0  0  0  0  0  0  0  0  0  0  0  0
    9.1110   13.1690   24.6860 C   0  0  0  0  0  0  0  0  0  0  0  0
    8.1930   12.0320   25.0840 C   0  0  0  0  0  0  0  0  0  0  0  0
    8.3730   10.7370   24.5800 C   0  0  0  0  0  0  0  0  0  0  0  0
    9.4480   10.5730   23.7470 O   0  0  0  0  0  0  0  0  0  0  0  0
    9.7000    9.2710   23.2290 C   0  0  0  0  0  0  0  0  0  0  0  0
    7.1870   12.1900   26.0200 C   0  0  0  0  0  0  0  0  0  0  0  0
    6.3930   11.2110   26.4620 N   0  0  0  0  0  0  0  0  0  0  0  0
    6.5790    9.9970   25.9420 C   0  0  0  0  0  0  0  0  0  0  0  0
    7.5460    9.7080   24.9960 C   0  0  0  0  0  0  0  0  0  0  0  0
 16 15  1  0
 15 14  1  0
 14 20  2  0
 20 19  1  0
 19 18  2  0
 18 17  1  0
 17 13  2  0
 14 13  1  0
 13 12  1  0
 12 10  1  0
 11 10  2  0
 10  9  1  0
  9  7  1  0
  7  6  1  0
  6  5  1  0
  5  4  1  0
  4  2  1  6
  3  2  1  0
  2  1  2  0
  8  4  1  0
  9  8  1  0
M  END
>  <id>  (213) 
213

>  <inchikey>  (213) 
ZKUXUDCBALXGFV-JTQLQIEISA-N

>  <alias>  (213) 
A3548a

>  <smiles>  (213) 
COc1ccncc1CC(=O)N1CCC[C@H](C(N)=O)C1

>  <path>  (213) 
/opt/xchem-fragalysis-2/maxwin/BulkDock/TARGETS/A71EV2A/aligned_files/A3548a/A3548a.pdb

>  <distance_score>  (213) 
None

>  <energy_score>  (213) 
None

>  <compound>  (213) 
ZKUXUDCBALXGFV-UHFFFAOYSA-N

>  <compound_id>  (213) 
129

>  <target>  (213) 
A71EV2A

>  <tags>  (213) 
['GOOD count', 'MEDIOCRE count', '[Other] S1 site', 'hits', '[Other] S2 site', '[Other] P3 compound design', '[Series] Piperidine series', 'Main status', '[Other] upload_061224', 'BAD count']

>  <inspirations>  (213) 
None

>  <subsites>  (213) 
None

>  <reference>  (213) 


>  <observation_longname>  (213) 
A71EV2A-x3548_A_201_v1

>  <ConformerSites alias>  (213) 
1b - A0911/A/147

>  <CanonSites alias>  (213) 
1 - Active Site

>  <CrystalformSites alias>  (213) 
F8h - A0884/A/147

>  <Quatassemblies alias>  (213) 
A1 - monomer

>  <Crystalforms alias>  (213) 
F8 - A712A_x4271_2.1_refmac1_1st_ref

>  <ConformerSites upload name>  (213) 
1b - A71EV2A-x0911/A/147

>  <CanonSites upload name>  (213) 
1 - A71EV2A-x0911/A/147/1

>  <CrystalformSites upload name>  (213) 
F8h - A71EV2A-x0884/A/147/1

>  <Quatassemblies upload name>  (213) 
A1 - monomer

>  <Crystalforms upload name>  (213) 
F8 - A712A_x4271_2.1_refmac1_1st_ref

>  <ConformerSites short tag>  (213) 
1b - A0911/A/147

>  <CanonSites short tag>  (213) 
1 - A0911/A/147/1

>  <CrystalformSites short tag>  (213) 
F8h - A0884/A/147

>  <Quatassemblies short tag>  (213) 
A1 - monomer

>  <Crystalforms short tag>  (213) 
F8 - A712A_x4271_2.1_refmac1_1st_ref

>  <Centroid res>  (213) 
A71EV2A-x0911/A/133/A_v1

>  <Experiment code>  (213) 
A71EV2A-x3548

>  <Pose>  (213) 
A3548a

$$$$
A3550a
     RDKit          3D

 21 22  0  0  0  0  0  0  0  0999 V2000
   10.6010   16.8050   19.1080 O   0  0  0  0  0  0  0  0  0  0  0  0
   10.9310   15.6420   19.3780 C   0  0  0  0  0  0  0  0  0  0  0  0
   11.1170   14.7180   18.4520 N   0  0  0  0  0  0  0  0  0  0  0  0
   11.0390   15.1730   20.8180 C   0  0  2  0  0  0  0  0  0  0  0  0
    9.6100   14.9960   21.3560 C   0  0  0  0  0  0  0  0  0  0  0  0
   11.8160   16.1940   21.6860 C   0  0  0  0  0  0  0  0  0  0  0  0
   11.2190   16.3410   23.0950 C   0  0  0  0  0  0  0  0  0  0  0  0
   10.6630   15.0230   23.6330 C   0  0  2  0  0  0  0  0  0  0  0  0
   11.7630   13.9790   23.8280 C   0  0  0  0  0  0  0  0  0  0  0  0
    9.5840   14.5240   22.7500 N   0  0  0  0  0  0  0  0  0  0  0  0
    8.5350   13.7560   23.1690 C   0  0  0  0  0  0  0  0  0  0  0  0
    7.6510   13.4090   22.3890 O   0  0  0  0  0  0  0  0  0  0  0  0
    8.4870   13.3690   24.6360 C   0  0  0  0  0  0  0  0  0  0  0  0
    7.5090   12.2540   24.9170 C   0  0  0  0  0  0  0  0  0  0  0  0
    7.7770   10.9380   24.5200 C   0  0  0  0  0  0  0  0  0  0  0  0
    8.8760   10.7620   23.7090 O   0  0  0  0  0  0  0  0  0  0  0  0
    9.2310    9.4180   23.3570 C   0  0  0  0  0  0  0  0  0  0  0  0
    6.3690   12.4920   25.6900 C   0  0  0  0  0  0  0  0  0  0  0  0
    5.5410   11.4490   26.0840 C   0  0  0  0  0  0  0  0  0  0  0  0
    5.8340   10.1680   25.7170 C   0  0  0  0  0  0  0  0  0  0  0  0
    6.9470    9.9020   24.9260 C   0  0  0  0  0  0  0  0  0  0  0  0
 17 16  1  0
 16 15  1  0
 15 21  2  0
 21 20  1  0
 20 19  2  0
 19 18  1  0
 18 14  2  0
 15 14  1  0
 14 13  1  0
 13 11  1  0
 12 11  2  0
 11 10  1  0
 10  5  1  0
  5  4  1  0
  4  2  1  6
  3  2  1  0
  2  1  2  0
  6  4  1  0
  7  6  1  0
  8  7  1  0
 10  8  1  0
  8  9  1  6
M  END
>  <id>  (214) 
214

>  <inchikey>  (214) 
XJRJYHVAUXLXKS-AAEUAGOBSA-N

>  <alias>  (214) 
A3550a

>  <smiles>  (214) 
COc1ccccc1CC(=O)N1C[C@@H](C(N)=O)CC[C@@H]1C

>  <path>  (214) 
/opt/xchem-fragalysis-2/maxwin/BulkDock/TARGETS/A71EV2A/aligned_files/A3550a/A3550a.pdb

>  <distance_score>  (214) 
None

>  <energy_score>  (214) 
None

>  <compound>  (214) 
XJRJYHVAUXLXKS-UHFFFAOYSA-N

>  <compound_id>  (214) 
175

>  <target>  (214) 
A71EV2A

>  <tags>  (214) 
['GOOD count', "[Other] S1' site", 'MEDIOCRE count', '[Other] S1 site', 'hits', '[Other] S2 site', '[Other] P3 compound design', '[Series] Piperidine series', 'Main status', '[Other] upload_061224', 'BAD count']

>  <inspirations>  (214) 
None

>  <subsites>  (214) 
None

>  <reference>  (214) 


>  <observation_longname>  (214) 
A71EV2A-x3550_A_203_v1

>  <ConformerSites alias>  (214) 
1b - A0911/A/147

>  <CanonSites alias>  (214) 
1 - Active Site

>  <CrystalformSites alias>  (214) 
F1a - A0375/A/201

>  <Quatassemblies alias>  (214) 
A1 - monomer

>  <Crystalforms alias>  (214) 
F1 - A71_2A_open

>  <ConformerSites upload name>  (214) 
1b - A71EV2A-x0911/A/147

>  <CanonSites upload name>  (214) 
1 - A71EV2A-x0911/A/147/1

>  <CrystalformSites upload name>  (214) 
F1a - A71EV2A-x0375/A/201/1

>  <Quatassemblies upload name>  (214) 
A1 - monomer

>  <Crystalforms upload name>  (214) 
F1 - A71_2A_open

>  <ConformerSites short tag>  (214) 
1b - A0911/A/147

>  <CanonSites short tag>  (214) 
1 - A0911/A/147/1

>  <CrystalformSites short tag>  (214) 
F1a - A0375/A/201

>  <Quatassemblies short tag>  (214) 
A1 - monomer

>  <Crystalforms short tag>  (214) 
F1 - A71_2A_open

>  <Centroid res>  (214) 
A71EV2A-x0911/A/133/A_v1

>  <Experiment code>  (214) 
A71EV2A-x3550

>  <Pose>  (214) 
A3550a

$$$$
A3550b
     RDKit          3D

 21 22  0  0  0  0  0  0  0  0999 V2000
   16.8590   -0.0730   20.6350 O   0  0  0  0  0  0  0  0  0  0  0  0
   18.0810    0.0150   20.6420 C   0  0  0  0  0  0  0  0  0  0  0  0
   18.7320    1.1660   20.5630 N   0  0  0  0  0  0  0  0  0  0  0  0
   18.9010   -1.2020   20.2970 C   0  0  2  0  0  0  0  0  0  0  0  0
   18.4190   -2.6100   20.4500 C   0  0  0  0  0  0  0  0  0  0  0  0
   20.3190   -1.2600   20.7720 C   0  0  0  0  0  0  0  0  0  0  0  0
   21.0890   -1.9360   19.6400 C   0  0  0  0  0  0  0  0  0  0  0  0
   20.3000   -3.0670   18.8930 C   0  0  2  0  0  0  0  0  0  0  0  0
   20.5970   -2.9580   17.4150 C   0  0  0  0  0  0  0  0  0  0  0  0
   18.8400   -3.1050   19.1580 N   0  0  0  0  0  0  0  0  0  0  0  0
   17.8460   -3.3850   18.2650 C   0  0  0  0  0  0  0  0  0  0  0  0
   18.1000   -3.6810   17.1160 O   0  0  0  0  0  0  0  0  0  0  0  0
   16.3990   -3.4270   18.7410 C   0  0  0  0  0  0  0  0  0  0  0  0
   15.6030   -4.5500   18.1090 C   0  0  0  0  0  0  0  0  0  0  0  0
   16.0130   -5.8840   18.2300 C   0  0  0  0  0  0  0  0  0  0  0  0
   17.2020   -6.0580   18.8810 O   0  0  0  0  0  0  0  0  0  0  0  0
   17.6020   -7.3940   19.2150 C   0  0  0  0  0  0  0  0  0  0  0  0
   14.4110   -4.2860   17.4450 C   0  0  0  0  0  0  0  0  0  0  0  0
   13.6530   -5.3050   16.9020 C   0  0  0  0  0  0  0  0  0  0  0  0
   14.0650   -6.6210   17.0420 C   0  0  0  0  0  0  0  0  0  0  0  0
   15.2530   -6.9110   17.6950 C   0  0  0  0  0  0  0  0  0  0  0  0
 17 16  1  0
 16 15  1  0
 15 21  2  0
 21 20  1  0
 20 19  2  0
 19 18  1  0
 18 14  2  0
 15 14  1  0
 14 13  1  0
 13 11  1  0
 12 11  2  0
 11 10  1  0
 10  5  1  0
  5  4  1  0
  4  2  1  1
  3  2  1  0
  2  1  2  0
  6  4  1  0
  7  6  1  0
  8  7  1  0
 10  8  1  0
  8  9  1  6
M  END
>  <id>  (215) 
215

>  <inchikey>  (215) 
XJRJYHVAUXLXKS-AAEUAGOBSA-N

>  <alias>  (215) 
A3550b

>  <smiles>  (215) 
COc1ccccc1CC(=O)N1C[C@@H](C(N)=O)CC[C@@H]1C

>  <path>  (215) 
/opt/xchem-fragalysis-2/maxwin/BulkDock/TARGETS/A71EV2A/aligned_files/A3550b/A3550b.pdb

>  <distance_score>  (215) 
None

>  <energy_score>  (215) 
None

>  <compound>  (215) 
XJRJYHVAUXLXKS-UHFFFAOYSA-N

>  <compound_id>  (215) 
175

>  <target>  (215) 
A71EV2A

>  <tags>  (215) 
['GOOD count', 'MEDIOCRE count', 'hits', '[Other] upload_1 2024-12-06', 'Main status', '[Other] upload_061224', '[Other] upload_1 2025-02-12', 'BAD count']

>  <inspirations>  (215) 
None

>  <subsites>  (215) 
None

>  <reference>  (215) 


>  <observation_longname>  (215) 
A71EV2A-x3550_A_202_v1

>  <ConformerSites alias>  (215) 
2a - A3977/A/202

>  <CanonSites alias>  (215) 
2 - A3977/A/202/1

>  <CrystalformSites alias>  (215) 
F1s - A0152/A/201

>  <Quatassemblies alias>  (215) 
A1 - monomer

>  <Crystalforms alias>  (215) 
F1 - A71_2A_open

>  <ConformerSites upload name>  (215) 
2a - A71EV2A-x3977/A/202

>  <CanonSites upload name>  (215) 
2 - A71EV2A-x3977/A/202/1

>  <CrystalformSites upload name>  (215) 
F1s - A71EV2A-x0152/A/201/1

>  <Quatassemblies upload name>  (215) 
A1 - monomer

>  <Crystalforms upload name>  (215) 
F1 - A71_2A_open

>  <ConformerSites short tag>  (215) 
2a - A3977/A/202

>  <CanonSites short tag>  (215) 
2 - A3977/A/202/1

>  <CrystalformSites short tag>  (215) 
F1s - A0152/A/201

>  <Quatassemblies short tag>  (215) 
A1 - monomer

>  <Crystalforms short tag>  (215) 
F1 - A71_2A_open

>  <Centroid res>  (215) 
A71EV2A-x3977/A/113/A_v1

>  <Experiment code>  (215) 
A71EV2A-x3550

>  <Pose>  (215) 
A3550b

$$$$
A3556a
     RDKit          3D

 21 23  0  0  0  0  0  0  0  0999 V2000
   10.3000   16.3880   19.2980 O   0  0  0  0  0  0  0  0  0  0  0  0
   10.9050   15.3240   19.4570 C   0  0  0  0  0  0  0  0  0  0  0  0
   11.3240   14.5780   18.4470 N   0  0  0  0  0  0  0  0  0  0  0  0
   11.1560   14.7600   20.8470 C   0  0  1  0  0  0  0  0  0  0  0  0
   12.1820   15.5320   21.6930 C   0  0  0  0  0  0  0  0  0  0  0  0
   11.9130   15.0520   23.1170 C   0  0  0  0  0  0  0  0  0  0  0  0
    9.9130   14.7840   21.7390 C   0  0  0  0  0  0  0  0  0  0  0  0
   10.4780   14.7100   23.0920 N   0  0  0  0  0  0  0  0  0  0  0  0
    9.7900   14.4370   24.2210 C   0  0  0  0  0  0  0  0  0  0  0  0
   10.3310   14.4080   25.3150 O   0  0  0  0  0  0  0  0  0  0  0  0
    8.2950   14.2180   24.0810 C   0  0  0  0  0  0  0  0  0  0  0  0
    7.7840   13.0230   24.8570 C   0  0  0  0  0  0  0  0  0  0  0  0
    6.8810   13.2100   25.9020 C   0  0  0  0  0  0  0  0  0  0  0  0
    6.2660   12.1370   26.5330 C   0  0  0  0  0  0  0  0  0  0  0  0
    6.5600   10.8370   26.1540 C   0  0  0  0  0  0  0  0  0  0  0  0
    7.4940   10.6060   25.1300 C   0  0  0  0  0  0  0  0  0  0  0  0
    8.1050   11.7010   24.4830 C   0  0  0  0  0  0  0  0  0  0  0  0
    8.9790   11.1100   23.5340 C   0  0  0  0  0  0  0  0  0  0  0  0
    7.9510    9.4030   24.6290 N   0  0  0  0  0  0  0  0  0  0  0  0
    8.8510    9.7840   23.6740 N   0  0  0  0  0  0  0  0  0  0  0  0
    9.6580    8.7740   22.9880 C   0  0  0  0  0  0  0  0  0  0  0  0
 21 20  1  0
 20 18  1  0
 18 17  2  0
 17 12  1  0
 12 11  1  0
 11  9  1  0
 10  9  2  0
  9  8  1  0
  8  6  1  0
  6  5  1  0
  5  4  1  0
  4  2  1  6
  3  2  1  0
  2  1  2  0
  7  4  1  0
  8  7  1  0
 13 12  2  0
 14 13  1  0
 15 14  2  0
 16 15  1  0
 17 16  1  0
 19 16  2  0
 20 19  1  0
M  END
>  <id>  (216) 
216

>  <inchikey>  (216) 
BRQFGLOHPDECRA-NSHDSACASA-N

>  <alias>  (216) 
A3556a

>  <smiles>  (216) 
Cn1cc2c(CC(=O)N3CC[C@H](C(N)=O)C3)cccc2n1

>  <path>  (216) 
/opt/xchem-fragalysis-2/maxwin/BulkDock/TARGETS/A71EV2A/aligned_files/A3556a/A3556a.pdb

>  <distance_score>  (216) 
None

>  <energy_score>  (216) 
None

>  <compound>  (216) 
BRQFGLOHPDECRA-UHFFFAOYSA-N

>  <compound_id>  (216) 
176

>  <target>  (216) 
A71EV2A

>  <tags>  (216) 
['GOOD count', 'MEDIOCRE count', '[Other] S1 site', 'hits', '[Other] S2 site', '[Other] P3 compound design', '[Series] Indazole series', 'Main status', '[Other] upload_061224', 'BAD count']

>  <inspirations>  (216) 
None

>  <subsites>  (216) 
None

>  <reference>  (216) 


>  <observation_longname>  (216) 
A71EV2A-x3556_A_201_v1

>  <ConformerSites alias>  (216) 
1b - A0911/A/147

>  <CanonSites alias>  (216) 
1 - Active Site

>  <CrystalformSites alias>  (216) 
F1a - A0375/A/201

>  <Quatassemblies alias>  (216) 
A1 - monomer

>  <Crystalforms alias>  (216) 
F1 - A71_2A_open

>  <ConformerSites upload name>  (216) 
1b - A71EV2A-x0911/A/147

>  <CanonSites upload name>  (216) 
1 - A71EV2A-x0911/A/147/1

>  <CrystalformSites upload name>  (216) 
F1a - A71EV2A-x0375/A/201/1

>  <Quatassemblies upload name>  (216) 
A1 - monomer

>  <Crystalforms upload name>  (216) 
F1 - A71_2A_open

>  <ConformerSites short tag>  (216) 
1b - A0911/A/147

>  <CanonSites short tag>  (216) 
1 - A0911/A/147/1

>  <CrystalformSites short tag>  (216) 
F1a - A0375/A/201

>  <Quatassemblies short tag>  (216) 
A1 - monomer

>  <Crystalforms short tag>  (216) 
F1 - A71_2A_open

>  <Centroid res>  (216) 
A71EV2A-x0911/A/133/A_v1

>  <Experiment code>  (216) 
A71EV2A-x3556

>  <Pose>  (216) 
A3556a

$$$$
A3557a
     RDKit          3D

 22 23  0  0  0  0  0  0  0  0999 V2000
   10.3390   16.6760   19.1110 O   0  0  0  0  0  0  0  0  0  0  0  0
   10.7120   15.5210   19.3580 C   0  0  0  0  0  0  0  0  0  0  0  0
   10.9450   14.6160   18.4180 N   0  0  0  0  0  0  0  0  0  0  0  0
   10.8120   15.0190   20.7850 C   0  0  1  0  0  0  0  0  0  0  0  0
   12.0010   15.6350   21.5380 C   0  0  0  0  0  0  0  0  0  0  0  0
   12.0800   15.0840   22.9630 C   0  0  0  0  0  0  0  0  0  0  0  0
   10.7440   15.2580   23.6820 C   0  0  0  0  0  0  0  0  0  0  0  0
    9.4970   15.2340   21.5360 C   0  0  0  0  0  0  0  0  0  0  0  0
    9.6320   14.6980   22.8920 N   0  0  0  0  0  0  0  0  0  0  0  0
    8.8130   13.7110   23.3050 C   0  0  0  0  0  0  0  0  0  0  0  0
    7.8740   13.3080   22.6300 O   0  0  0  0  0  0  0  0  0  0  0  0
    9.1340   13.1300   24.6640 C   0  0  0  0  0  0  0  0  0  0  0  0
    8.0370   12.2140   25.1430 C   0  0  0  0  0  0  0  0  0  0  0  0
    7.0470   12.6700   26.0060 C   0  0  0  0  0  0  0  0  0  0  0  0
    6.1150   11.8020   26.5420 C   0  0  0  0  0  0  0  0  0  0  0  0
    8.0580   10.8590   24.8030 C   0  0  0  0  0  0  0  0  0  0  0  0
    9.0490   10.5080   23.9210 O   0  0  0  0  0  0  0  0  0  0  0  0
    9.2520    9.1160   23.6300 C   0  0  0  0  0  0  0  0  0  0  0  0
    7.1310    9.9850   25.3400 C   0  0  0  0  0  0  0  0  0  0  0  0
    6.1580   10.4640   26.2040 C   0  0  0  0  0  0  0  0  0  0  0  0
    5.2410    9.5450   26.6440 O   0  0  0  0  0  0  0  0  0  0  0  0
    4.1880   10.0030   27.5060 C   0  0  0  0  0  0  0  0  0  0  0  0
 22 21  1  0
 21 20  1  0
 20 15  1  0
 15 14  2  0
 14 13  1  0
 13 12  1  0
 12 10  1  0
 11 10  2  0
 10  9  1  0
  9  7  1  0
  7  6  1  0
  6  5  1  0
  5  4  1  0
  4  2  1  6
  3  2  1  0
  2  1  2  0
  8  4  1  0
  9  8  1  0
 16 13  2  0
 17 16  1  0
 18 17  1  0
 19 16  1  0
 20 19  2  0
M  END
>  <id>  (217) 
217

>  <inchikey>  (217) 
QQFWJWWIQVMKHZ-LBPRGKRZSA-N

>  <alias>  (217) 
A3557a

>  <smiles>  (217) 
COc1ccc(CC(=O)N2CCC[C@H](C(N)=O)C2)c(OC)c1

>  <path>  (217) 
/opt/xchem-fragalysis-2/maxwin/BulkDock/TARGETS/A71EV2A/aligned_files/A3557a/A3557a_hippo.pdb

>  <distance_score>  (217) 
None

>  <energy_score>  (217) 
None

>  <compound>  (217) 
QQFWJWWIQVMKHZ-UHFFFAOYSA-N

>  <compound_id>  (217) 
177

>  <target>  (217) 
A71EV2A

>  <tags>  (217) 
['GOOD count', 'MEDIOCRE count', '[Other] S1 site', 'hits', '[Other] S2 site', '[Other] P3 compound design', '[Series] Piperidine series', 'Main status', '[Other] upload_061224', 'BAD count']

>  <inspirations>  (217) 
None

>  <subsites>  (217) 
None

>  <reference>  (217) 


>  <observation_longname>  (217) 
A71EV2A-x3557_A_201_v1

>  <ConformerSites alias>  (217) 
1b - A0911/A/147

>  <CanonSites alias>  (217) 
1 - Active Site

>  <CrystalformSites alias>  (217) 
F7j - A3509/A/201

>  <Quatassemblies alias>  (217) 
A1 - monomer

>  <Crystalforms alias>  (217) 
F7 - A712A_x4207_8.1_refmac1_1st_ref

>  <ConformerSites upload name>  (217) 
1b - A71EV2A-x0911/A/147

>  <CanonSites upload name>  (217) 
1 - A71EV2A-x0911/A/147/1

>  <CrystalformSites upload name>  (217) 
F7j - A71EV2A-x3509/A/201/1

>  <Quatassemblies upload name>  (217) 
A1 - monomer

>  <Crystalforms upload name>  (217) 
F7 - A712A_x4207_8.1_refmac1_1st_ref

>  <ConformerSites short tag>  (217) 
1b - A0911/A/147

>  <CanonSites short tag>  (217) 
1 - A0911/A/147/1

>  <CrystalformSites short tag>  (217) 
F7j - A3509/A/201

>  <Quatassemblies short tag>  (217) 
A1 - monomer

>  <Crystalforms short tag>  (217) 
F7 - A712A_x4207_8.1_refmac1_1st_ref

>  <Centroid res>  (217) 
A71EV2A-x0911/A/133/A_v1

>  <Experiment code>  (217) 
A71EV2A-x3557

>  <Pose>  (217) 
A3557a

$$$$
A3557b
     RDKit          3D

 22 23  0  0  0  0  0  0  0  0999 V2000
   10.4320   16.7300   19.1100 O   0  0  0  0  0  0  0  0  0  0  0  0
   10.8030   15.5690   19.3440 C   0  0  0  0  0  0  0  0  0  0  0  0
   10.9940   14.6530   18.4000 N   0  0  0  0  0  0  0  0  0  0  0  0
   10.9730   15.0800   20.7720 C   0  0  1  0  0  0  0  0  0  0  0  0
   12.1540   15.7630   21.4870 C   0  0  0  0  0  0  0  0  0  0  0  0
   12.3000   15.2440   22.9200 C   0  0  0  0  0  0  0  0  0  0  0  0
   10.9780   15.3710   23.6830 C   0  0  0  0  0  0  0  0  0  0  0  0
    9.6870   15.2570   21.5800 C   0  0  0  0  0  0  0  0  0  0  0  0
    9.8770   14.7380   22.9360 N   0  0  0  0  0  0  0  0  0  0  0  0
    9.0830   13.7300   23.3710 C   0  0  0  0  0  0  0  0  0  0  0  0
    8.1280   13.3120   22.7140 O   0  0  0  0  0  0  0  0  0  0  0  0
    9.4480   13.1380   24.7220 C   0  0  0  0  0  0  0  0  0  0  0  0
    8.3710   12.2040   25.2250 C   0  0  0  0  0  0  0  0  0  0  0  0
    7.4010   12.6390   26.1220 C   0  0  0  0  0  0  0  0  0  0  0  0
    6.4830   11.7610   26.6660 C   0  0  0  0  0  0  0  0  0  0  0  0
    8.3770   10.8600   24.8570 C   0  0  0  0  0  0  0  0  0  0  0  0
    9.3480   10.5170   23.9540 O   0  0  0  0  0  0  0  0  0  0  0  0
    9.4960    9.1310   23.6150 C   0  0  0  0  0  0  0  0  0  0  0  0
    7.4570    9.9710   25.3970 C   0  0  0  0  0  0  0  0  0  0  0  0
    6.5150   10.4270   26.3060 C   0  0  0  0  0  0  0  0  0  0  0  0
    5.6500    9.4600   26.7760 O   0  0  0  0  0  0  0  0  0  0  0  0
    4.6530    9.8480   27.7250 C   0  0  0  0  0  0  0  0  0  0  0  0
 22 21  1  0
 21 20  1  0
 20 15  1  0
 15 14  2  0
 14 13  1  0
 13 12  1  0
 12 10  1  0
 11 10  2  0
 10  9  1  0
  9  7  1  0
  7  6  1  0
  6  5  1  0
  5  4  1  0
  4  2  1  6
  3  2  1  0
  2  1  2  0
  8  4  1  0
  9  8  1  0
 16 13  2  0
 17 16  1  0
 18 17  1  0
 19 16  1  0
 20 19  2  0
M  END
>  <id>  (218) 
218

>  <inchikey>  (218) 
QQFWJWWIQVMKHZ-LBPRGKRZSA-N

>  <alias>  (218) 
A3557b

>  <smiles>  (218) 
COc1ccc(CC(=O)N2CCC[C@H](C(N)=O)C2)c(OC)c1

>  <path>  (218) 
/opt/xchem-fragalysis-2/maxwin/BulkDock/TARGETS/A71EV2A/aligned_files/A3557b/A3557b.pdb

>  <distance_score>  (218) 
None

>  <energy_score>  (218) 
None

>  <compound>  (218) 
QQFWJWWIQVMKHZ-UHFFFAOYSA-N

>  <compound_id>  (218) 
177

>  <target>  (218) 
A71EV2A

>  <tags>  (218) 
['GOOD count', 'MEDIOCRE count', '[Other] S1 site', 'hits', '[Other] S2 site', '[Other] P3 compound design', '[Series] Piperidine series', 'Main status', '[Other] upload_061224', 'BAD count']

>  <inspirations>  (218) 
None

>  <subsites>  (218) 
None

>  <reference>  (218) 


>  <observation_longname>  (218) 
A71EV2A-x3557_C_201_v1

>  <ConformerSites alias>  (218) 
1b - A0911/A/147

>  <CanonSites alias>  (218) 
1 - Active Site

>  <CrystalformSites alias>  (218) 
F7k - A3509/C/201

>  <Quatassemblies alias>  (218) 
A1 - monomer

>  <Crystalforms alias>  (218) 
F7 - A712A_x4207_8.1_refmac1_1st_ref

>  <ConformerSites upload name>  (218) 
1b - A71EV2A-x0911/A/147

>  <CanonSites upload name>  (218) 
1 - A71EV2A-x0911/A/147/1

>  <CrystalformSites upload name>  (218) 
F7k - A71EV2A-x3509/C/201/1

>  <Quatassemblies upload name>  (218) 
A1 - monomer

>  <Crystalforms upload name>  (218) 
F7 - A712A_x4207_8.1_refmac1_1st_ref

>  <ConformerSites short tag>  (218) 
1b - A0911/A/147

>  <CanonSites short tag>  (218) 
1 - A0911/A/147/1

>  <CrystalformSites short tag>  (218) 
F7k - A3509/C/201

>  <Quatassemblies short tag>  (218) 
A1 - monomer

>  <Crystalforms short tag>  (218) 
F7 - A712A_x4207_8.1_refmac1_1st_ref

>  <Centroid res>  (218) 
A71EV2A-x0911/A/133/A_v1

>  <Experiment code>  (218) 
A71EV2A-x3557

>  <Pose>  (218) 
A3557a

$$$$
A3564a
     RDKit          3D

 19 20  0  0  0  0  0  0  0  0999 V2000
   12.4680   16.5520   18.4160 O   0  0  0  0  0  0  0  0  0  0  0  0
   12.1680   15.4710   18.9530 C   0  0  0  0  0  0  0  0  0  0  0  0
   11.5700   14.4630   18.2860 N   0  0  0  0  0  0  0  0  0  0  0  0
   12.4820   15.2760   20.4080 C   0  0  0  0  0  0  0  0  0  0  0  0
   13.4630   16.0630   21.0050 C   0  0  0  0  0  0  0  0  0  0  0  0
   13.8000   15.9770   22.2960 N   0  0  0  0  0  0  0  0  0  0  0  0
   13.1530   15.0770   23.0430 C   0  0  0  0  0  0  0  0  0  0  0  0
   11.8160   14.3530   21.2090 C   0  0  0  0  0  0  0  0  0  0  0  0
   12.1510   14.2450   22.5560 C   0  0  0  0  0  0  0  0  0  0  0  0
   11.4750   13.2770   23.4750 C   0  0  0  0  0  0  0  0  0  0  0  0
   12.1170   12.6680   24.3210 O   0  0  0  0  0  0  0  0  0  0  0  0
   10.1310   13.1380   23.3290 N   0  0  0  0  0  0  0  0  0  0  0  0
    9.2260   12.3880   24.1370 C   0  0  0  0  0  0  0  0  0  0  0  0
    9.1610   10.9840   24.0130 C   0  0  0  0  0  0  0  0  0  0  0  0
   10.0740   10.2050   23.1030 C   0  0  0  0  0  0  0  0  0  0  0  0
    8.3740   13.0690   25.0110 C   0  0  0  0  0  0  0  0  0  0  0  0
    7.4450   12.3580   25.7540 C   0  0  0  0  0  0  0  0  0  0  0  0
    7.3560   10.9870   25.6250 C   0  0  0  0  0  0  0  0  0  0  0  0
    8.2050   10.3100   24.7720 C   0  0  0  0  0  0  0  0  0  0  0  0
 15 14  1  0
 14 19  2  0
 19 18  1  0
 18 17  2  0
 17 16  1  0
 16 13  2  0
 14 13  1  0
 13 12  1  0
 12 10  1  0
 11 10  2  0
 10  9  1  0
  9  7  1  0
  7  6  2  0
  6  5  1  0
  5  4  2  0
  4  2  1  0
  3  2  1  0
  2  1  2  0
  8  4  1  0
  9  8  2  0
M  END
>  <id>  (219) 
219

>  <inchikey>  (219) 
UWNHLJGYVVRCPX-UHFFFAOYSA-N

>  <alias>  (219) 
A3564a

>  <smiles>  (219) 
Cc1ccccc1NC(=O)c1cncc(C(N)=O)c1

>  <path>  (219) 
/opt/xchem-fragalysis-2/maxwin/BulkDock/TARGETS/A71EV2A/aligned_files/A3564a/A3564a.pdb

>  <distance_score>  (219) 
None

>  <energy_score>  (219) 
None

>  <compound>  (219) 
UWNHLJGYVVRCPX-UHFFFAOYSA-N

>  <compound_id>  (219) 
178

>  <target>  (219) 
A71EV2A

>  <tags>  (219) 
['GOOD count', 'MEDIOCRE count', '[Other] S1 site', 'hits', '[Other] S2 site', '[Other] P3 compound design', 'Main status', '[Other] upload_061224', 'BAD count']

>  <inspirations>  (219) 
None

>  <subsites>  (219) 
None

>  <reference>  (219) 


>  <observation_longname>  (219) 
A71EV2A-x3564_A_201_v1

>  <ConformerSites alias>  (219) 
1b - A0911/A/147

>  <CanonSites alias>  (219) 
1 - Active Site

>  <CrystalformSites alias>  (219) 
F2b - A0450/A/201

>  <Quatassemblies alias>  (219) 
A1 - monomer

>  <Crystalforms alias>  (219) 
F2 - A71_2A_open_small_cell

>  <ConformerSites upload name>  (219) 
1b - A71EV2A-x0911/A/147

>  <CanonSites upload name>  (219) 
1 - A71EV2A-x0911/A/147/1

>  <CrystalformSites upload name>  (219) 
F2b - A71EV2A-x0450/A/201/1

>  <Quatassemblies upload name>  (219) 
A1 - monomer

>  <Crystalforms upload name>  (219) 
F2 - A71_2A_open_small_cell

>  <ConformerSites short tag>  (219) 
1b - A0911/A/147

>  <CanonSites short tag>  (219) 
1 - A0911/A/147/1

>  <CrystalformSites short tag>  (219) 
F2b - A0450/A/201

>  <Quatassemblies short tag>  (219) 
A1 - monomer

>  <Crystalforms short tag>  (219) 
F2 - A71_2A_open_small_cell

>  <Centroid res>  (219) 
A71EV2A-x0911/A/133/A_v1

>  <Experiment code>  (219) 
A71EV2A-x3564

>  <Pose>  (219) 
A3564a

$$$$
A3568a
     RDKit          3D

 20 22  0  0  0  0  0  0  0  0999 V2000
   10.6520   13.9130   24.8910 O   0  0  0  0  0  0  0  0  0  0  0  0
   10.4830   13.1270   23.9780 C   0  0  0  0  0  0  0  0  0  0  0  0
    9.4840   12.0230   24.1280 C   0  0  0  0  0  0  0  0  0  0  0  0
    9.4370   10.7420   23.6310 C   0  0  0  0  0  0  0  0  0  0  0  0
    8.3880   10.0620   24.1820 N   0  0  0  0  0  0  0  0  0  0  0  0
    7.7100   10.8980   25.0370 C   0  0  0  0  0  0  0  0  0  0  0  0
    8.3620   12.1450   25.0310 C   0  0  0  0  0  0  0  0  0  0  0  0
    7.8570   13.1610   25.8320 C   0  0  0  0  0  0  0  0  0  0  0  0
    6.7520   12.9210   26.6280 C   0  0  0  0  0  0  0  0  0  0  0  0
    6.5980   10.6690   25.8280 C   0  0  0  0  0  0  0  0  0  0  0  0
    6.1270   11.6770   26.6580 C   0  0  0  0  0  0  0  0  0  0  0  0
    5.0270   11.3990   27.6420 C   0  0  0  0  0  0  0  0  0  0  0  0
   11.1950   13.1860   22.8480 N   0  0  0  0  0  0  0  0  0  0  0  0
   10.7790   13.9390   21.6890 C   0  0  0  0  0  0  0  0  0  0  0  0
   11.9620   14.4780   20.9130 C   0  0  0  0  0  0  0  0  0  0  0  0
   11.0290   15.4190   20.2650 C   0  0  0  0  0  0  0  0  0  0  0  0
   10.5040   16.4950   20.9460 N   0  0  0  0  0  0  0  0  0  0  0  0
    9.5820   16.9300   20.1750 C   0  0  0  0  0  0  0  0  0  0  0  0
    9.4420   16.2620   19.0220 O   0  0  0  0  0  0  0  0  0  0  0  0
   10.3950   15.3000   19.0990 C   0  0  0  0  0  0  0  0  0  0  0  0
 12 11  1  0
 11  9  1  0
  9  8  2  0
  8  7  1  0
  7  3  1  0
  3  2  1  0
  2  1  2  0
 13  2  1  0
 14 13  1  0
 15 14  1  0
 16 15  1  0
 16 20  2  0
 20 19  1  0
 19 18  1  0
 18 17  2  0
 17 16  1  0
  4  3  2  0
  5  4  1  0
  6  5  1  0
  7  6  2  0
 10  6  1  0
 11 10  2  0
M  END
>  <id>  (220) 
220

>  <inchikey>  (220) 
LZYMZWBOIHZTRB-UHFFFAOYSA-N

>  <alias>  (220) 
A3568a

>  <smiles>  (220) 
Cc1ccc2c(C(=O)NCCc3cocn3)c[nH]c2c1

>  <path>  (220) 
/opt/xchem-fragalysis-2/maxwin/BulkDock/TARGETS/A71EV2A/aligned_files/A3568a/A3568a.pdb

>  <distance_score>  (220) 
None

>  <energy_score>  (220) 
None

>  <compound>  (220) 
LZYMZWBOIHZTRB-UHFFFAOYSA-N

>  <compound_id>  (220) 
179

>  <target>  (220) 
A71EV2A

>  <tags>  (220) 
['GOOD count', 'MEDIOCRE count', '[Other] S1 site', 'hits', '[Other] S2 site', '[Other] P3 compound design', '[Series] Indazole series', 'Main status', '[Other] upload_061224', 'BAD count']

>  <inspirations>  (220) 
None

>  <subsites>  (220) 
None

>  <reference>  (220) 


>  <observation_longname>  (220) 
A71EV2A-x3568_A_201_v1

>  <ConformerSites alias>  (220) 
1b - A0911/A/147

>  <CanonSites alias>  (220) 
1 - Active Site

>  <CrystalformSites alias>  (220) 
F5i - A3175/A/201

>  <Quatassemblies alias>  (220) 
A1 - monomer

>  <Crystalforms alias>  (220) 
F5 - A71EV2A_x3178_new_long_dials_041024

>  <ConformerSites upload name>  (220) 
1b - A71EV2A-x0911/A/147

>  <CanonSites upload name>  (220) 
1 - A71EV2A-x0911/A/147/1

>  <CrystalformSites upload name>  (220) 
F5i - A71EV2A-x3175/A/201/1

>  <Quatassemblies upload name>  (220) 
A1 - monomer

>  <Crystalforms upload name>  (220) 
F5 - A71EV2A_x3178_new_long_dials_041024

>  <ConformerSites short tag>  (220) 
1b - A0911/A/147

>  <CanonSites short tag>  (220) 
1 - A0911/A/147/1

>  <CrystalformSites short tag>  (220) 
F5i - A3175/A/201

>  <Quatassemblies short tag>  (220) 
A1 - monomer

>  <Crystalforms short tag>  (220) 
F5 - A71EV2A_x3178_new_long_dials_041024

>  <Centroid res>  (220) 
A71EV2A-x0911/A/133/A_v1

>  <Experiment code>  (220) 
A71EV2A-x3568

>  <Pose>  (220) 
A3568a

$$$$
A3571a
     RDKit          3D

 21 22  0  0  0  0  0  0  0  0999 V2000
   10.2610   16.6990   19.1860 O   0  0  0  0  0  0  0  0  0  0  0  0
   10.5860   15.5440   19.4650 C   0  0  0  0  0  0  0  0  0  0  0  0
   10.9520   14.6580   18.5520 N   0  0  0  0  0  0  0  0  0  0  0  0
   10.5210   15.0300   20.8910 C   0  0  1  0  0  0  0  0  0  0  0  0
   11.6980   15.5870   21.6960 C   0  0  0  0  0  0  0  0  0  0  0  0
   11.9430   14.9110   23.0450 C   0  0  0  0  0  0  0  0  0  0  0  0
   11.0490   15.3450   24.1980 C   0  0  0  0  0  0  0  0  0  0  0  0
    9.6220   15.7380   23.8630 C   0  0  0  0  0  0  0  0  0  0  0  0
    9.1380   15.3070   21.4650 C   0  0  0  0  0  0  0  0  0  0  0  0
    8.9920   14.8840   22.8530 N   0  0  0  0  0  0  0  0  0  0  0  0
    8.2390   13.8090   23.1670 C   0  0  0  0  0  0  0  0  0  0  0  0
    7.4910   13.2980   22.3530 O   0  0  0  0  0  0  0  0  0  0  0  0
    8.3560   13.3020   24.5990 C   0  0  0  0  0  0  0  0  0  0  0  0
    7.4510   12.1300   24.9080 C   0  0  0  0  0  0  0  0  0  0  0  0
    7.8000   10.8350   24.5220 C   0  0  0  0  0  0  0  0  0  0  0  0
    8.9280   10.7430   23.7470 O   0  0  0  0  0  0  0  0  0  0  0  0
    9.3280    9.4440   23.2890 C   0  0  0  0  0  0  0  0  0  0  0  0
    6.3400   12.2940   25.7270 C   0  0  0  0  0  0  0  0  0  0  0  0
    5.6170   11.2020   26.1760 C   0  0  0  0  0  0  0  0  0  0  0  0
    5.9690    9.9420   25.7880 C   0  0  0  0  0  0  0  0  0  0  0  0
    7.0510    9.7470   24.9410 C   0  0  0  0  0  0  0  0  0  0  0  0
 17 16  1  0
 16 15  1  0
 15 21  2  0
 21 20  1  0
 20 19  2  0
 19 18  1  0
 18 14  2  0
 15 14  1  0
 14 13  1  0
 13 11  1  0
 12 11  2  0
 11 10  1  0
 10  8  1  0
  8  7  1  0
  7  6  1  0
  6  5  1  0
  5  4  1  0
  4  2  1  6
  3  2  1  0
  2  1  2  0
  9  4  1  0
 10  9  1  0
M  END
>  <id>  (221) 
221

>  <inchikey>  (221) 
WNIBIMVZSUHHEM-ZDUSSCGKSA-N

>  <alias>  (221) 
A3571a

>  <smiles>  (221) 
COc1ccccc1CC(=O)N1CCCC[C@H](C(N)=O)C1

>  <path>  (221) 
/opt/xchem-fragalysis-2/maxwin/BulkDock/TARGETS/A71EV2A/aligned_files/A3571a/A3571a_hippo.pdb

>  <distance_score>  (221) 
None

>  <energy_score>  (221) 
None

>  <compound>  (221) 
WNIBIMVZSUHHEM-UHFFFAOYSA-N

>  <compound_id>  (221) 
180

>  <target>  (221) 
A71EV2A

>  <tags>  (221) 
['GOOD count', 'MEDIOCRE count', '[Other] S1 site', 'hits', '[Other] S2 site', '[Other] P3 compound design', '[Other] upload_2 2024-12-12', 'Main status', '[Series] Piperidine series', 'BAD count']

>  <inspirations>  (221) 
None

>  <subsites>  (221) 
None

>  <reference>  (221) 


>  <observation_longname>  (221) 
A71EV2A-x3571_A_201_v1

>  <ConformerSites alias>  (221) 
1b - A0911/A/147

>  <CanonSites alias>  (221) 
1 - Active Site

>  <CrystalformSites alias>  (221) 
F7j - A3509/A/201

>  <Quatassemblies alias>  (221) 
A1 - monomer

>  <Crystalforms alias>  (221) 
F7 - A712A_x4207_8.1_refmac1_1st_ref

>  <ConformerSites upload name>  (221) 
1b - A71EV2A-x0911/A/147

>  <CanonSites upload name>  (221) 
1 - A71EV2A-x0911/A/147/1

>  <CrystalformSites upload name>  (221) 
F7j - A71EV2A-x3509/A/201/1

>  <Quatassemblies upload name>  (221) 
A1 - monomer

>  <Crystalforms upload name>  (221) 
F7 - A712A_x4207_8.1_refmac1_1st_ref

>  <ConformerSites short tag>  (221) 
1b - A0911/A/147

>  <CanonSites short tag>  (221) 
1 - A0911/A/147/1

>  <CrystalformSites short tag>  (221) 
F7j - A3509/A/201

>  <Quatassemblies short tag>  (221) 
A1 - monomer

>  <Crystalforms short tag>  (221) 
F7 - A712A_x4207_8.1_refmac1_1st_ref

>  <Centroid res>  (221) 
A71EV2A-x0911/A/133/A_v1

>  <Experiment code>  (221) 
A71EV2A-x3571

>  <Pose>  (221) 
A3571a

$$$$
A3571b
     RDKit          3D

 21 22  0  0  0  0  0  0  0  0999 V2000
   10.3140   16.6590   19.2440 O   0  0  0  0  0  0  0  0  0  0  0  0
   10.6940   15.5010   19.5050 C   0  0  0  0  0  0  0  0  0  0  0  0
   10.9670   14.5880   18.5690 N   0  0  0  0  0  0  0  0  0  0  0  0
   10.7900   15.0170   20.9410 C   0  0  1  0  0  0  0  0  0  0  0  0
   12.0130   15.6310   21.6400 C   0  0  0  0  0  0  0  0  0  0  0  0
   12.3480   15.0290   23.0160 C   0  0  0  0  0  0  0  0  0  0  0  0
   11.5470   15.4870   24.2290 C   0  0  0  0  0  0  0  0  0  0  0  0
   10.0840   15.7520   24.0380 C   0  0  0  0  0  0  0  0  0  0  0  0
    9.4840   15.3230   21.6530 C   0  0  0  0  0  0  0  0  0  0  0  0
    9.4470   14.8770   23.0460 N   0  0  0  0  0  0  0  0  0  0  0  0
    8.7690   13.7430   23.3470 C   0  0  0  0  0  0  0  0  0  0  0  0
    7.9720   13.2320   22.5720 O   0  0  0  0  0  0  0  0  0  0  0  0
    9.0110   13.1600   24.7270 C   0  0  0  0  0  0  0  0  0  0  0  0
    8.0440   12.0420   25.0640 C   0  0  0  0  0  0  0  0  0  0  0  0
    8.2860   10.7470   24.6130 C   0  0  0  0  0  0  0  0  0  0  0  0
    9.3650   10.6160   23.7800 O   0  0  0  0  0  0  0  0  0  0  0  0
    9.6710    9.3150   23.3030 C   0  0  0  0  0  0  0  0  0  0  0  0
    7.0070   12.2340   25.9800 C   0  0  0  0  0  0  0  0  0  0  0  0
    6.2410   11.1720   26.4270 C   0  0  0  0  0  0  0  0  0  0  0  0
    6.4880    9.9050   25.9710 C   0  0  0  0  0  0  0  0  0  0  0  0
    7.5090    9.6810   25.0530 C   0  0  0  0  0  0  0  0  0  0  0  0
 17 16  1  0
 16 15  1  0
 15 21  2  0
 21 20  1  0
 20 19  2  0
 19 18  1  0
 18 14  2  0
 15 14  1  0
 14 13  1  0
 13 11  1  0
 12 11  2  0
 11 10  1  0
 10  8  1  0
  8  7  1  0
  7  6  1  0
  6  5  1  0
  5  4  1  0
  4  2  1  6
  3  2  1  0
  2  1  2  0
  9  4  1  0
 10  9  1  0
M  END
>  <id>  (222) 
222

>  <inchikey>  (222) 
WNIBIMVZSUHHEM-ZDUSSCGKSA-N

>  <alias>  (222) 
A3571b

>  <smiles>  (222) 
COc1ccccc1CC(=O)N1CCCC[C@H](C(N)=O)C1

>  <path>  (222) 
/opt/xchem-fragalysis-2/maxwin/BulkDock/TARGETS/A71EV2A/aligned_files/A3571b/A3571b.pdb

>  <distance_score>  (222) 
None

>  <energy_score>  (222) 
None

>  <compound>  (222) 
WNIBIMVZSUHHEM-UHFFFAOYSA-N

>  <compound_id>  (222) 
180

>  <target>  (222) 
A71EV2A

>  <tags>  (222) 
['GOOD count', 'MEDIOCRE count', '[Other] S1 site', 'hits', '[Other] S2 site', '[Other] P3 compound design', '[Other] upload_2 2024-12-12', 'Main status', '[Series] Piperidine series', 'BAD count']

>  <inspirations>  (222) 
None

>  <subsites>  (222) 
None

>  <reference>  (222) 


>  <observation_longname>  (222) 
A71EV2A-x3571_C_201_v1

>  <ConformerSites alias>  (222) 
1b - A0911/A/147

>  <CanonSites alias>  (222) 
1 - Active Site

>  <CrystalformSites alias>  (222) 
F7k - A3509/C/201

>  <Quatassemblies alias>  (222) 
A1 - monomer

>  <Crystalforms alias>  (222) 
F7 - A712A_x4207_8.1_refmac1_1st_ref

>  <ConformerSites upload name>  (222) 
1b - A71EV2A-x0911/A/147

>  <CanonSites upload name>  (222) 
1 - A71EV2A-x0911/A/147/1

>  <CrystalformSites upload name>  (222) 
F7k - A71EV2A-x3509/C/201/1

>  <Quatassemblies upload name>  (222) 
A1 - monomer

>  <Crystalforms upload name>  (222) 
F7 - A712A_x4207_8.1_refmac1_1st_ref

>  <ConformerSites short tag>  (222) 
1b - A0911/A/147

>  <CanonSites short tag>  (222) 
1 - A0911/A/147/1

>  <CrystalformSites short tag>  (222) 
F7k - A3509/C/201

>  <Quatassemblies short tag>  (222) 
A1 - monomer

>  <Crystalforms short tag>  (222) 
F7 - A712A_x4207_8.1_refmac1_1st_ref

>  <Centroid res>  (222) 
A71EV2A-x0911/A/133/A_v1

>  <Experiment code>  (222) 
A71EV2A-x3571

>  <Pose>  (222) 
A3571a

$$$$
A3575a
     RDKit          3D

 22 23  0  0  0  0  0  0  0  0999 V2000
   10.4030   16.8070   19.1600 O   0  0  0  0  0  0  0  0  0  0  0  0
   10.7160   15.6340   19.4070 C   0  0  0  0  0  0  0  0  0  0  0  0
   10.9810   14.7420   18.4710 N   0  0  0  0  0  0  0  0  0  0  0  0
   10.8400   15.1420   20.8380 C   0  0  1  0  0  0  0  0  0  0  0  0
   12.0140   15.8180   21.5710 C   0  0  0  0  0  0  0  0  0  0  0  0
   12.0970   15.4200   23.0510 C   0  0  0  0  0  0  0  0  0  0  0  0
   10.7470   15.5270   23.7410 C   0  0  0  0  0  0  0  0  0  0  0  0
    9.5520   15.4130   21.6050 C   0  0  0  0  0  0  0  0  0  0  0  0
    9.7050   14.8560   22.9490 N   0  0  0  0  0  0  0  0  0  0  0  0
    8.9810   13.7800   23.3150 C   0  0  0  0  0  0  0  0  0  0  0  0
    8.0580   13.3530   22.6370 O   0  0  0  0  0  0  0  0  0  0  0  0
    9.3720   13.1320   24.6280 C   0  0  0  0  0  0  0  0  0  0  0  0
    8.5320   11.9060   24.8900 C   0  0  0  0  0  0  0  0  0  0  0  0
    7.4070   11.9610   25.7130 C   0  0  0  0  0  0  0  0  0  0  0  0
    7.0560   13.1690   26.2910 O   0  0  0  0  0  0  0  0  0  0  0  0
    6.0870   13.9690   25.6040 C   0  0  0  0  0  0  0  0  0  0  0  0
    8.8570   10.6870   24.2960 C   0  0  0  0  0  0  0  0  0  0  0  0
    8.1100    9.5530   24.5500 C   0  0  0  0  0  0  0  0  0  0  0  0
    7.0090    9.6150   25.3870 C   0  0  0  0  0  0  0  0  0  0  0  0
    6.6290   10.8280   25.9640 C   0  0  0  0  0  0  0  0  0  0  0  0
    5.3920   10.9050   26.6900 C   0  0  0  0  0  0  0  0  0  0  0  0
    4.4110   11.0160   27.2650 N   0  0  0  0  0  0  0  0  0  0  0  0
 16 15  1  0
 15 14  1  0
 14 20  2  0
 21 20  1  0
 22 21  3  0
 20 19  1  0
 19 18  2  0
 18 17  1  0
 17 13  2  0
 14 13  1  0
 13 12  1  0
 12 10  1  0
 11 10  2  0
 10  9  1  0
  9  7  1  0
  7  6  1  0
  6  5  1  0
  5  4  1  0
  4  2  1  6
  3  2  1  0
  2  1  2  0
  8  4  1  0
  9  8  1  0
M  END
>  <id>  (223) 
223

>  <inchikey>  (223) 
VDGDDJZRHZPZCA-ZDUSSCGKSA-N

>  <alias>  (223) 
A3575a

>  <smiles>  (223) 
COc1c(C#N)cccc1CC(=O)N1CCC[C@H](C(N)=O)C1

>  <path>  (223) 
/opt/xchem-fragalysis-2/maxwin/BulkDock/TARGETS/A71EV2A/aligned_files/A3575a/A3575a.pdb

>  <distance_score>  (223) 
None

>  <energy_score>  (223) 
None

>  <compound>  (223) 
VDGDDJZRHZPZCA-UHFFFAOYSA-N

>  <compound_id>  (223) 
181

>  <target>  (223) 
A71EV2A

>  <tags>  (223) 
['GOOD count', 'MEDIOCRE count', '[Other] S1 site', 'hits', '[Other] S2 site', '[Other] P3 compound design', '[Series] Piperidine series', 'Main status', '[Other] upload_061224', 'BAD count']

>  <inspirations>  (223) 
None

>  <subsites>  (223) 
None

>  <reference>  (223) 


>  <observation_longname>  (223) 
A71EV2A-x3575_A_201_v1

>  <ConformerSites alias>  (223) 
1b - A0911/A/147

>  <CanonSites alias>  (223) 
1 - Active Site

>  <CrystalformSites alias>  (223) 
F8h - A0884/A/147

>  <Quatassemblies alias>  (223) 
A1 - monomer

>  <Crystalforms alias>  (223) 
F8 - A712A_x4271_2.1_refmac1_1st_ref

>  <ConformerSites upload name>  (223) 
1b - A71EV2A-x0911/A/147

>  <CanonSites upload name>  (223) 
1 - A71EV2A-x0911/A/147/1

>  <CrystalformSites upload name>  (223) 
F8h - A71EV2A-x0884/A/147/1

>  <Quatassemblies upload name>  (223) 
A1 - monomer

>  <Crystalforms upload name>  (223) 
F8 - A712A_x4271_2.1_refmac1_1st_ref

>  <ConformerSites short tag>  (223) 
1b - A0911/A/147

>  <CanonSites short tag>  (223) 
1 - A0911/A/147/1

>  <CrystalformSites short tag>  (223) 
F8h - A0884/A/147

>  <Quatassemblies short tag>  (223) 
A1 - monomer

>  <Crystalforms short tag>  (223) 
F8 - A712A_x4271_2.1_refmac1_1st_ref

>  <Centroid res>  (223) 
A71EV2A-x0911/A/133/A_v1

>  <Experiment code>  (223) 
A71EV2A-x3575

>  <Pose>  (223) 
A3575a

$$$$
A3849a
     RDKit          3D

 20 21  0  0  0  0  0  0  0  0999 V2000
   10.1420   16.8580   19.0610 O   0  0  0  0  0  0  0  0  0  0  0  0
   10.5860   15.8210   19.5570 C   0  0  0  0  0  0  0  0  0  0  0  0
   11.0170   14.8010   18.8200 N   0  0  0  0  0  0  0  0  0  0  0  0
   10.6340   15.6410   21.0660 C   0  0  2  0  0  0  0  0  0  0  0  0
   12.0760   15.6220   21.5850 C   0  0  0  0  0  0  0  0  0  0  0  0
   12.0900   15.3660   23.0890 C   0  0  0  0  0  0  0  0  0  0  0  0
   11.3960   14.0490   23.4090 C   0  0  0  0  0  0  0  0  0  0  0  0
    9.8710   14.3660   21.4370 C   0  0  0  0  0  0  0  0  0  0  0  0
   10.0350   13.9680   22.8400 N   0  0  0  0  0  0  0  0  0  0  0  0
    9.0160   13.2960   23.4310 C   0  0  0  0  0  0  0  0  0  0  0  0
    7.9650   13.0340   22.8390 O   0  0  0  0  0  0  0  0  0  0  0  0
    9.2720   12.7720   24.8330 C   0  0  0  0  0  0  0  0  0  0  0  0
    8.2870   11.6930   25.2250 C   0  0  0  0  0  0  0  0  0  0  0  0
    8.3150   10.3870   24.7050 C   0  0  0  0  0  0  0  0  0  0  0  0
    9.2890   10.1680   23.8000 O   0  0  0  0  0  0  0  0  0  0  0  0
    9.5390    8.8190   23.3870 C   0  0  0  0  0  0  0  0  0  0  0  0
    7.2920   11.9520   26.1640 C   0  0  0  0  0  0  0  0  0  0  0  0
    6.4130   10.9560   26.5420 C   0  0  0  0  0  0  0  0  0  0  0  0
    6.5340    9.7200   25.9580 C   0  0  0  0  0  0  0  0  0  0  0  0
    7.4690    9.4220   25.0450 N   0  0  0  0  0  0  0  0  0  0  0  0
 16 15  1  0
 15 14  1  0
 14 20  2  0
 20 19  1  0
 19 18  2  0
 18 17  1  0
 17 13  2  0
 14 13  1  0
 13 12  1  0
 12 10  1  0
 11 10  2  0
 10  9  1  0
  9  7  1  0
  7  6  1  0
  6  5  1  0
  5  4  1  0
  4  2  1  6
  3  2  1  0
  2  1  2  0
  8  4  1  0
  9  8  1  0
M  END
>  <id>  (224) 
224

>  <inchikey>  (224) 
DPQNQDXNIINHJH-LLVKDONJSA-N

>  <alias>  (224) 
A3849a

>  <smiles>  (224) 
COc1ncccc1CC(=O)N1CCC[C@@H](C(N)=O)C1

>  <path>  (224) 
/opt/xchem-fragalysis-2/maxwin/BulkDock/TARGETS/A71EV2A/aligned_files/A3849a/A3849a.pdb

>  <distance_score>  (224) 
None

>  <energy_score>  (224) 
None

>  <compound>  (224) 
DPQNQDXNIINHJH-UHFFFAOYSA-N

>  <compound_id>  (224) 
120

>  <target>  (224) 
A71EV2A

>  <tags>  (224) 
['GOOD count', 'MEDIOCRE count', '[Other] S1 site', 'hits', '[Other] S2 site', '[Other] P3 compound design', '[Series] Piperidine series', 'Main status', '[Other] upload_061224', 'BAD count']

>  <inspirations>  (224) 
None

>  <subsites>  (224) 
None

>  <reference>  (224) 


>  <observation_longname>  (224) 
A71EV2A-x3849_A_201_v1

>  <ConformerSites alias>  (224) 
1b - A0911/A/147

>  <CanonSites alias>  (224) 
1 - Active Site

>  <CrystalformSites alias>  (224) 
F8h - A0884/A/147

>  <Quatassemblies alias>  (224) 
A1 - monomer

>  <Crystalforms alias>  (224) 
F8 - A712A_x4271_2.1_refmac1_1st_ref

>  <ConformerSites upload name>  (224) 
1b - A71EV2A-x0911/A/147

>  <CanonSites upload name>  (224) 
1 - A71EV2A-x0911/A/147/1

>  <CrystalformSites upload name>  (224) 
F8h - A71EV2A-x0884/A/147/1

>  <Quatassemblies upload name>  (224) 
A1 - monomer

>  <Crystalforms upload name>  (224) 
F8 - A712A_x4271_2.1_refmac1_1st_ref

>  <ConformerSites short tag>  (224) 
1b - A0911/A/147

>  <CanonSites short tag>  (224) 
1 - A0911/A/147/1

>  <CrystalformSites short tag>  (224) 
F8h - A0884/A/147

>  <Quatassemblies short tag>  (224) 
A1 - monomer

>  <Crystalforms short tag>  (224) 
F8 - A712A_x4271_2.1_refmac1_1st_ref

>  <Centroid res>  (224) 
A71EV2A-x0911/A/133/A_v1

>  <Experiment code>  (224) 
A71EV2A-x3849

>  <Pose>  (224) 
A3849a

$$$$
A3858a
     RDKit          3D

 21 22  0  0  0  0  0  0  0  0999 V2000
   10.1450   16.8860   19.0250 O   0  0  0  0  0  0  0  0  0  0  0  0
   10.5260   15.8250   19.4980 C   0  0  0  0  0  0  0  0  0  0  0  0
   10.8800   14.7860   18.7230 N   0  0  0  0  0  0  0  0  0  0  0  0
   10.5850   15.6400   21.0040 C   0  0  2  0  0  0  0  0  0  0  0  0
   12.0150   15.6020   21.5360 C   0  0  0  0  0  0  0  0  0  0  0  0
   11.9980   15.4030   23.0480 C   0  0  0  0  0  0  0  0  0  0  0  0
   11.1680   14.1860   23.4360 C   0  0  0  0  0  0  0  0  0  0  0  0
    9.7320   14.4510   21.3970 C   0  0  0  0  0  0  0  0  0  0  0  0
    9.8170   14.1600   22.8320 N   0  0  0  0  0  0  0  0  0  0  0  0
    8.7290   13.5430   23.3520 C   0  0  0  0  0  0  0  0  0  0  0  0
    7.7050   13.3210   22.6960 O   0  0  0  0  0  0  0  0  0  0  0  0
    8.9000   13.0040   24.7530 C   0  0  0  0  0  0  0  0  0  0  0  0
    7.7850   12.0310   25.0540 C   0  0  0  0  0  0  0  0  0  0  0  0
    7.8940   10.6990   24.6230 C   0  0  0  0  0  0  0  0  0  0  0  0
    8.9380   10.4500   23.7590 O   0  0  0  0  0  0  0  0  0  0  0  0
    9.1800    9.0860   23.3550 C   0  0  0  0  0  0  0  0  0  0  0  0
    6.7000   12.3630   25.8720 C   0  0  0  0  0  0  0  0  0  0  0  0
    6.3750   14.0150   26.3080 Cl  0  0  0  0  0  0  0  0  0  0  0  0
    5.8170   11.4150   26.3310 C   0  0  0  0  0  0  0  0  0  0  0  0
    5.9780   10.1030   25.9390 C   0  0  0  0  0  0  0  0  0  0  0  0
    7.0110    9.7370   25.0760 C   0  0  0  0  0  0  0  0  0  0  0  0
 16 15  1  0
 15 14  1  0
 14 21  2  0
 21 20  1  0
 20 19  2  0
 19 17  1  0
 18 17  1  0
 17 13  2  0
 14 13  1  0
 13 12  1  0
 12 10  1  0
 11 10  2  0
 10  9  1  0
  9  7  1  0
  7  6  1  0
  6  5  1  0
  5  4  1  0
  4  2  1  6
  3  2  1  0
  2  1  2  0
  8  4  1  0
  9  8  1  0
M  END
>  <id>  (225) 
225

>  <inchikey>  (225) 
NHPQEFHMDYOTOA-SNVBAGLBSA-N

>  <alias>  (225) 
A3858a

>  <smiles>  (225) 
COc1cccc(Cl)c1CC(=O)N1CCC[C@@H](C(N)=O)C1

>  <path>  (225) 
/opt/xchem-fragalysis-2/maxwin/BulkDock/TARGETS/A71EV2A/aligned_files/A3858a/A3858a_hippo.pdb

>  <distance_score>  (225) 
None

>  <energy_score>  (225) 
None

>  <compound>  (225) 
NHPQEFHMDYOTOA-UHFFFAOYSA-N

>  <compound_id>  (225) 
182

>  <target>  (225) 
A71EV2A

>  <tags>  (225) 
['GOOD count', 'MEDIOCRE count', '[Other] S1 site', 'hits', '[Other] S2 site', '[Other] P3 compound design', 'Main status', '[Other] upload_061224', 'BAD count']

>  <inspirations>  (225) 
None

>  <subsites>  (225) 
None

>  <reference>  (225) 


>  <observation_longname>  (225) 
A71EV2A-x3858_A_201_v1

>  <ConformerSites alias>  (225) 
1b - A0911/A/147

>  <CanonSites alias>  (225) 
1 - Active Site

>  <CrystalformSites alias>  (225) 
F6m - A3858/A/201

>  <Quatassemblies alias>  (225) 
A1 - monomer

>  <Crystalforms alias>  (225) 
F6 - short_long_x4018

>  <ConformerSites upload name>  (225) 
1b - A71EV2A-x0911/A/147

>  <CanonSites upload name>  (225) 
1 - A71EV2A-x0911/A/147/1

>  <CrystalformSites upload name>  (225) 
F6m - A71EV2A-x3858/A/201/1

>  <Quatassemblies upload name>  (225) 
A1 - monomer

>  <Crystalforms upload name>  (225) 
F6 - short_long_x4018

>  <ConformerSites short tag>  (225) 
1b - A0911/A/147

>  <CanonSites short tag>  (225) 
1 - A0911/A/147/1

>  <CrystalformSites short tag>  (225) 
F6m - A3858/A/201

>  <Quatassemblies short tag>  (225) 
A1 - monomer

>  <Crystalforms short tag>  (225) 
F6 - short_long_x4018

>  <Centroid res>  (225) 
A71EV2A-x0911/A/133/A_v1

>  <Experiment code>  (225) 
A71EV2A-x3858

>  <Pose>  (225) 
A3858a

$$$$
A3858b
     RDKit          3D

 21 22  0  0  0  0  0  0  0  0999 V2000
   10.2510   16.8980   19.0220 O   0  0  0  0  0  0  0  0  0  0  0  0
   10.6460   15.8430   19.4800 C   0  0  0  0  0  0  0  0  0  0  0  0
   10.9610   14.8050   18.6980 N   0  0  0  0  0  0  0  0  0  0  0  0
   10.7570   15.6720   20.9830 C   0  0  2  0  0  0  0  0  0  0  0  0
   12.1990   15.6570   21.4730 C   0  0  0  0  0  0  0  0  0  0  0  0
   12.2390   15.4650   22.9860 C   0  0  0  0  0  0  0  0  0  0  0  0
   11.4670   14.2250   23.3970 C   0  0  0  0  0  0  0  0  0  0  0  0
    9.9270   14.4860   21.4290 C   0  0  0  0  0  0  0  0  0  0  0  0
   10.0950   14.1950   22.8550 N   0  0  0  0  0  0  0  0  0  0  0  0
    9.0650   13.5230   23.4170 C   0  0  0  0  0  0  0  0  0  0  0  0
    7.9860   13.3060   22.8250 O   0  0  0  0  0  0  0  0  0  0  0  0
    9.3490   12.9510   24.7880 C   0  0  0  0  0  0  0  0  0  0  0  0
    8.2320   11.9940   25.1370 C   0  0  0  0  0  0  0  0  0  0  0  0
    8.2750   10.6670   24.6760 C   0  0  0  0  0  0  0  0  0  0  0  0
    9.2760   10.3930   23.7750 O   0  0  0  0  0  0  0  0  0  0  0  0
    9.4370    9.0290   23.3370 C   0  0  0  0  0  0  0  0  0  0  0  0
    7.2050   12.3420   26.0240 C   0  0  0  0  0  0  0  0  0  0  0  0
    7.1200   13.9660   26.6480 Cl  0  0  0  0  0  0  0  0  0  0  0  0
    6.2920   11.4230   26.4840 C   0  0  0  0  0  0  0  0  0  0  0  0
    6.3860   10.1140   26.0610 C   0  0  0  0  0  0  0  0  0  0  0  0
    7.3660    9.7290   25.1500 C   0  0  0  0  0  0  0  0  0  0  0  0
 16 15  1  0
 15 14  1  0
 14 21  2  0
 21 20  1  0
 20 19  2  0
 19 17  1  0
 18 17  1  0
 17 13  2  0
 14 13  1  0
 13 12  1  0
 12 10  1  0
 11 10  2  0
 10  9  1  0
  9  7  1  0
  7  6  1  0
  6  5  1  0
  5  4  1  0
  4  2  1  6
  3  2  1  0
  2  1  2  0
  8  4  1  0
  9  8  1  0
M  END
>  <id>  (226) 
226

>  <inchikey>  (226) 
NHPQEFHMDYOTOA-SNVBAGLBSA-N

>  <alias>  (226) 
A3858b

>  <smiles>  (226) 
COc1cccc(Cl)c1CC(=O)N1CCC[C@@H](C(N)=O)C1

>  <path>  (226) 
/opt/xchem-fragalysis-2/maxwin/BulkDock/TARGETS/A71EV2A/aligned_files/A3858b/A3858b.pdb

>  <distance_score>  (226) 
None

>  <energy_score>  (226) 
None

>  <compound>  (226) 
NHPQEFHMDYOTOA-UHFFFAOYSA-N

>  <compound_id>  (226) 
182

>  <target>  (226) 
A71EV2A

>  <tags>  (226) 
['GOOD count', 'MEDIOCRE count', '[Other] S1 site', 'hits', '[Other] S2 site', '[Other] P3 compound design', 'Main status', '[Other] upload_061224', 'BAD count']

>  <inspirations>  (226) 
None

>  <subsites>  (226) 
None

>  <reference>  (226) 


>  <observation_longname>  (226) 
A71EV2A-x3858_C_201_v1

>  <ConformerSites alias>  (226) 
1b - A0911/A/147

>  <CanonSites alias>  (226) 
1 - Active Site

>  <CrystalformSites alias>  (226) 
F6n - A3858/C/201

>  <Quatassemblies alias>  (226) 
A1 - monomer

>  <Crystalforms alias>  (226) 
F6 - short_long_x4018

>  <ConformerSites upload name>  (226) 
1b - A71EV2A-x0911/A/147

>  <CanonSites upload name>  (226) 
1 - A71EV2A-x0911/A/147/1

>  <CrystalformSites upload name>  (226) 
F6n - A71EV2A-x3858/C/201/1

>  <Quatassemblies upload name>  (226) 
A1 - monomer

>  <Crystalforms upload name>  (226) 
F6 - short_long_x4018

>  <ConformerSites short tag>  (226) 
1b - A0911/A/147

>  <CanonSites short tag>  (226) 
1 - A0911/A/147/1

>  <CrystalformSites short tag>  (226) 
F6n - A3858/C/201

>  <Quatassemblies short tag>  (226) 
A1 - monomer

>  <Crystalforms short tag>  (226) 
F6 - short_long_x4018

>  <Centroid res>  (226) 
A71EV2A-x0911/A/133/A_v1

>  <Experiment code>  (226) 
A71EV2A-x3858

>  <Pose>  (226) 
A3858a

$$$$
A3867a
     RDKit          3D

 20 21  0  0  0  0  0  0  0  0999 V2000
   11.0070   16.6880   19.0520 O   0  0  0  0  0  0  0  0  0  0  0  0
   11.3230   15.5280   19.4300 C   0  0  0  0  0  0  0  0  0  0  0  0
   11.1690   14.4650   18.6430 N   0  0  0  0  0  0  0  0  0  0  0  0
   11.8570   15.3190   20.8180 C   0  0  0  0  0  0  0  0  0  0  0  0
   12.8730   16.1560   21.3260 C   0  0  0  0  0  0  0  0  0  0  0  0
   13.5540   17.2070   20.4880 C   0  0  0  0  0  0  0  0  0  0  0  0
   13.2610   15.9810   22.6550 C   0  0  0  0  0  0  0  0  0  0  0  0
   12.6920   15.0140   23.4620 C   0  0  0  0  0  0  0  0  0  0  0  0
   11.2970   14.3270   21.6390 C   0  0  0  0  0  0  0  0  0  0  0  0
   11.7050   14.1720   22.9630 C   0  0  0  0  0  0  0  0  0  0  0  0
   11.1020   13.1540   23.8810 C   0  0  0  0  0  0  0  0  0  0  0  0
   11.7420   12.7000   24.8230 O   0  0  0  0  0  0  0  0  0  0  0  0
    9.8120   12.8100   23.6430 N   0  0  0  0  0  0  0  0  0  0  0  0
    8.9930   12.0050   24.4820 C   0  0  0  0  0  0  0  0  0  0  0  0
    9.0130   10.6030   24.3610 C   0  0  0  0  0  0  0  0  0  0  0  0
    9.9550    9.8860   23.4280 C   0  0  0  0  0  0  0  0  0  0  0  0
    8.1170   12.6290   25.3720 C   0  0  0  0  0  0  0  0  0  0  0  0
    7.2560   11.8630   26.1430 C   0  0  0  0  0  0  0  0  0  0  0  0
    7.2640   10.4940   26.0320 C   0  0  0  0  0  0  0  0  0  0  0  0
    8.1260    9.8720   25.1480 C   0  0  0  0  0  0  0  0  0  0  0  0
 16 15  1  0
 15 20  2  0
 20 19  1  0
 19 18  2  0
 18 17  1  0
 17 14  2  0
 15 14  1  0
 14 13  1  0
 13 11  1  0
 12 11  2  0
 11 10  1  0
 10  8  1  0
  8  7  2  0
  7  5  1  0
  6  5  1  0
  5  4  2  0
  4  2  1  0
  3  2  1  0
  2  1  2  0
  9  4  1  0
 10  9  2  0
M  END
>  <id>  (227) 
227

>  <inchikey>  (227) 
MQPWOZBWSFDFOW-UHFFFAOYSA-N

>  <alias>  (227) 
A3867a

>  <smiles>  (227) 
Cc1ccccc1NC(=O)c1ccc(C)c(C(N)=O)c1

>  <path>  (227) 
/opt/xchem-fragalysis-2/maxwin/BulkDock/TARGETS/A71EV2A/aligned_files/A3867a/A3867a.pdb

>  <distance_score>  (227) 
None

>  <energy_score>  (227) 
None

>  <compound>  (227) 
MQPWOZBWSFDFOW-UHFFFAOYSA-N

>  <compound_id>  (227) 
183

>  <target>  (227) 
A71EV2A

>  <tags>  (227) 
['GOOD count', 'MEDIOCRE count', '[Other] S1 site', 'hits', '[Other] S2 site', '[Other] P3 compound design', 'Main status', '[Other] upload_061224', 'BAD count']

>  <inspirations>  (227) 
None

>  <subsites>  (227) 
None

>  <reference>  (227) 


>  <observation_longname>  (227) 
A71EV2A-x3867_A_201_v1

>  <ConformerSites alias>  (227) 
1b - A0911/A/147

>  <CanonSites alias>  (227) 
1 - Active Site

>  <CrystalformSites alias>  (227) 
F4f - A0836/A/301

>  <Quatassemblies alias>  (227) 
A1 - monomer

>  <Crystalforms alias>  (227) 
F4 - A71_2A_new_model_x2721_4.1_ref3

>  <ConformerSites upload name>  (227) 
1b - A71EV2A-x0911/A/147

>  <CanonSites upload name>  (227) 
1 - A71EV2A-x0911/A/147/1

>  <CrystalformSites upload name>  (227) 
F4f - A71EV2A-x0836/A/301/1

>  <Quatassemblies upload name>  (227) 
A1 - monomer

>  <Crystalforms upload name>  (227) 
F4 - A71_2A_new_model_x2721_4.1_ref3

>  <ConformerSites short tag>  (227) 
1b - A0911/A/147

>  <CanonSites short tag>  (227) 
1 - A0911/A/147/1

>  <CrystalformSites short tag>  (227) 
F4f - A0836/A/301

>  <Quatassemblies short tag>  (227) 
A1 - monomer

>  <Crystalforms short tag>  (227) 
F4 - A71_2A_new_model_x2721_4.1_ref3

>  <Centroid res>  (227) 
A71EV2A-x0911/A/133/A_v1

>  <Experiment code>  (227) 
A71EV2A-x3867

>  <Pose>  (227) 
A3867a

$$$$
A3868a
     RDKit          3D

 21 22  0  0  0  0  0  0  0  0999 V2000
   10.5760   16.7720   19.1710 O   0  0  0  0  0  0  0  0  0  0  0  0
   10.9050   15.6110   19.4300 C   0  0  0  0  0  0  0  0  0  0  0  0
   11.1470   14.7040   18.4940 N   0  0  0  0  0  0  0  0  0  0  0  0
   11.0830   15.1520   20.8680 C   0  0  1  0  0  0  0  0  0  0  0  0
   11.9630   16.1410   21.6550 C   0  0  0  0  0  0  0  0  0  0  0  0
   12.1240   15.7060   23.1140 C   0  0  0  0  0  0  0  0  0  0  0  0
   10.7750   15.5650   23.7770 C   0  0  0  0  0  0  0  0  0  0  0  0
    9.7370   15.0760   21.5900 C   0  0  0  0  0  0  0  0  0  0  0  0
    9.9140   14.6740   22.9900 N   0  0  0  0  0  0  0  0  0  0  0  0
    9.5090   13.5280   23.6210 C   0  0  0  0  0  0  0  0  0  0  0  0
   10.2780   12.9170   24.3510 O   0  0  0  0  0  0  0  0  0  0  0  0
    8.1950   13.1270   23.4810 N   0  0  0  0  0  0  0  0  0  0  0  0
    7.4130   13.6440   22.3610 C   0  0  0  0  0  0  0  0  0  0  0  0
    7.5460   12.1830   24.3500 C   0  0  0  0  0  0  0  0  0  0  0  0
    7.9060   10.8300   24.3290 C   0  0  0  0  0  0  0  0  0  0  0  0
    9.0220   10.5190   23.5910 O   0  0  0  0  0  0  0  0  0  0  0  0
    9.3900    9.1410   23.4700 C   0  0  0  0  0  0  0  0  0  0  0  0
    6.5160   12.6220   25.1750 C   0  0  0  0  0  0  0  0  0  0  0  0
    5.8310   11.7070   25.9610 C   0  0  0  0  0  0  0  0  0  0  0  0
    6.1550   10.3670   25.9140 C   0  0  0  0  0  0  0  0  0  0  0  0
    7.1870    9.9220   25.0940 C   0  0  0  0  0  0  0  0  0  0  0  0
 17 16  1  0
 16 15  1  0
 15 21  2  0
 21 20  1  0
 20 19  2  0
 19 18  1  0
 18 14  2  0
 15 14  1  0
 14 12  1  0
 13 12  1  0
 12 10  1  0
 11 10  2  0
 10  9  1  0
  9  7  1  0
  7  6  1  0
  6  5  1  0
  5  4  1  0
  4  2  1  6
  3  2  1  0
  2  1  2  0
  8  4  1  0
  9  8  1  0
M  END
>  <id>  (228) 
228

>  <inchikey>  (228) 
BAFLNQPOAQUAMV-NSHDSACASA-N

>  <alias>  (228) 
A3868a

>  <smiles>  (228) 
COc1ccccc1N(C)C(=O)N1CCC[C@H](C(N)=O)C1

>  <path>  (228) 
/opt/xchem-fragalysis-2/maxwin/BulkDock/TARGETS/A71EV2A/aligned_files/A3868a/A3868a.pdb

>  <distance_score>  (228) 
None

>  <energy_score>  (228) 
None

>  <compound>  (228) 
BAFLNQPOAQUAMV-UHFFFAOYSA-N

>  <compound_id>  (228) 
184

>  <target>  (228) 
A71EV2A

>  <tags>  (228) 
['GOOD count', 'MEDIOCRE count', '[Other] S1 site', 'hits', '[Other] S2 site', '[Other] P3 compound design', '[Series] Piperidine series', 'Main status', '[Other] upload_061224', 'BAD count', '[Other] S3 site']

>  <inspirations>  (228) 
None

>  <subsites>  (228) 
None

>  <reference>  (228) 


>  <observation_longname>  (228) 
A71EV2A-x3868_A_201_v1

>  <ConformerSites alias>  (228) 
1b - A0911/A/147

>  <CanonSites alias>  (228) 
1 - Active Site

>  <CrystalformSites alias>  (228) 
F8h - A0884/A/147

>  <Quatassemblies alias>  (228) 
A1 - monomer

>  <Crystalforms alias>  (228) 
F8 - A712A_x4271_2.1_refmac1_1st_ref

>  <ConformerSites upload name>  (228) 
1b - A71EV2A-x0911/A/147

>  <CanonSites upload name>  (228) 
1 - A71EV2A-x0911/A/147/1

>  <CrystalformSites upload name>  (228) 
F8h - A71EV2A-x0884/A/147/1

>  <Quatassemblies upload name>  (228) 
A1 - monomer

>  <Crystalforms upload name>  (228) 
F8 - A712A_x4271_2.1_refmac1_1st_ref

>  <ConformerSites short tag>  (228) 
1b - A0911/A/147

>  <CanonSites short tag>  (228) 
1 - A0911/A/147/1

>  <CrystalformSites short tag>  (228) 
F8h - A0884/A/147

>  <Quatassemblies short tag>  (228) 
A1 - monomer

>  <Crystalforms short tag>  (228) 
F8 - A712A_x4271_2.1_refmac1_1st_ref

>  <Centroid res>  (228) 
A71EV2A-x0911/A/133/A_v1

>  <Experiment code>  (228) 
A71EV2A-x3868

>  <Pose>  (228) 
A3868a

$$$$
A3869a
     RDKit          3D

 20 21  0  0  0  0  0  0  0  0999 V2000
   10.2100   16.8620   19.1130 O   0  0  0  0  0  0  0  0  0  0  0  0
   10.6050   15.7930   19.5860 C   0  0  0  0  0  0  0  0  0  0  0  0
   11.0370   14.7890   18.8270 N   0  0  0  0  0  0  0  0  0  0  0  0
   10.6430   15.5710   21.0900 C   0  0  2  0  0  0  0  0  0  0  0  0
   12.0880   15.5590   21.6050 C   0  0  0  0  0  0  0  0  0  0  0  0
   12.1320   15.2810   23.1050 C   0  0  0  0  0  0  0  0  0  0  0  0
   11.4650   13.9500   23.4180 C   0  0  0  0  0  0  0  0  0  0  0  0
    9.9520   14.2490   21.4390 C   0  0  0  0  0  0  0  0  0  0  0  0
   10.1100   13.8550   22.8460 N   0  0  0  0  0  0  0  0  0  0  0  0
    9.0750   13.2410   23.4700 C   0  0  0  0  0  0  0  0  0  0  0  0
    8.0100   13.0190   22.9050 O   0  0  0  0  0  0  0  0  0  0  0  0
    9.3140   12.7440   24.8860 C   0  0  0  0  0  0  0  0  0  0  0  0
    8.3440   11.6450   25.2650 C   0  0  0  0  0  0  0  0  0  0  0  0
    8.3780   10.3390   24.7270 C   0  0  0  0  0  0  0  0  0  0  0  0
    9.3740   10.1210   23.8350 O   0  0  0  0  0  0  0  0  0  0  0  0
    9.5740    8.7890   23.3580 C   0  0  0  0  0  0  0  0  0  0  0  0
    7.3300   11.8970   26.1880 C   0  0  0  0  0  0  0  0  0  0  0  0
    6.4370   10.9030   26.5360 C   0  0  0  0  0  0  0  0  0  0  0  0
    6.5720    9.6700   25.9500 C   0  0  0  0  0  0  0  0  0  0  0  0
    7.5250    9.3750   25.0490 N   0  0  0  0  0  0  0  0  0  0  0  0
 16 15  1  0
 15 14  1  0
 14 20  2  0
 20 19  1  0
 19 18  2  0
 18 17  1  0
 17 13  2  0
 14 13  1  0
 13 12  1  0
 12 10  1  0
 11 10  2  0
 10  9  1  0
  9  7  1  0
  7  6  1  0
  6  5  1  0
  5  4  1  0
  4  2  1  6
  3  2  1  0
  2  1  2  0
  8  4  1  0
  9  8  1  0
M  END
>  <id>  (229) 
229

>  <inchikey>  (229) 
DPQNQDXNIINHJH-LLVKDONJSA-N

>  <alias>  (229) 
A3869a

>  <smiles>  (229) 
COc1ncccc1CC(=O)N1CCC[C@@H](C(N)=O)C1

>  <path>  (229) 
/opt/xchem-fragalysis-2/maxwin/BulkDock/TARGETS/A71EV2A/aligned_files/A3869a/A3869a.pdb

>  <distance_score>  (229) 
None

>  <energy_score>  (229) 
None

>  <compound>  (229) 
DPQNQDXNIINHJH-UHFFFAOYSA-N

>  <compound_id>  (229) 
120

>  <target>  (229) 
A71EV2A

>  <tags>  (229) 
['GOOD count', 'MEDIOCRE count', '[Other] S1 site', 'hits', '[Other] S2 site', '[Other] P3 compound design', 'Main status', '[Other] upload_061224', 'BAD count']

>  <inspirations>  (229) 
None

>  <subsites>  (229) 
None

>  <reference>  (229) 


>  <observation_longname>  (229) 
A71EV2A-x3869_A_201_v1

>  <ConformerSites alias>  (229) 
1b - A0911/A/147

>  <CanonSites alias>  (229) 
1 - Active Site

>  <CrystalformSites alias>  (229) 
F8h - A0884/A/147

>  <Quatassemblies alias>  (229) 
A1 - monomer

>  <Crystalforms alias>  (229) 
F8 - A712A_x4271_2.1_refmac1_1st_ref

>  <ConformerSites upload name>  (229) 
1b - A71EV2A-x0911/A/147

>  <CanonSites upload name>  (229) 
1 - A71EV2A-x0911/A/147/1

>  <CrystalformSites upload name>  (229) 
F8h - A71EV2A-x0884/A/147/1

>  <Quatassemblies upload name>  (229) 
A1 - monomer

>  <Crystalforms upload name>  (229) 
F8 - A712A_x4271_2.1_refmac1_1st_ref

>  <ConformerSites short tag>  (229) 
1b - A0911/A/147

>  <CanonSites short tag>  (229) 
1 - A0911/A/147/1

>  <CrystalformSites short tag>  (229) 
F8h - A0884/A/147

>  <Quatassemblies short tag>  (229) 
A1 - monomer

>  <Crystalforms short tag>  (229) 
F8 - A712A_x4271_2.1_refmac1_1st_ref

>  <Centroid res>  (229) 
A71EV2A-x0911/A/133/A_v1

>  <Experiment code>  (229) 
A71EV2A-x3869

>  <Pose>  (229) 
A3869a

$$$$
A3883a
     RDKit          3D

 22 23  0  0  0  0  0  0  0  0999 V2000
   10.2520   16.5820   19.0510 O   0  0  0  0  0  0  0  0  0  0  0  0
   10.6550   15.4380   19.3070 C   0  0  0  0  0  0  0  0  0  0  0  0
   11.0780   14.5940   18.3790 N   0  0  0  0  0  0  0  0  0  0  0  0
   10.6890   14.9220   20.7340 C   0  0  1  0  0  0  0  0  0  0  0  0
   11.7720   15.6270   21.5860 C   0  0  0  0  0  0  0  0  0  0  0  0
   11.8050   15.0220   22.9860 C   0  0  0  0  0  0  0  0  0  0  0  0
   10.4390   15.1200   23.6470 C   0  0  0  0  0  0  0  0  0  0  0  0
    9.3340   15.0720   21.4210 C   0  0  0  0  0  0  0  0  0  0  0  0
    9.3900   14.5360   22.7890 N   0  0  0  0  0  0  0  0  0  0  0  0
    8.4580   13.6610   23.2300 C   0  0  0  0  0  0  0  0  0  0  0  0
    7.5540   13.2860   22.5140 O   0  0  0  0  0  0  0  0  0  0  0  0
    8.4770   13.2910   24.7290 C   0  0  1  0  0  0  0  0  0  0  0  0
    8.2390   14.4170   25.5810 O   0  0  0  0  0  0  0  0  0  0  0  0
    7.1770   15.2490   25.1360 C   0  0  0  0  0  0  0  0  0  0  0  0
    7.5530   12.1410   25.0790 C   0  0  0  0  0  0  0  0  0  0  0  0
    7.8300   10.8370   24.6740 C   0  0  0  0  0  0  0  0  0  0  0  0
    8.9180   10.6970   23.8480 O   0  0  0  0  0  0  0  0  0  0  0  0
    9.2880    9.3640   23.4410 C   0  0  0  0  0  0  0  0  0  0  0  0
    6.4770   12.3490   25.9390 C   0  0  0  0  0  0  0  0  0  0  0  0
    5.7010   11.2980   26.3920 C   0  0  0  0  0  0  0  0  0  0  0  0
    5.9770   10.0210   25.9810 C   0  0  0  0  0  0  0  0  0  0  0  0
    7.0430    9.7790   25.1230 C   0  0  0  0  0  0  0  0  0  0  0  0
 18 17  1  0
 17 16  1  0
 16 22  2  0
 22 21  1  0
 21 20  2  0
 20 19  1  0
 19 15  2  0
 16 15  1  0
 15 12  1  0
 12 13  1  1
 14 13  1  0
 12 10  1  0
 11 10  2  0
 10  9  1  0
  9  7  1  0
  7  6  1  0
  6  5  1  0
  5  4  1  0
  4  2  1  6
  3  2  1  0
  2  1  2  0
  8  4  1  0
  9  8  1  0
M  END
>  <id>  (230) 
230

>  <inchikey>  (230) 
SGKREISFYQPEPI-FZMZJTMJSA-N

>  <alias>  (230) 
A3883a

>  <smiles>  (230) 
COc1ccccc1[C@H](OC)C(=O)N1CCC[C@H](C(N)=O)C1

>  <path>  (230) 
/opt/xchem-fragalysis-2/maxwin/BulkDock/TARGETS/A71EV2A/aligned_files/A3883a/A3883a.pdb

>  <distance_score>  (230) 
None

>  <energy_score>  (230) 
None

>  <compound>  (230) 
SGKREISFYQPEPI-UHFFFAOYSA-N

>  <compound_id>  (230) 
185

>  <target>  (230) 
A71EV2A

>  <tags>  (230) 
['GOOD count', 'MEDIOCRE count', '[Other] S1 site', 'hits', '[Other] S2 site', '[Other] P3 compound design', '[Series] Piperidine series', 'Main status', '[Other] upload_061224', 'BAD count']

>  <inspirations>  (230) 
None

>  <subsites>  (230) 
None

>  <reference>  (230) 


>  <observation_longname>  (230) 
A71EV2A-x3883_A_201_v1

>  <ConformerSites alias>  (230) 
1b - A0911/A/147

>  <CanonSites alias>  (230) 
1 - Active Site

>  <CrystalformSites alias>  (230) 
F5i - A3175/A/201

>  <Quatassemblies alias>  (230) 
A1 - monomer

>  <Crystalforms alias>  (230) 
F5 - A71EV2A_x3178_new_long_dials_041024

>  <ConformerSites upload name>  (230) 
1b - A71EV2A-x0911/A/147

>  <CanonSites upload name>  (230) 
1 - A71EV2A-x0911/A/147/1

>  <CrystalformSites upload name>  (230) 
F5i - A71EV2A-x3175/A/201/1

>  <Quatassemblies upload name>  (230) 
A1 - monomer

>  <Crystalforms upload name>  (230) 
F5 - A71EV2A_x3178_new_long_dials_041024

>  <ConformerSites short tag>  (230) 
1b - A0911/A/147

>  <CanonSites short tag>  (230) 
1 - A0911/A/147/1

>  <CrystalformSites short tag>  (230) 
F5i - A3175/A/201

>  <Quatassemblies short tag>  (230) 
A1 - monomer

>  <Crystalforms short tag>  (230) 
F5 - A71EV2A_x3178_new_long_dials_041024

>  <Centroid res>  (230) 
A71EV2A-x0911/A/133/A_v1

>  <Experiment code>  (230) 
A71EV2A-x3883

>  <Pose>  (230) 
A3883a

$$$$
A3884a
     RDKit          3D

 28 29  0  0  0  0  0  0  0  0999 V2000
   10.3300   16.6830   19.2400 O   0  0  0  0  0  0  0  0  0  0  0  0
   10.7260   15.5320   19.4500 C   0  0  0  0  0  0  0  0  0  0  0  0
   11.0260   14.6920   18.4740 N   0  0  0  0  0  0  0  0  0  0  0  0
   10.8150   14.9730   20.8590 C   0  0  1  0  0  0  0  0  0  0  0  0
   11.9370   15.6460   21.6750 C   0  0  0  0  0  0  0  0  0  0  0  0
   12.0120   15.0330   23.0750 C   0  0  0  0  0  0  0  0  0  0  0  0
   10.6650   15.1240   23.7630 C   0  0  0  0  0  0  0  0  0  0  0  0
    9.4740   15.0920   21.5830 C   0  0  0  0  0  0  0  0  0  0  0  0
    9.5770   14.5590   22.9450 N   0  0  0  0  0  0  0  0  0  0  0  0
    8.6450   13.6960   23.3990 C   0  0  0  0  0  0  0  0  0  0  0  0
    7.7150   13.3450   22.6950 O   0  0  0  0  0  0  0  0  0  0  0  0
    8.7200   13.2430   24.9060 C   0  0  1  0  0  0  0  0  0  0  0  0
    8.5290   14.3500   25.8380 N   0  0  0  0  0  0  0  0  0  0  0  0
    9.4600   14.6390   26.7670 C   0  0  0  0  0  0  0  0  0  0  0  0
    9.0660   15.7000   27.4690 O   0  0  0  0  0  0  0  0  0  0  0  0
    9.9490   16.3080   28.4970 C   0  0  0  0  0  0  0  0  0  0  0  0
   10.2660   15.3700   29.6500 C   0  0  0  0  0  0  0  0  0  0  0  0
   11.2060   16.7670   27.7850 C   0  0  0  0  0  0  0  0  0  0  0  0
    9.1350   17.4970   28.9540 C   0  0  0  0  0  0  0  0  0  0  0  0
   10.4750   14.0030   26.9650 O   0  0  0  0  0  0  0  0  0  0  0  0
    7.7560   12.1010   25.1740 C   0  0  0  0  0  0  0  0  0  0  0  0
    8.0050   10.8340   24.6470 C   0  0  0  0  0  0  0  0  0  0  0  0
    9.1260   10.7330   23.8610 O   0  0  0  0  0  0  0  0  0  0  0  0
    9.5760    9.4220   23.4940 C   0  0  0  0  0  0  0  0  0  0  0  0
    6.6520   12.2740   26.0030 C   0  0  0  0  0  0  0  0  0  0  0  0
    5.8140   11.2130   26.2840 C   0  0  0  0  0  0  0  0  0  0  0  0
    6.0640    9.9810   25.7550 C   0  0  0  0  0  0  0  0  0  0  0  0
    7.1640    9.7750   24.9290 C   0  0  0  0  0  0  0  0  0  0  0  0
 24 23  1  0
 23 22  1  0
 22 28  2  0
 28 27  1  0
 27 26  2  0
 26 25  1  0
 25 21  2  0
 22 21  1  0
 21 12  1  0
 12 13  1  1
 14 13  1  0
 20 14  2  0
 15 14  1  0
 16 15  1  0
 19 16  1  0
 18 16  1  0
 17 16  1  0
 12 10  1  0
 11 10  2  0
 10  9  1  0
  9  7  1  0
  7  6  1  0
  6  5  1  0
  5  4  1  0
  4  2  1  6
  3  2  1  0
  2  1  2  0
  8  4  1  0
  9  8  1  0
M  END
>  <id>  (231) 
231

>  <inchikey>  (231) 
AGYHXRSAXIDCES-BBRMVZONSA-N

>  <alias>  (231) 
A3884a

>  <smiles>  (231) 
COc1ccccc1[C@H](NC(=O)OC(C)(C)C)C(=O)N1CCC[C@H](C(N)=O)C1

>  <path>  (231) 
/opt/xchem-fragalysis-2/maxwin/BulkDock/TARGETS/A71EV2A/aligned_files/A3884a/A3884a_hippo.pdb

>  <distance_score>  (231) 
None

>  <energy_score>  (231) 
None

>  <compound>  (231) 
AGYHXRSAXIDCES-UHFFFAOYSA-N

>  <compound_id>  (231) 
186

>  <target>  (231) 
A71EV2A

>  <tags>  (231) 
['GOOD count', "[Other] S1' site", 'MEDIOCRE count', '[Other] S1 site', 'hits', '[Other] S2 site', '[Other] P3 compound design', '[Series] Piperidine series', 'Main status', '[Other] upload_061224', 'BAD count']

>  <inspirations>  (231) 
None

>  <subsites>  (231) 
None

>  <reference>  (231) 


>  <observation_longname>  (231) 
A71EV2A-x3884_A_201_v1

>  <ConformerSites alias>  (231) 
1b - A0911/A/147

>  <CanonSites alias>  (231) 
1 - Active Site

>  <CrystalformSites alias>  (231) 
F6m - A3858/A/201

>  <Quatassemblies alias>  (231) 
A1 - monomer

>  <Crystalforms alias>  (231) 
F6 - short_long_x4018

>  <ConformerSites upload name>  (231) 
1b - A71EV2A-x0911/A/147

>  <CanonSites upload name>  (231) 
1 - A71EV2A-x0911/A/147/1

>  <CrystalformSites upload name>  (231) 
F6m - A71EV2A-x3858/A/201/1

>  <Quatassemblies upload name>  (231) 
A1 - monomer

>  <Crystalforms upload name>  (231) 
F6 - short_long_x4018

>  <ConformerSites short tag>  (231) 
1b - A0911/A/147

>  <CanonSites short tag>  (231) 
1 - A0911/A/147/1

>  <CrystalformSites short tag>  (231) 
F6m - A3858/A/201

>  <Quatassemblies short tag>  (231) 
A1 - monomer

>  <Crystalforms short tag>  (231) 
F6 - short_long_x4018

>  <Centroid res>  (231) 
A71EV2A-x0911/A/133/A_v1

>  <Experiment code>  (231) 
A71EV2A-x3884

>  <Pose>  (231) 
A3884a

$$$$
A3884b
     RDKit          3D

 28 29  0  0  0  0  0  0  0  0999 V2000
   10.4160   16.7410   19.2460 O   0  0  0  0  0  0  0  0  0  0  0  0
   10.8050   15.5680   19.4380 C   0  0  0  0  0  0  0  0  0  0  0  0
   11.0530   14.7110   18.4550 N   0  0  0  0  0  0  0  0  0  0  0  0
   10.9470   15.0090   20.8430 C   0  0  1  0  0  0  0  0  0  0  0  0
   12.0690   15.7100   21.6270 C   0  0  0  0  0  0  0  0  0  0  0  0
   12.1650   15.1310   23.0410 C   0  0  0  0  0  0  0  0  0  0  0  0
   10.8130   15.2000   23.7440 C   0  0  0  0  0  0  0  0  0  0  0  0
    9.6200   15.1190   21.5840 C   0  0  0  0  0  0  0  0  0  0  0  0
    9.7400   14.5820   22.9450 N   0  0  0  0  0  0  0  0  0  0  0  0
    8.8160   13.7020   23.3960 C   0  0  0  0  0  0  0  0  0  0  0  0
    7.8710   13.3470   22.7030 O   0  0  0  0  0  0  0  0  0  0  0  0
    8.8940   13.2550   24.8900 C   0  0  1  0  0  0  0  0  0  0  0  0
    8.6770   14.3680   25.8020 N   0  0  0  0  0  0  0  0  0  0  0  0
    9.5980   14.6670   26.7420 C   0  0  0  0  0  0  0  0  0  0  0  0
    9.1870   15.7230   27.4460 O   0  0  0  0  0  0  0  0  0  0  0  0
   10.0520   16.3310   28.4820 C   0  0  0  0  0  0  0  0  0  0  0  0
   10.2450   15.3980   29.6540 C   0  0  0  0  0  0  0  0  0  0  0  0
    9.2300   17.5380   28.8590 C   0  0  0  0  0  0  0  0  0  0  0  0
   11.3760   16.7440   27.8730 C   0  0  0  0  0  0  0  0  0  0  0  0
   10.6320   14.0570   26.9230 O   0  0  0  0  0  0  0  0  0  0  0  0
    7.9180   12.1140   25.1610 C   0  0  0  0  0  0  0  0  0  0  0  0
    8.1700   10.8460   24.6400 C   0  0  0  0  0  0  0  0  0  0  0  0
    9.3100   10.7430   23.8790 O   0  0  0  0  0  0  0  0  0  0  0  0
    9.7140    9.4330   23.4620 C   0  0  0  0  0  0  0  0  0  0  0  0
    6.8110   12.2780   25.9890 C   0  0  0  0  0  0  0  0  0  0  0  0
    5.9660   11.2210   26.2680 C   0  0  0  0  0  0  0  0  0  0  0  0
    6.2140    9.9870   25.7410 C   0  0  0  0  0  0  0  0  0  0  0  0
    7.3220    9.7830   24.9220 C   0  0  0  0  0  0  0  0  0  0  0  0
 24 23  1  0
 23 22  1  0
 22 28  2  0
 28 27  1  0
 27 26  2  0
 26 25  1  0
 25 21  2  0
 22 21  1  0
 21 12  1  0
 12 13  1  1
 14 13  1  0
 20 14  2  0
 15 14  1  0
 16 15  1  0
 19 16  1  0
 18 16  1  0
 17 16  1  0
 12 10  1  0
 11 10  2  0
 10  9  1  0
  9  7  1  0
  7  6  1  0
  6  5  1  0
  5  4  1  0
  4  2  1  6
  3  2  1  0
  2  1  2  0
  8  4  1  0
  9  8  1  0
M  END
>  <id>  (232) 
232

>  <inchikey>  (232) 
AGYHXRSAXIDCES-BBRMVZONSA-N

>  <alias>  (232) 
A3884b

>  <smiles>  (232) 
COc1ccccc1[C@H](NC(=O)OC(C)(C)C)C(=O)N1CCC[C@H](C(N)=O)C1

>  <path>  (232) 
/opt/xchem-fragalysis-2/maxwin/BulkDock/TARGETS/A71EV2A/aligned_files/A3884b/A3884b.pdb

>  <distance_score>  (232) 
None

>  <energy_score>  (232) 
None

>  <compound>  (232) 
AGYHXRSAXIDCES-UHFFFAOYSA-N

>  <compound_id>  (232) 
186

>  <target>  (232) 
A71EV2A

>  <tags>  (232) 
['GOOD count', "[Other] S1' site", 'MEDIOCRE count', '[Other] S1 site', 'hits', '[Other] S2 site', '[Other] P3 compound design', '[Series] Piperidine series', 'Main status', '[Other] upload_061224', 'BAD count']

>  <inspirations>  (232) 
None

>  <subsites>  (232) 
None

>  <reference>  (232) 


>  <observation_longname>  (232) 
A71EV2A-x3884_C_201_v1

>  <ConformerSites alias>  (232) 
1b - A0911/A/147

>  <CanonSites alias>  (232) 
1 - Active Site

>  <CrystalformSites alias>  (232) 
F6n - A3858/C/201

>  <Quatassemblies alias>  (232) 
A1 - monomer

>  <Crystalforms alias>  (232) 
F6 - short_long_x4018

>  <ConformerSites upload name>  (232) 
1b - A71EV2A-x0911/A/147

>  <CanonSites upload name>  (232) 
1 - A71EV2A-x0911/A/147/1

>  <CrystalformSites upload name>  (232) 
F6n - A71EV2A-x3858/C/201/1

>  <Quatassemblies upload name>  (232) 
A1 - monomer

>  <Crystalforms upload name>  (232) 
F6 - short_long_x4018

>  <ConformerSites short tag>  (232) 
1b - A0911/A/147

>  <CanonSites short tag>  (232) 
1 - A0911/A/147/1

>  <CrystalformSites short tag>  (232) 
F6n - A3858/C/201

>  <Quatassemblies short tag>  (232) 
A1 - monomer

>  <Crystalforms short tag>  (232) 
F6 - short_long_x4018

>  <Centroid res>  (232) 
A71EV2A-x0911/A/133/A_v1

>  <Experiment code>  (232) 
A71EV2A-x3884

>  <Pose>  (232) 
A3884a

$$$$
A3890a
     RDKit          3D

 21 22  0  0  0  0  0  0  0  0999 V2000
   10.1620   16.4590   19.0550 O   0  0  0  0  0  0  0  0  0  0  0  0
   10.6070   15.3420   19.3320 C   0  0  0  0  0  0  0  0  0  0  0  0
   11.0960   14.5130   18.4190 N   0  0  0  0  0  0  0  0  0  0  0  0
   10.5950   14.8230   20.7600 C   0  0  1  0  0  0  0  0  0  0  0  0
   11.7560   15.3980   21.5830 C   0  0  0  0  0  0  0  0  0  0  0  0
   11.8090   14.7370   22.9590 C   0  0  0  0  0  0  0  0  0  0  0  0
   10.4920   14.9190   23.6790 C   0  0  0  0  0  0  0  0  0  0  0  0
    9.2750   15.0250   21.5100 C   0  0  0  0  0  0  0  0  0  0  0  0
    9.3560   14.4510   22.8590 N   0  0  0  0  0  0  0  0  0  0  0  0
    8.3930   13.6230   23.3220 C   0  0  0  0  0  0  0  0  0  0  0  0
    7.4910   13.2390   22.6060 O   0  0  0  0  0  0  0  0  0  0  0  0
    8.3970   13.2600   24.8250 C   0  0  1  0  0  0  0  0  0  0  0  0
    8.0000   14.4720   25.5730 N   0  0  0  0  0  0  0  0  0  0  0  0
    7.5250   12.0650   25.1890 C   0  0  0  0  0  0  0  0  0  0  0  0
    7.8580   10.7710   24.7890 C   0  0  0  0  0  0  0  0  0  0  0  0
    8.9460   10.6740   23.9620 O   0  0  0  0  0  0  0  0  0  0  0  0
    9.3900    9.3680   23.5810 C   0  0  0  0  0  0  0  0  0  0  0  0
    6.4310   12.2260   26.0360 C   0  0  0  0  0  0  0  0  0  0  0  0
    5.7100   11.1370   26.4870 C   0  0  0  0  0  0  0  0  0  0  0  0
    6.0530    9.8760   26.0870 C   0  0  0  0  0  0  0  0  0  0  0  0
    7.1220    9.6810   25.2310 C   0  0  0  0  0  0  0  0  0  0  0  0
 17 16  1  0
 16 15  1  0
 15 21  2  0
 21 20  1  0
 20 19  2  0
 19 18  1  0
 18 14  2  0
 15 14  1  0
 14 12  1  0
 12 13  1  1
 12 10  1  0
 11 10  2  0
 10  9  1  0
  9  7  1  0
  7  6  1  0
  6  5  1  0
  5  4  1  0
  4  2  1  6
  3  2  1  0
  2  1  2  0
  8  4  1  0
  9  8  1  0
M  END
>  <id>  (233) 
233

>  <inchikey>  (233) 
CCGPYMIAYPDEFF-GWCFXTLKSA-N

>  <alias>  (233) 
A3890a

>  <smiles>  (233) 
COc1ccccc1[C@H](N)C(=O)N1CCC[C@H](C(N)=O)C1

>  <path>  (233) 
/opt/xchem-fragalysis-2/maxwin/BulkDock/TARGETS/A71EV2A/aligned_files/A3890a/A3890a.pdb

>  <distance_score>  (233) 
None

>  <energy_score>  (233) 
None

>  <compound>  (233) 
CCGPYMIAYPDEFF-UHFFFAOYSA-N

>  <compound_id>  (233) 
187

>  <target>  (233) 
A71EV2A

>  <tags>  (233) 
['GOOD count', 'MEDIOCRE count', '[Other] S1 site', 'hits', '[Other] S2 site', '[Other] P3 compound design', '[Series] Piperidine series', 'Main status', '[Other] upload_061224', 'BAD count']

>  <inspirations>  (233) 
None

>  <subsites>  (233) 
None

>  <reference>  (233) 


>  <observation_longname>  (233) 
A71EV2A-x3890_A_201_v1

>  <ConformerSites alias>  (233) 
1b - A0911/A/147

>  <CanonSites alias>  (233) 
1 - Active Site

>  <CrystalformSites alias>  (233) 
F5i - A3175/A/201

>  <Quatassemblies alias>  (233) 
A1 - monomer

>  <Crystalforms alias>  (233) 
F5 - A71EV2A_x3178_new_long_dials_041024

>  <ConformerSites upload name>  (233) 
1b - A71EV2A-x0911/A/147

>  <CanonSites upload name>  (233) 
1 - A71EV2A-x0911/A/147/1

>  <CrystalformSites upload name>  (233) 
F5i - A71EV2A-x3175/A/201/1

>  <Quatassemblies upload name>  (233) 
A1 - monomer

>  <Crystalforms upload name>  (233) 
F5 - A71EV2A_x3178_new_long_dials_041024

>  <ConformerSites short tag>  (233) 
1b - A0911/A/147

>  <CanonSites short tag>  (233) 
1 - A0911/A/147/1

>  <CrystalformSites short tag>  (233) 
F5i - A3175/A/201

>  <Quatassemblies short tag>  (233) 
A1 - monomer

>  <Crystalforms short tag>  (233) 
F5 - A71EV2A_x3178_new_long_dials_041024

>  <Centroid res>  (233) 
A71EV2A-x0911/A/133/A_v1

>  <Experiment code>  (233) 
A71EV2A-x3890

>  <Pose>  (233) 
A3890a

$$$$
A3895a
     RDKit          3D

 18 19  0  0  0  0  0  0  0  0999 V2000
   11.7080   15.4730   24.2950 O   0  0  0  0  0  0  0  0  0  0  0  0
   11.2000   15.2710   23.1990 C   0  0  0  0  0  0  0  0  0  0  0  0
   11.7440   15.6900   21.8610 C   0  0  0  0  0  0  0  0  0  0  0  0
   10.9710   14.7930   20.8970 C   0  0  2  0  0  0  0  0  0  0  0  0
   10.8360   15.3320   19.4800 C   0  0  0  0  0  0  0  0  0  0  0  0
   10.4440   16.4880   19.2670 O   0  0  0  0  0  0  0  0  0  0  0  0
   11.0940   14.4620   18.5080 N   0  0  0  0  0  0  0  0  0  0  0  0
    9.6090   14.6520   21.5860 C   0  0  0  0  0  0  0  0  0  0  0  0
    9.9860   14.7170   23.0020 N   0  0  0  0  0  0  0  0  0  0  0  0
    9.0460   14.3110   24.0530 C   0  0  0  0  0  0  0  0  0  0  0  0
    8.8620   12.8140   24.1580 C   0  0  0  0  0  0  0  0  0  0  0  0
    7.8460   12.3080   24.9700 C   0  0  0  0  0  0  0  0  0  0  0  0
    7.1020   13.2570   25.6260 O   0  0  0  0  0  0  0  0  0  0  0  0
    5.9910   12.8050   26.4190 C   0  0  0  0  0  0  0  0  0  0  0  0
    9.6780   11.9060   23.4770 C   0  0  0  0  0  0  0  0  0  0  0  0
    9.4760   10.5400   23.6030 C   0  0  0  0  0  0  0  0  0  0  0  0
    8.4680   10.0620   24.4110 C   0  0  0  0  0  0  0  0  0  0  0  0
    7.6480   10.9410   25.1010 C   0  0  0  0  0  0  0  0  0  0  0  0
 14 13  1  0
 13 12  1  0
 12 18  2  0
 18 17  1  0
 17 16  2  0
 16 15  1  0
 15 11  2  0
 12 11  1  0
 11 10  1  0
 10  9  1  0
  9  8  1  0
  8  4  1  0
  4  5  1  6
  7  5  1  0
  6  5  2  0
  4  3  1  0
  3  2  1  0
  9  2  1  0
  2  1  2  0
M  END
>  <id>  (234) 
234

>  <inchikey>  (234) 
OROYSOLBVZCRAY-JTQLQIEISA-N

>  <alias>  (234) 
A3895a

>  <smiles>  (234) 
COc1ccccc1CN1C[C@@H](C(N)=O)CC1=O

>  <path>  (234) 
/opt/xchem-fragalysis-2/maxwin/BulkDock/TARGETS/A71EV2A/aligned_files/A3895a/A3895a.pdb

>  <distance_score>  (234) 
None

>  <energy_score>  (234) 
None

>  <compound>  (234) 
OROYSOLBVZCRAY-UHFFFAOYSA-N

>  <compound_id>  (234) 
188

>  <target>  (234) 
A71EV2A

>  <tags>  (234) 
['GOOD count', 'MEDIOCRE count', '[Other] S1 site', 'hits', '[Other] S2 site', '[Other] Lactam Series', '[Other] P3 compound design', 'Main status', '[Other] upload_061224', 'BAD count']

>  <inspirations>  (234) 
None

>  <subsites>  (234) 
None

>  <reference>  (234) 


>  <observation_longname>  (234) 
A71EV2A-x3895_A_201_v1

>  <ConformerSites alias>  (234) 
1b - A0911/A/147

>  <CanonSites alias>  (234) 
1 - Active Site

>  <CrystalformSites alias>  (234) 
F2b - A0450/A/201

>  <Quatassemblies alias>  (234) 
A1 - monomer

>  <Crystalforms alias>  (234) 
F2 - A71_2A_open_small_cell

>  <ConformerSites upload name>  (234) 
1b - A71EV2A-x0911/A/147

>  <CanonSites upload name>  (234) 
1 - A71EV2A-x0911/A/147/1

>  <CrystalformSites upload name>  (234) 
F2b - A71EV2A-x0450/A/201/1

>  <Quatassemblies upload name>  (234) 
A1 - monomer

>  <Crystalforms upload name>  (234) 
F2 - A71_2A_open_small_cell

>  <ConformerSites short tag>  (234) 
1b - A0911/A/147

>  <CanonSites short tag>  (234) 
1 - A0911/A/147/1

>  <CrystalformSites short tag>  (234) 
F2b - A0450/A/201

>  <Quatassemblies short tag>  (234) 
A1 - monomer

>  <Crystalforms short tag>  (234) 
F2 - A71_2A_open_small_cell

>  <Centroid res>  (234) 
A71EV2A-x0911/A/133/A_v1

>  <Experiment code>  (234) 
A71EV2A-x3895

>  <Pose>  (234) 
A3895a

$$$$
A3897a
     RDKit          3D

 20 21  0  0  0  0  0  0  0  0999 V2000
   10.1860   16.9570   19.1200 O   0  0  0  0  0  0  0  0  0  0  0  0
   10.5480   15.8800   19.5930 C   0  0  0  0  0  0  0  0  0  0  0  0
   10.9020   14.8490   18.8220 N   0  0  0  0  0  0  0  0  0  0  0  0
   10.6250   15.6840   21.0980 C   0  0  2  0  0  0  0  0  0  0  0  0
   12.0650   15.7140   21.5970 C   0  0  0  0  0  0  0  0  0  0  0  0
   12.0980   15.5720   23.1160 C   0  0  0  0  0  0  0  0  0  0  0  0
   11.3990   14.2900   23.5770 C   0  0  0  0  0  0  0  0  0  0  0  0
    9.9330   14.3960   21.5360 C   0  0  0  0  0  0  0  0  0  0  0  0
   10.0630   14.1330   22.9750 N   0  0  0  0  0  0  0  0  0  0  0  0
    9.0100   13.4950   23.5360 C   0  0  0  0  0  0  0  0  0  0  0  0
    7.9680   13.2540   22.9230 O   0  0  0  0  0  0  0  0  0  0  0  0
    9.2450   12.9400   24.9250 C   0  0  0  0  0  0  0  0  0  0  0  0
    8.1730   11.9320   25.2720 C   0  0  0  0  0  0  0  0  0  0  0  0
    8.1880   10.6310   24.7550 C   0  0  0  0  0  0  0  0  0  0  0  0
    9.1170   10.4050   23.7760 O   0  0  0  0  0  0  0  0  0  0  0  0
    9.4200    9.0500   23.4100 C   0  0  0  0  0  0  0  0  0  0  0  0
    7.1440   12.2310   26.1340 C   0  0  0  0  0  0  0  0  0  0  0  0
    6.2080   11.3690   26.5350 N   0  0  0  0  0  0  0  0  0  0  0  0
    6.2840   10.1250   26.0670 C   0  0  0  0  0  0  0  0  0  0  0  0
    7.2460    9.7030   25.1630 C   0  0  0  0  0  0  0  0  0  0  0  0
 16 15  1  0
 15 14  1  0
 14 20  2  0
 20 19  1  0
 19 18  2  0
 18 17  1  0
 17 13  2  0
 14 13  1  0
 13 12  1  0
 12 10  1  0
 11 10  2  0
 10  9  1  0
  9  7  1  0
  7  6  1  0
  6  5  1  0
  5  4  1  0
  4  2  1  6
  3  2  1  0
  2  1  2  0
  8  4  1  0
  9  8  1  0
M  END
>  <id>  (235) 
235

>  <inchikey>  (235) 
ZKUXUDCBALXGFV-SNVBAGLBSA-N

>  <alias>  (235) 
A3897a

>  <smiles>  (235) 
COc1ccncc1CC(=O)N1CCC[C@@H](C(N)=O)C1

>  <path>  (235) 
/opt/xchem-fragalysis-2/maxwin/BulkDock/TARGETS/A71EV2A/aligned_files/A3897a/A3897a.pdb

>  <distance_score>  (235) 
None

>  <energy_score>  (235) 
None

>  <compound>  (235) 
ZKUXUDCBALXGFV-UHFFFAOYSA-N

>  <compound_id>  (235) 
129

>  <target>  (235) 
A71EV2A

>  <tags>  (235) 
['GOOD count', 'MEDIOCRE count', '[Other] S1 site', 'hits', '[Other] S2 site', '[Other] P3 compound design', '[Other] upload_1 2025-02-12', 'Main status', 'BAD count']

>  <inspirations>  (235) 
None

>  <subsites>  (235) 
None

>  <reference>  (235) 


>  <observation_longname>  (235) 
A71EV2A-x3897_A_201_v1

>  <ConformerSites alias>  (235) 
1b - A0911/A/147

>  <CanonSites alias>  (235) 
1 - Active Site

>  <CrystalformSites alias>  (235) 
F8h - A0884/A/147

>  <Quatassemblies alias>  (235) 
A1 - monomer

>  <Crystalforms alias>  (235) 
F8 - A712A_x4271_2.1_refmac1_1st_ref

>  <ConformerSites upload name>  (235) 
1b - A71EV2A-x0911/A/147

>  <CanonSites upload name>  (235) 
1 - A71EV2A-x0911/A/147/1

>  <CrystalformSites upload name>  (235) 
F8h - A71EV2A-x0884/A/147/1

>  <Quatassemblies upload name>  (235) 
A1 - monomer

>  <Crystalforms upload name>  (235) 
F8 - A712A_x4271_2.1_refmac1_1st_ref

>  <ConformerSites short tag>  (235) 
1b - A0911/A/147

>  <CanonSites short tag>  (235) 
1 - A0911/A/147/1

>  <CrystalformSites short tag>  (235) 
F8h - A0884/A/147

>  <Quatassemblies short tag>  (235) 
A1 - monomer

>  <Crystalforms short tag>  (235) 
F8 - A712A_x4271_2.1_refmac1_1st_ref

>  <Centroid res>  (235) 
A71EV2A-x0911/A/133/A_v1

>  <Experiment code>  (235) 
A71EV2A-x3897

>  <Pose>  (235) 
A3897a

$$$$
A3901a
     RDKit          3D

 20 21  0  0  0  0  0  0  0  0999 V2000
   10.3420   16.5670   18.9220 O   0  0  0  0  0  0  0  0  0  0  0  0
   10.6810   15.4120   19.1960 C   0  0  0  0  0  0  0  0  0  0  0  0
   11.0640   14.5290   18.2910 N   0  0  0  0  0  0  0  0  0  0  0  0
   10.6830   14.9390   20.6440 C   0  0  1  0  0  0  0  0  0  0  0  0
   11.6890   15.6430   21.4730 N   0  0  0  0  0  0  0  0  0  0  0  0
   11.7460   15.0630   22.8190 C   0  0  0  0  0  0  0  0  0  0  0  0
   10.3910   15.1310   23.5000 C   0  0  0  0  0  0  0  0  0  0  0  0
    9.2990   15.0250   21.2750 C   0  0  0  0  0  0  0  0  0  0  0  0
    9.3640   14.5100   22.6450 N   0  0  0  0  0  0  0  0  0  0  0  0
    8.4960   13.5730   23.0750 C   0  0  0  0  0  0  0  0  0  0  0  0
    7.5280   13.2490   22.4200 O   0  0  0  0  0  0  0  0  0  0  0  0
    8.7290   13.0420   24.4780 C   0  0  0  0  0  0  0  0  0  0  0  0
    7.6860   12.0390   24.9130 C   0  0  0  0  0  0  0  0  0  0  0  0
    7.8400   10.7030   24.5550 C   0  0  0  0  0  0  0  0  0  0  0  0
    8.8610   10.4690   23.6690 O   0  0  0  0  0  0  0  0  0  0  0  0
    9.2040    9.1120   23.3730 C   0  0  0  0  0  0  0  0  0  0  0  0
    6.6710   12.3750   25.8050 C   0  0  0  0  0  0  0  0  0  0  0  0
    5.8510   11.4030   26.3530 C   0  0  0  0  0  0  0  0  0  0  0  0
    6.0220   10.0870   26.0010 C   0  0  0  0  0  0  0  0  0  0  0  0
    7.0090    9.7280   25.0910 C   0  0  0  0  0  0  0  0  0  0  0  0
 16 15  1  0
 15 14  1  0
 14 20  2  0
 20 19  1  0
 19 18  2  0
 18 17  1  0
 17 13  2  0
 14 13  1  0
 13 12  1  0
 12 10  1  0
 11 10  2  0
 10  9  1  0
  9  7  1  0
  7  6  1  0
  6  5  1  0
  5  4  1  0
  4  2  1  6
  3  2  1  0
  2  1  2  0
  8  4  1  0
  9  8  1  0
M  END
>  <id>  (236) 
236

>  <inchikey>  (236) 
DRNIUJKTSBJJIK-NSHDSACASA-N

>  <alias>  (236) 
A3901a

>  <smiles>  (236) 
COc1ccccc1CC(=O)N1CCN[C@H](C(N)=O)C1

>  <path>  (236) 
/opt/xchem-fragalysis-2/maxwin/BulkDock/TARGETS/A71EV2A/aligned_files/A3901a/A3901a.pdb

>  <distance_score>  (236) 
None

>  <energy_score>  (236) 
None

>  <compound>  (236) 
DRNIUJKTSBJJIK-UHFFFAOYSA-N

>  <compound_id>  (236) 
189

>  <target>  (236) 
A71EV2A

>  <tags>  (236) 
['GOOD count', 'MEDIOCRE count', '[Other] S1 site', 'hits', '[Other] S2 site', '[Other] P3 compound design', '[Series] Piperidine series', 'Main status', '[Other] upload_061224', 'BAD count']

>  <inspirations>  (236) 
None

>  <subsites>  (236) 
None

>  <reference>  (236) 


>  <observation_longname>  (236) 
A71EV2A-x3901_A_201_v1

>  <ConformerSites alias>  (236) 
1b - A0911/A/147

>  <CanonSites alias>  (236) 
1 - Active Site

>  <CrystalformSites alias>  (236) 
F5i - A3175/A/201

>  <Quatassemblies alias>  (236) 
A1 - monomer

>  <Crystalforms alias>  (236) 
F5 - A71EV2A_x3178_new_long_dials_041024

>  <ConformerSites upload name>  (236) 
1b - A71EV2A-x0911/A/147

>  <CanonSites upload name>  (236) 
1 - A71EV2A-x0911/A/147/1

>  <CrystalformSites upload name>  (236) 
F5i - A71EV2A-x3175/A/201/1

>  <Quatassemblies upload name>  (236) 
A1 - monomer

>  <Crystalforms upload name>  (236) 
F5 - A71EV2A_x3178_new_long_dials_041024

>  <ConformerSites short tag>  (236) 
1b - A0911/A/147

>  <CanonSites short tag>  (236) 
1 - A0911/A/147/1

>  <CrystalformSites short tag>  (236) 
F5i - A3175/A/201

>  <Quatassemblies short tag>  (236) 
A1 - monomer

>  <Crystalforms short tag>  (236) 
F5 - A71EV2A_x3178_new_long_dials_041024

>  <Centroid res>  (236) 
A71EV2A-x0911/A/133/A_v1

>  <Experiment code>  (236) 
A71EV2A-x3901

>  <Pose>  (236) 
A3901a

$$$$
A3908a
     RDKit          3D

 28 30  0  0  0  0  0  0  0  0999 V2000
   10.1160   16.5350   18.9090 O   0  0  0  0  0  0  0  0  0  0  0  0
   10.4610   15.4150   19.2940 C   0  0  0  0  0  0  0  0  0  0  0  0
   10.9820   14.5020   18.4930 N   0  0  0  0  0  0  0  0  0  0  0  0
   10.3070   15.0020   20.7480 C   0  0  1  0  0  0  0  0  0  0  0  0
   11.4700   15.5070   21.6120 C   0  0  0  0  0  0  0  0  0  0  0  0
   11.4950   14.7590   22.9410 C   0  0  0  0  0  0  0  0  0  0  0  0
   10.1590   14.8810   23.6740 C   0  0  0  0  0  0  0  0  0  0  0  0
    9.0290   15.3790   21.4950 C   0  0  0  0  0  0  0  0  0  0  0  0
    8.9930   14.6880   22.7900 N   0  0  0  0  0  0  0  0  0  0  0  0
    7.9220   13.8900   23.0480 C   0  0  0  0  0  0  0  0  0  0  0  0
    7.2130   13.4430   22.1690 O   0  0  0  0  0  0  0  0  0  0  0  0
    7.6800   13.5900   24.3800 N   0  0  0  0  0  0  0  0  0  0  0  0
    7.6810   12.2390   24.8290 C   0  0  0  0  0  0  0  0  0  0  0  0
    6.7850   11.8040   25.7960 C   0  0  0  0  0  0  0  0  0  0  0  0
    6.6410   10.4510   26.0260 C   0  0  0  0  0  0  0  0  0  0  0  0
    7.3790    9.5410   25.2920 C   0  0  0  0  0  0  0  0  0  0  0  0
    8.4810   11.3160   24.1600 C   0  0  0  0  0  0  0  0  0  0  0  0
    8.3300    9.9560   24.3750 C   0  0  0  0  0  0  0  0  0  0  0  0
    9.2050    8.9600   23.6550 C   0  0  0  0  0  0  0  0  0  0  0  0
    7.0920   14.6270   25.2230 C   0  0  0  0  0  0  0  0  0  0  0  0
    7.8980   14.8070   26.5090 C   0  0  0  0  0  0  0  0  0  0  0  0
    9.0550   14.4300   26.5780 O   0  0  0  0  0  0  0  0  0  0  0  0
    7.2620   15.3420   27.5670 N   0  0  0  0  0  0  0  0  0  0  0  0
    5.9300   15.9620   27.5390 C   0  0  0  0  0  0  0  0  0  0  0  0
    5.2410   15.8720   28.8960 C   0  0  0  0  0  0  0  0  0  0  0  0
    5.5510   14.5520   29.5930 C   0  0  0  0  0  0  0  0  0  0  0  0
    7.0500   14.3880   29.8210 C   0  0  0  0  0  0  0  0  0  0  0  0
    7.8600   15.2960   28.9070 C   0  0  0  0  0  0  0  0  0  0  0  0
 19 18  1  0
 18 16  2  0
 16 15  1  0
 15 14  2  0
 14 13  1  0
 13 12  1  0
 20 12  1  0
 21 20  1  0
 22 21  2  0
 23 21  1  0
 23 28  1  0
 28 27  1  0
 27 26  1  0
 26 25  1  0
 25 24  1  0
 24 23  1  0
 12 10  1  0
 11 10  2  0
 10  9  1  0
  9  7  1  0
  7  6  1  0
  6  5  1  0
  5  4  1  0
  4  2  1  6
  3  2  1  0
  2  1  2  0
  8  4  1  0
  9  8  1  0
 17 13  2  0
 18 17  1  0
M  END
>  <id>  (237) 
237

>  <inchikey>  (237) 
WURIVKYKRXTGMF-KRWDZBQOSA-N

>  <alias>  (237) 
A3908a

>  <smiles>  (237) 
Cc1cccc(N(CC(=O)N2CCCCC2)C(=O)N2CCC[C@H](C(N)=O)C2)c1

>  <path>  (237) 
/opt/xchem-fragalysis-2/maxwin/BulkDock/TARGETS/A71EV2A/aligned_files/A3908a/A3908a.pdb

>  <distance_score>  (237) 
None

>  <energy_score>  (237) 
None

>  <compound>  (237) 
WURIVKYKRXTGMF-UHFFFAOYSA-N

>  <compound_id>  (237) 
190

>  <target>  (237) 
A71EV2A

>  <tags>  (237) 
['GOOD count', 'MEDIOCRE count', '[Other] S1 site', 'hits', '[Other] S2 site', '[Other] P3 compound design', '[Other] upload_1 2025-02-12', 'Main status', '[Series] Piperidine series', 'BAD count']

>  <inspirations>  (237) 
None

>  <subsites>  (237) 
None

>  <reference>  (237) 


>  <observation_longname>  (237) 
A71EV2A-x3908_A_201_v1

>  <ConformerSites alias>  (237) 
1b - A0911/A/147

>  <CanonSites alias>  (237) 
1 - Active Site

>  <CrystalformSites alias>  (237) 
F5i - A3175/A/201

>  <Quatassemblies alias>  (237) 
A1 - monomer

>  <Crystalforms alias>  (237) 
F5 - A71EV2A_x3178_new_long_dials_041024

>  <ConformerSites upload name>  (237) 
1b - A71EV2A-x0911/A/147

>  <CanonSites upload name>  (237) 
1 - A71EV2A-x0911/A/147/1

>  <CrystalformSites upload name>  (237) 
F5i - A71EV2A-x3175/A/201/1

>  <Quatassemblies upload name>  (237) 
A1 - monomer

>  <Crystalforms upload name>  (237) 
F5 - A71EV2A_x3178_new_long_dials_041024

>  <ConformerSites short tag>  (237) 
1b - A0911/A/147

>  <CanonSites short tag>  (237) 
1 - A0911/A/147/1

>  <CrystalformSites short tag>  (237) 
F5i - A3175/A/201

>  <Quatassemblies short tag>  (237) 
A1 - monomer

>  <Crystalforms short tag>  (237) 
F5 - A71EV2A_x3178_new_long_dials_041024

>  <Centroid res>  (237) 
A71EV2A-x0911/A/133/A_v1

>  <Experiment code>  (237) 
A71EV2A-x3908

>  <Pose>  (237) 
A3908a

$$$$
A3914a
     RDKit          3D

 22 24  0  0  0  0  0  0  0  0999 V2000
   10.5450   16.6190   19.0670 O   0  0  0  0  0  0  0  0  0  0  0  0
   10.7700   15.4470   19.3800 C   0  0  0  0  0  0  0  0  0  0  0  0
   11.1200   14.5270   18.4970 N   0  0  0  0  0  0  0  0  0  0  0  0
   10.7400   14.9990   20.8320 C   0  0  1  0  0  0  0  0  0  0  0  0
   11.8400   15.7090   21.6390 C   0  0  0  0  0  0  0  0  0  0  0  0
   11.8290   15.3120   23.1180 C   0  0  0  0  0  0  0  0  0  0  0  0
   10.4460   15.5020   23.7090 C   0  0  0  0  0  0  0  0  0  0  0  0
    9.3750   15.1820   21.5110 C   0  0  0  0  0  0  0  0  0  0  0  0
    9.4350   14.7760   22.9190 N   0  0  0  0  0  0  0  0  0  0  0  0
    8.5600   13.8770   23.4340 C   0  0  0  0  0  0  0  0  0  0  0  0
    7.7760   13.2540   22.7260 O   0  0  0  0  0  0  0  0  0  0  0  0
    8.5480   13.7120   24.9440 C   0  0  0  0  0  0  0  0  0  0  0  0
    7.8480   12.4430   25.3880 C   0  0  0  0  0  0  0  0  0  0  0  0
    6.8440   12.4940   26.3580 C   0  0  0  0  0  0  0  0  0  0  0  0
    6.1830   11.3480   26.7780 C   0  0  0  0  0  0  0  0  0  0  0  0
    6.4980   10.1140   26.2270 C   0  0  0  0  0  0  0  0  0  0  0  0
    7.5060   10.0200   25.2490 C   0  0  0  0  0  0  0  0  0  0  0  0
    8.1960   11.1840   24.8480 C   0  0  0  0  0  0  0  0  0  0  0  0
    9.1940   10.7170   23.9490 C   0  0  0  0  0  0  0  0  0  0  0  0
    8.0030    8.8990   24.6110 N   0  0  0  0  0  0  0  0  0  0  0  0
    9.0250    9.3950   23.8550 N   0  0  0  0  0  0  0  0  0  0  0  0
    9.7990    8.5160   22.9790 C   0  0  0  0  0  0  0  0  0  0  0  0
 22 21  1  0
 21 19  1  0
 19 18  2  0
 18 13  1  0
 13 12  1  0
 12 10  1  0
 11 10  2  0
 10  9  1  0
  9  7  1  0
  7  6  1  0
  6  5  1  0
  5  4  1  0
  4  2  1  6
  3  2  1  0
  2  1  2  0
  8  4  1  0
  9  8  1  0
 14 13  2  0
 15 14  1  0
 16 15  2  0
 17 16  1  0
 18 17  1  0
 20 17  2  0
 21 20  1  0
M  END
>  <id>  (238) 
238

>  <inchikey>  (238) 
GWEIDNCYZCGNCA-LBPRGKRZSA-N

>  <alias>  (238) 
A3914a

>  <smiles>  (238) 
Cn1cc2c(CC(=O)N3CCC[C@H](C(N)=O)C3)cccc2n1

>  <path>  (238) 
/opt/xchem-fragalysis-2/maxwin/BulkDock/TARGETS/A71EV2A/aligned_files/A3914a/A3914a.pdb

>  <distance_score>  (238) 
None

>  <energy_score>  (238) 
None

>  <compound>  (238) 
GWEIDNCYZCGNCA-UHFFFAOYSA-N

>  <compound_id>  (238) 
116

>  <target>  (238) 
A71EV2A

>  <tags>  (238) 
['GOOD count', 'MEDIOCRE count', '[Other] S1 site', 'hits', '[Other] S2 site', '[Other] P3 compound design', '[Series] Piperidine series', 'Main status', '[Other] upload_061224', 'BAD count']

>  <inspirations>  (238) 
None

>  <subsites>  (238) 
None

>  <reference>  (238) 


>  <observation_longname>  (238) 
A71EV2A-x3914_A_201_v1

>  <ConformerSites alias>  (238) 
1b - A0911/A/147

>  <CanonSites alias>  (238) 
1 - Active Site

>  <CrystalformSites alias>  (238) 
F8h - A0884/A/147

>  <Quatassemblies alias>  (238) 
A1 - monomer

>  <Crystalforms alias>  (238) 
F8 - A712A_x4271_2.1_refmac1_1st_ref

>  <ConformerSites upload name>  (238) 
1b - A71EV2A-x0911/A/147

>  <CanonSites upload name>  (238) 
1 - A71EV2A-x0911/A/147/1

>  <CrystalformSites upload name>  (238) 
F8h - A71EV2A-x0884/A/147/1

>  <Quatassemblies upload name>  (238) 
A1 - monomer

>  <Crystalforms upload name>  (238) 
F8 - A712A_x4271_2.1_refmac1_1st_ref

>  <ConformerSites short tag>  (238) 
1b - A0911/A/147

>  <CanonSites short tag>  (238) 
1 - A0911/A/147/1

>  <CrystalformSites short tag>  (238) 
F8h - A0884/A/147

>  <Quatassemblies short tag>  (238) 
A1 - monomer

>  <Crystalforms short tag>  (238) 
F8 - A712A_x4271_2.1_refmac1_1st_ref

>  <Centroid res>  (238) 
A71EV2A-x0911/A/133/A_v1

>  <Experiment code>  (238) 
A71EV2A-x3914

>  <Pose>  (238) 
A3914a

$$$$
A3920a
     RDKit          3D

 20 21  0  0  0  0  0  0  0  0999 V2000
   10.3410   16.5400   19.1910 O   0  0  0  0  0  0  0  0  0  0  0  0
   10.7600   15.3990   19.4130 C   0  0  0  0  0  0  0  0  0  0  0  0
   11.1500   14.5780   18.4530 N   0  0  0  0  0  0  0  0  0  0  0  0
   10.8480   14.8550   20.8290 C   0  0  1  0  0  0  0  0  0  0  0  0
   12.0530   15.4470   21.5800 C   0  0  0  0  0  0  0  0  0  0  0  0
   12.1420   14.9360   23.0250 C   0  0  0  0  0  0  0  0  0  0  0  0
   10.8180   15.1110   23.7560 C   0  0  0  0  0  0  0  0  0  0  0  0
    9.5690   15.0860   21.6380 C   0  0  0  0  0  0  0  0  0  0  0  0
    9.7160   14.5180   22.9800 N   0  0  0  0  0  0  0  0  0  0  0  0
    8.9030   13.5270   23.4010 C   0  0  0  0  0  0  0  0  0  0  0  0
    7.9670   13.1250   22.7230 O   0  0  0  0  0  0  0  0  0  0  0  0
    9.2050   12.9370   24.7670 C   0  0  0  0  0  0  0  0  0  0  0  0
    8.2400   11.8360   25.1530 C   0  0  0  0  0  0  0  0  0  0  0  0
    8.2820   10.5290   24.6220 C   0  0  0  0  0  0  0  0  0  0  0  0
    9.2850   10.3050   23.7440 O   0  0  0  0  0  0  0  0  0  0  0  0
    9.5570    8.9530   23.3650 C   0  0  0  0  0  0  0  0  0  0  0  0
    7.2690   12.0650   26.1250 C   0  0  0  0  0  0  0  0  0  0  0  0
    6.4170   11.0510   26.5200 C   0  0  0  0  0  0  0  0  0  0  0  0
    6.5470    9.8210   25.9230 C   0  0  0  0  0  0  0  0  0  0  0  0
    7.4590    9.5490   24.9750 N   0  0  0  0  0  0  0  0  0  0  0  0
 16 15  1  0
 15 14  1  0
 14 20  2  0
 20 19  1  0
 19 18  2  0
 18 17  1  0
 17 13  2  0
 14 13  1  0
 13 12  1  0
 12 10  1  0
 11 10  2  0
 10  9  1  0
  9  7  1  0
  7  6  1  0
  6  5  1  0
  5  4  1  0
  4  2  1  6
  3  2  1  0
  2  1  2  0
  8  4  1  0
  9  8  1  0
M  END
>  <id>  (239) 
239

>  <inchikey>  (239) 
DPQNQDXNIINHJH-NSHDSACASA-N

>  <alias>  (239) 
A3920a

>  <smiles>  (239) 
COc1ncccc1CC(=O)N1CCC[C@H](C(N)=O)C1

>  <path>  (239) 
/opt/xchem-fragalysis-2/maxwin/BulkDock/TARGETS/A71EV2A/aligned_files/A3920a/A3920a.pdb

>  <distance_score>  (239) 
None

>  <energy_score>  (239) 
None

>  <compound>  (239) 
DPQNQDXNIINHJH-UHFFFAOYSA-N

>  <compound_id>  (239) 
120

>  <target>  (239) 
A71EV2A

>  <tags>  (239) 
['GOOD count', 'MEDIOCRE count', '[Other] S1 site', 'hits', '[Other] S2 site', '[Other] P3 compound design', '[Other] upload_1 2025-02-12', 'Main status', '[Series] Piperidine series', 'BAD count']

>  <inspirations>  (239) 
None

>  <subsites>  (239) 
None

>  <reference>  (239) 


>  <observation_longname>  (239) 
A71EV2A-x3920_A_201_v1

>  <ConformerSites alias>  (239) 
1b - A0911/A/147

>  <CanonSites alias>  (239) 
1 - Active Site

>  <CrystalformSites alias>  (239) 
F8h - A0884/A/147

>  <Quatassemblies alias>  (239) 
A1 - monomer

>  <Crystalforms alias>  (239) 
F8 - A712A_x4271_2.1_refmac1_1st_ref

>  <ConformerSites upload name>  (239) 
1b - A71EV2A-x0911/A/147

>  <CanonSites upload name>  (239) 
1 - A71EV2A-x0911/A/147/1

>  <CrystalformSites upload name>  (239) 
F8h - A71EV2A-x0884/A/147/1

>  <Quatassemblies upload name>  (239) 
A1 - monomer

>  <Crystalforms upload name>  (239) 
F8 - A712A_x4271_2.1_refmac1_1st_ref

>  <ConformerSites short tag>  (239) 
1b - A0911/A/147

>  <CanonSites short tag>  (239) 
1 - A0911/A/147/1

>  <CrystalformSites short tag>  (239) 
F8h - A0884/A/147

>  <Quatassemblies short tag>  (239) 
A1 - monomer

>  <Crystalforms short tag>  (239) 
F8 - A712A_x4271_2.1_refmac1_1st_ref

>  <Centroid res>  (239) 
A71EV2A-x0911/A/133/A_v1

>  <Experiment code>  (239) 
A71EV2A-x3920

>  <Pose>  (239) 
A3920a

$$$$
A3936a
     RDKit          3D

 20 21  0  0  0  0  0  0  0  0999 V2000
    9.8390   16.3460   19.3560 O   0  0  0  0  0  0  0  0  0  0  0  0
   10.3050   15.2200   19.5590 C   0  0  0  0  0  0  0  0  0  0  0  0
   10.8150   14.4570   18.5940 N   0  0  0  0  0  0  0  0  0  0  0  0
   10.3640   14.6430   20.9600 C   0  0  1  0  0  0  0  0  0  0  0  0
   11.5620   15.2080   21.7590 C   0  0  0  0  0  0  0  0  0  0  0  0
   11.6240   14.5670   23.1440 C   0  0  0  0  0  0  0  0  0  0  0  0
   10.3110   14.8020   23.8680 C   0  0  0  0  0  0  0  0  0  0  0  0
    9.0740   14.8740   21.7500 C   0  0  0  0  0  0  0  0  0  0  0  0
    9.1940   14.2580   23.0770 N   0  0  0  0  0  0  0  0  0  0  0  0
    8.3730   13.2630   23.4590 C   0  0  0  0  0  0  0  0  0  0  0  0
    7.4280   12.9480   22.7630 O   0  0  0  0  0  0  0  0  0  0  0  0
    8.5370   12.5230   24.7930 C   0  0  2  0  0  0  0  0  0  0  0  0
    9.6130   11.4580   24.7540 C   0  0  0  0  0  0  0  0  0  0  0  0
    9.3490   10.5540   23.7050 O   0  0  0  0  0  0  0  0  0  0  0  0
    9.8220    9.2740   23.9800 C   0  0  0  0  0  0  0  0  0  0  0  0
    7.3140   11.7910   25.0200 O   0  0  0  0  0  0  0  0  0  0  0  0
    6.3160   12.2800   25.9380 C   0  0  0  0  0  0  0  0  0  0  0  0
    6.2320   13.8010   26.0620 C   0  0  0  0  0  0  0  0  0  0  0  0
    7.6060   14.4820   26.0950 C   0  0  0  0  0  0  0  0  0  0  0  0
    8.7450   13.4760   25.9660 C   0  0  0  0  0  0  0  0  0  0  0  0
 15 14  1  0
 14 13  1  0
 12 13  1  6
 12 10  1  0
 11 10  2  0
 10  9  1  0
  9  7  1  0
  7  6  1  0
  6  5  1  0
  5  4  1  0
  4  2  1  6
  3  2  1  0
  2  1  2  0
  8  4  1  0
  9  8  1  0
 12 20  1  0
 20 19  1  0
 19 18  1  0
 18 17  1  0
 17 16  1  0
 16 12  1  0
M  END
>  <id>  (240) 
240

>  <inchikey>  (240) 
UHSOMRQQUOKZEB-FZMZJTMJSA-N

>  <alias>  (240) 
A3936a

>  <smiles>  (240) 
COC[C@]1(C(=O)N2CCC[C@H](C(N)=O)C2)CCCCO1

>  <path>  (240) 
/opt/xchem-fragalysis-2/maxwin/BulkDock/TARGETS/A71EV2A/aligned_files/A3936a/A3936a.pdb

>  <distance_score>  (240) 
None

>  <energy_score>  (240) 
None

>  <compound>  (240) 
UHSOMRQQUOKZEB-UHFFFAOYSA-N

>  <compound_id>  (240) 
191

>  <target>  (240) 
A71EV2A

>  <tags>  (240) 
['GOOD count', 'MEDIOCRE count', '[Other] S1 site', 'hits', '[Other] S2 site', '[Other] P3 compound design', '[Series] Piperidine series', 'Main status', '[Other] upload_061224', 'BAD count']

>  <inspirations>  (240) 
None

>  <subsites>  (240) 
None

>  <reference>  (240) 


>  <observation_longname>  (240) 
A71EV2A-x3936_A_201_v1

>  <ConformerSites alias>  (240) 
1b - A0911/A/147

>  <CanonSites alias>  (240) 
1 - Active Site

>  <CrystalformSites alias>  (240) 
F5i - A3175/A/201

>  <Quatassemblies alias>  (240) 
A1 - monomer

>  <Crystalforms alias>  (240) 
F5 - A71EV2A_x3178_new_long_dials_041024

>  <ConformerSites upload name>  (240) 
1b - A71EV2A-x0911/A/147

>  <CanonSites upload name>  (240) 
1 - A71EV2A-x0911/A/147/1

>  <CrystalformSites upload name>  (240) 
F5i - A71EV2A-x3175/A/201/1

>  <Quatassemblies upload name>  (240) 
A1 - monomer

>  <Crystalforms upload name>  (240) 
F5 - A71EV2A_x3178_new_long_dials_041024

>  <ConformerSites short tag>  (240) 
1b - A0911/A/147

>  <CanonSites short tag>  (240) 
1 - A0911/A/147/1

>  <CrystalformSites short tag>  (240) 
F5i - A3175/A/201

>  <Quatassemblies short tag>  (240) 
A1 - monomer

>  <Crystalforms short tag>  (240) 
F5 - A71EV2A_x3178_new_long_dials_041024

>  <Centroid res>  (240) 
A71EV2A-x0911/A/133/A_v1

>  <Experiment code>  (240) 
A71EV2A-x3936

>  <Pose>  (240) 
A3936a

$$$$
A3937a
     RDKit          3D

 20 21  0  0  0  0  0  0  0  0999 V2000
    9.9780   16.3860   19.3220 O   0  0  0  0  0  0  0  0  0  0  0  0
   10.4130   15.2490   19.5310 C   0  0  0  0  0  0  0  0  0  0  0  0
   10.9390   14.4890   18.5680 N   0  0  0  0  0  0  0  0  0  0  0  0
   10.3960   14.6560   20.9290 C   0  0  1  0  0  0  0  0  0  0  0  0
   11.5180   15.2360   21.8250 C   0  0  0  0  0  0  0  0  0  0  0  0
   11.5170   14.5530   23.1990 C   0  0  0  0  0  0  0  0  0  0  0  0
   10.1510   14.6870   23.8630 C   0  0  0  0  0  0  0  0  0  0  0  0
    9.0590   14.8420   21.6530 C   0  0  0  0  0  0  0  0  0  0  0  0
    9.0960   14.1900   22.9670 N   0  0  0  0  0  0  0  0  0  0  0  0
    8.2230   13.2170   23.2860 C   0  0  0  0  0  0  0  0  0  0  0  0
    7.2550   13.0080   22.5900 O   0  0  0  0  0  0  0  0  0  0  0  0
    8.4190   12.3880   24.5740 C   0  0  2  0  0  0  0  0  0  0  0  0
    8.2530   10.9850   24.4150 O   0  0  0  0  0  0  0  0  0  0  0  0
    9.4600   10.2950   24.0230 C   0  0  0  0  0  0  0  0  0  0  0  0
    7.3290   12.7660   25.5550 C   0  0  0  0  0  0  0  0  0  0  0  0
    6.5630   11.8020   26.2020 C   0  0  0  0  0  0  0  0  0  0  0  0
    5.5350   12.0750   27.0210 N   0  0  0  0  0  0  0  0  0  0  0  0
    5.2400   13.3620   27.2180 C   0  0  0  0  0  0  0  0  0  0  0  0
    5.9480   14.3990   26.6400 C   0  0  0  0  0  0  0  0  0  0  0  0
    7.0040   14.0900   25.8030 C   0  0  0  0  0  0  0  0  0  0  0  0
 14 13  1  0
 12 13  1  6
 12 10  1  0
 11 10  2  0
 10  9  1  0
  9  7  1  0
  7  6  1  0
  6  5  1  0
  5  4  1  0
  4  2  1  6
  3  2  1  0
  2  1  2  0
  8  4  1  0
  9  8  1  0
 15 12  1  0
 15 20  2  0
 20 19  1  0
 19 18  2  0
 18 17  1  0
 17 16  2  0
 16 15  1  0
M  END
>  <id>  (241) 
241

>  <inchikey>  (241) 
OGJQECZREBVMTE-NWDGAFQWSA-N

>  <alias>  (241) 
A3937a

>  <smiles>  (241) 
CO[C@@H](C(=O)N1CCC[C@H](C(N)=O)C1)c1cccnc1

>  <path>  (241) 
/opt/xchem-fragalysis-2/maxwin/BulkDock/TARGETS/A71EV2A/aligned_files/A3937a/A3937a.pdb

>  <distance_score>  (241) 
None

>  <energy_score>  (241) 
None

>  <compound>  (241) 
OGJQECZREBVMTE-UHFFFAOYSA-N

>  <compound_id>  (241) 
192

>  <target>  (241) 
A71EV2A

>  <tags>  (241) 
['GOOD count', 'MEDIOCRE count', '[Other] S1 site', 'hits', '[Other] S2 site', '[Other] P3 compound design', '[Other] upload_1 2025-02-12', 'Main status', '[Series] Piperidine series', 'BAD count']

>  <inspirations>  (241) 
None

>  <subsites>  (241) 
None

>  <reference>  (241) 


>  <observation_longname>  (241) 
A71EV2A-x3937_A_201_v1

>  <ConformerSites alias>  (241) 
1b - A0911/A/147

>  <CanonSites alias>  (241) 
1 - Active Site

>  <CrystalformSites alias>  (241) 
F5i - A3175/A/201

>  <Quatassemblies alias>  (241) 
A1 - monomer

>  <Crystalforms alias>  (241) 
F5 - A71EV2A_x3178_new_long_dials_041024

>  <ConformerSites upload name>  (241) 
1b - A71EV2A-x0911/A/147

>  <CanonSites upload name>  (241) 
1 - A71EV2A-x0911/A/147/1

>  <CrystalformSites upload name>  (241) 
F5i - A71EV2A-x3175/A/201/1

>  <Quatassemblies upload name>  (241) 
A1 - monomer

>  <Crystalforms upload name>  (241) 
F5 - A71EV2A_x3178_new_long_dials_041024

>  <ConformerSites short tag>  (241) 
1b - A0911/A/147

>  <CanonSites short tag>  (241) 
1 - A0911/A/147/1

>  <CrystalformSites short tag>  (241) 
F5i - A3175/A/201

>  <Quatassemblies short tag>  (241) 
A1 - monomer

>  <Crystalforms short tag>  (241) 
F5 - A71EV2A_x3178_new_long_dials_041024

>  <Centroid res>  (241) 
A71EV2A-x0911/A/133/A_v1

>  <Experiment code>  (241) 
A71EV2A-x3937

>  <Pose>  (241) 
A3937a

$$$$
A3938a
     RDKit          3D

 18 19  0  0  0  0  0  0  0  0999 V2000
   11.0340   14.3930   18.5210 O   0  0  0  0  0  0  0  0  0  0  0  0
   10.4770   15.0710   19.3930 C   0  0  0  0  0  0  0  0  0  0  0  0
    9.8690   16.2180   19.1350 N   0  0  0  0  0  0  0  0  0  0  0  0
   10.4850   14.6340   20.8480 C   0  0  1  0  0  0  0  0  0  0  0  0
   11.5570   15.3770   21.6670 C   0  0  0  0  0  0  0  0  0  0  0  0
   11.6980   14.7260   23.0380 C   0  0  0  0  0  0  0  0  0  0  0  0
   10.3620   14.7570   23.7690 C   0  0  0  0  0  0  0  0  0  0  0  0
    9.1590   14.7720   21.5990 C   0  0  0  0  0  0  0  0  0  0  0  0
    9.2770   14.1940   22.9470 N   0  0  0  0  0  0  0  0  0  0  0  0
    8.3900   13.2810   23.3890 C   0  0  0  0  0  0  0  0  0  0  0  0
    7.4530   12.9590   22.6930 O   0  0  0  0  0  0  0  0  0  0  0  0
    8.4290   12.7280   24.9110 C   0  0  2  0  0  0  0  0  0  0  0  0
    7.8700   13.8300   25.8180 C   0  0  0  0  0  0  0  0  0  0  0  0
    9.8090   12.5310   25.2640 O   0  0  0  0  0  0  0  0  0  0  0  0
   10.4850   11.5640   24.4370 C   0  0  0  0  0  0  0  0  0  0  0  0
    9.8600   10.1980   24.5310 C   0  0  0  0  0  0  0  0  0  0  0  0
    8.3560   10.2620   24.3400 C   0  0  0  0  0  0  0  0  0  0  0  0
    7.7130   11.4020   25.1330 C   0  0  0  0  0  0  0  0  0  0  0  0
 12 13  1  1
 12 10  1  0
 11 10  2  0
 10  9  1  0
  9  7  1  0
  7  6  1  0
  6  5  1  0
  5  4  1  0
  4  2  1  6
  3  2  1  0
  2  1  2  0
  8  4  1  0
  9  8  1  0
 12 18  1  0
 18 17  1  0
 17 16  1  0
 16 15  1  0
 15 14  1  0
 14 12  1  0
M  END
>  <id>  (242) 
242

>  <inchikey>  (242) 
YJRYXQGADMRDQO-GXFFZTMASA-N

>  <alias>  (242) 
A3938a

>  <smiles>  (242) 
C[C@]1(C(=O)N2CCC[C@H](C(N)=O)C2)CCCCO1

>  <path>  (242) 
/opt/xchem-fragalysis-2/maxwin/BulkDock/TARGETS/A71EV2A/aligned_files/A3938a/A3938a.pdb

>  <distance_score>  (242) 
None

>  <energy_score>  (242) 
None

>  <compound>  (242) 
YJRYXQGADMRDQO-UHFFFAOYSA-N

>  <compound_id>  (242) 
193

>  <target>  (242) 
A71EV2A

>  <tags>  (242) 
['GOOD count', 'MEDIOCRE count', '[Other] S1 site', 'hits', '[Other] S2 site', '[Other] P3 compound design', '[Other] upload_2 2024-12-12', 'Main status', '[Series] Piperidine series', 'BAD count']

>  <inspirations>  (242) 
None

>  <subsites>  (242) 
None

>  <reference>  (242) 


>  <observation_longname>  (242) 
A71EV2A-x3938_A_201_v1

>  <ConformerSites alias>  (242) 
1b - A0911/A/147

>  <CanonSites alias>  (242) 
1 - Active Site

>  <CrystalformSites alias>  (242) 
F5i - A3175/A/201

>  <Quatassemblies alias>  (242) 
A1 - monomer

>  <Crystalforms alias>  (242) 
F5 - A71EV2A_x3178_new_long_dials_041024

>  <ConformerSites upload name>  (242) 
1b - A71EV2A-x0911/A/147

>  <CanonSites upload name>  (242) 
1 - A71EV2A-x0911/A/147/1

>  <CrystalformSites upload name>  (242) 
F5i - A71EV2A-x3175/A/201/1

>  <Quatassemblies upload name>  (242) 
A1 - monomer

>  <Crystalforms upload name>  (242) 
F5 - A71EV2A_x3178_new_long_dials_041024

>  <ConformerSites short tag>  (242) 
1b - A0911/A/147

>  <CanonSites short tag>  (242) 
1 - A0911/A/147/1

>  <CrystalformSites short tag>  (242) 
F5i - A3175/A/201

>  <Quatassemblies short tag>  (242) 
A1 - monomer

>  <Crystalforms short tag>  (242) 
F5 - A71EV2A_x3178_new_long_dials_041024

>  <Centroid res>  (242) 
A71EV2A-x0911/A/133/A_v1

>  <Experiment code>  (242) 
A71EV2A-x3938

>  <Pose>  (242) 
A3938a

$$$$
A3939a
     RDKit          3D

 21 22  0  0  0  0  0  0  0  0999 V2000
   10.2310   16.6350   19.0320 O   0  0  0  0  0  0  0  0  0  0  0  0
   10.5820   15.4810   19.3210 C   0  0  0  0  0  0  0  0  0  0  0  0
   11.0040   14.5980   18.4220 N   0  0  0  0  0  0  0  0  0  0  0  0
   10.4680   14.9590   20.7420 C   0  0  1  0  0  0  0  0  0  0  0  0
   11.6210   15.4200   21.6640 C   0  0  0  0  0  0  0  0  0  0  0  0
   11.5130   14.7180   23.0190 C   0  0  0  0  0  0  0  0  0  0  0  0
   10.1240   14.9460   23.6510 C   0  0  0  0  0  0  0  0  0  0  0  0
    9.1740   15.3900   21.4220 C   0  0  0  0  0  0  0  0  0  0  0  0
    9.0390   14.6670   22.6900 N   0  0  0  0  0  0  0  0  0  0  0  0
    7.9680   13.8570   22.8690 C   0  0  0  0  0  0  0  0  0  0  0  0
    7.1820   13.6420   21.9690 O   0  0  0  0  0  0  0  0  0  0  0  0
    7.6280   13.3210   24.2720 C   0  0  2  0  0  0  0  0  0  0  0  0
    8.0220   14.0610   25.4190 O   0  0  0  0  0  0  0  0  0  0  0  0
    7.1830   15.1810   25.6670 C   0  0  0  0  0  0  0  0  0  0  0  0
    8.0120   11.8590   24.3720 C   0  0  0  0  0  0  0  0  0  0  0  0
    7.2000   10.9630   25.0860 C   0  0  0  0  0  0  0  0  0  0  0  0
    6.1800   11.4230   26.0970 C   0  0  0  0  0  0  0  0  0  0  0  0
    7.3860    9.6010   24.8800 C   0  0  0  0  0  0  0  0  0  0  0  0
    8.3860    9.1260   24.0490 C   0  0  0  0  0  0  0  0  0  0  0  0
    9.2410   10.0040   23.4380 C   0  0  0  0  0  0  0  0  0  0  0  0
    9.0530   11.3670   23.5900 C   0  0  0  0  0  0  0  0  0  0  0  0
 14 13  1  0
 12 13  1  1
 12 10  1  0
 11 10  2  0
 10  9  1  0
  9  7  1  0
  7  6  1  0
  6  5  1  0
  5  4  1  0
  4  2  1  6
  3  2  1  0
  2  1  2  0
  8  4  1  0
  9  8  1  0
 15 12  1  0
 15 21  2  0
 21 20  1  0
 20 19  2  0
 19 18  1  0
 18 16  2  0
 16 15  1  0
 17 16  1  0
M  END
>  <id>  (243) 
243

>  <inchikey>  (243) 
CNYNLJPJLJQEQZ-GXTWGEPZSA-N

>  <alias>  (243) 
A3939a

>  <smiles>  (243) 
CO[C@@H](C(=O)N1CCC[C@H](C(N)=O)C1)c1ccccc1C

>  <path>  (243) 
/opt/xchem-fragalysis-2/maxwin/BulkDock/TARGETS/A71EV2A/aligned_files/A3939a/A3939a.pdb

>  <distance_score>  (243) 
None

>  <energy_score>  (243) 
None

>  <compound>  (243) 
CNYNLJPJLJQEQZ-UHFFFAOYSA-N

>  <compound_id>  (243) 
194

>  <target>  (243) 
A71EV2A

>  <tags>  (243) 
['GOOD count', 'MEDIOCRE count', '[Other] S1 site', 'hits', '[Other] S2 site', '[Other] P3 compound design', '[Other] upload_1 2025-02-12', 'Main status', '[Series] Piperidine series', 'BAD count']

>  <inspirations>  (243) 
None

>  <subsites>  (243) 
None

>  <reference>  (243) 


>  <observation_longname>  (243) 
A71EV2A-x3939_A_201_v1

>  <ConformerSites alias>  (243) 
1b - A0911/A/147

>  <CanonSites alias>  (243) 
1 - Active Site

>  <CrystalformSites alias>  (243) 
F5i - A3175/A/201

>  <Quatassemblies alias>  (243) 
A1 - monomer

>  <Crystalforms alias>  (243) 
F5 - A71EV2A_x3178_new_long_dials_041024

>  <ConformerSites upload name>  (243) 
1b - A71EV2A-x0911/A/147

>  <CanonSites upload name>  (243) 
1 - A71EV2A-x0911/A/147/1

>  <CrystalformSites upload name>  (243) 
F5i - A71EV2A-x3175/A/201/1

>  <Quatassemblies upload name>  (243) 
A1 - monomer

>  <Crystalforms upload name>  (243) 
F5 - A71EV2A_x3178_new_long_dials_041024

>  <ConformerSites short tag>  (243) 
1b - A0911/A/147

>  <CanonSites short tag>  (243) 
1 - A0911/A/147/1

>  <CrystalformSites short tag>  (243) 
F5i - A3175/A/201

>  <Quatassemblies short tag>  (243) 
A1 - monomer

>  <Crystalforms short tag>  (243) 
F5 - A71EV2A_x3178_new_long_dials_041024

>  <Centroid res>  (243) 
A71EV2A-x0911/A/133/A_v1

>  <Experiment code>  (243) 
A71EV2A-x3939

>  <Pose>  (243) 
A3939a

$$$$
A3940a
     RDKit          3D

 21 22  0  0  0  0  0  0  0  0999 V2000
   10.5800   16.7390   19.2630 O   0  0  0  0  0  0  0  0  0  0  0  0
   10.9870   15.6120   19.5530 C   0  0  0  0  0  0  0  0  0  0  0  0
   11.4150   14.7490   18.6470 N   0  0  0  0  0  0  0  0  0  0  0  0
   11.0230   15.1340   20.9950 C   0  0  1  0  0  0  0  0  0  0  0  0
   12.0010   15.9740   21.8310 C   0  0  0  0  0  0  0  0  0  0  0  0
   12.0580   15.4910   23.2820 C   0  0  0  0  0  0  0  0  0  0  0  0
   10.6690   15.4790   23.8980 C   0  0  0  0  0  0  0  0  0  0  0  0
    9.6470   15.1850   21.6680 C   0  0  0  0  0  0  0  0  0  0  0  0
    9.7280   14.7240   23.0580 N   0  0  0  0  0  0  0  0  0  0  0  0
    8.9350   13.7240   23.5040 C   0  0  0  0  0  0  0  0  0  0  0  0
    8.0230   13.2710   22.8300 O   0  0  0  0  0  0  0  0  0  0  0  0
    9.2130   13.2000   24.9010 C   0  0  0  0  0  0  0  0  0  0  0  0
    8.2500   12.1090   25.3110 C   0  0  0  0  0  0  0  0  0  0  0  0
    8.4330   10.7920   24.8810 C   0  0  0  0  0  0  0  0  0  0  0  0
    9.5170   10.5960   24.0680 O   0  0  0  0  0  0  0  0  0  0  0  0
    9.6570    9.3270   23.4310 C   0  0  0  0  0  0  0  0  0  0  0  0
    7.1980   12.3850   26.1820 C   0  0  0  0  0  0  0  0  0  0  0  0
    6.3730   11.3670   26.6100 C   0  0  0  0  0  0  0  0  0  0  0  0
    5.0760   11.7380   27.7130 Cl  0  0  0  0  0  0  0  0  0  0  0  0
    6.5510   10.0690   26.1890 C   0  0  0  0  0  0  0  0  0  0  0  0
    7.5840    9.7790   25.3140 C   0  0  0  0  0  0  0  0  0  0  0  0
 16 15  1  0
 15 14  1  0
 14 21  2  0
 21 20  1  0
 20 18  2  0
 19 18  1  0
 18 17  1  0
 17 13  2  0
 14 13  1  0
 13 12  1  0
 12 10  1  0
 11 10  2  0
 10  9  1  0
  9  7  1  0
  7  6  1  0
  6  5  1  0
  5  4  1  0
  4  2  1  6
  3  2  1  0
  2  1  2  0
  8  4  1  0
  9  8  1  0
M  END
>  <id>  (244) 
244

>  <inchikey>  (244) 
WOSHQSSTXNWEDB-JTQLQIEISA-N

>  <alias>  (244) 
A3940a

>  <smiles>  (244) 
COc1ccc(Cl)cc1CC(=O)N1CCC[C@H](C(N)=O)C1

>  <path>  (244) 
/opt/xchem-fragalysis-2/maxwin/BulkDock/TARGETS/A71EV2A/aligned_files/A3940a/A3940a.pdb

>  <distance_score>  (244) 
None

>  <energy_score>  (244) 
None

>  <compound>  (244) 
WOSHQSSTXNWEDB-UHFFFAOYSA-N

>  <compound_id>  (244) 
195

>  <target>  (244) 
A71EV2A

>  <tags>  (244) 
['GOOD count', 'MEDIOCRE count', '[Other] S1 site', 'hits', '[Other] S2 site', '[Other] P3 compound design', '[Other] upload_2 2024-12-12', 'Main status', '[Series] Piperidine series', 'BAD count']

>  <inspirations>  (244) 
None

>  <subsites>  (244) 
None

>  <reference>  (244) 


>  <observation_longname>  (244) 
A71EV2A-x3940_A_201_v1

>  <ConformerSites alias>  (244) 
1b - A0911/A/147

>  <CanonSites alias>  (244) 
1 - Active Site

>  <CrystalformSites alias>  (244) 
F8h - A0884/A/147

>  <Quatassemblies alias>  (244) 
A1 - monomer

>  <Crystalforms alias>  (244) 
F8 - A712A_x4271_2.1_refmac1_1st_ref

>  <ConformerSites upload name>  (244) 
1b - A71EV2A-x0911/A/147

>  <CanonSites upload name>  (244) 
1 - A71EV2A-x0911/A/147/1

>  <CrystalformSites upload name>  (244) 
F8h - A71EV2A-x0884/A/147/1

>  <Quatassemblies upload name>  (244) 
A1 - monomer

>  <Crystalforms upload name>  (244) 
F8 - A712A_x4271_2.1_refmac1_1st_ref

>  <ConformerSites short tag>  (244) 
1b - A0911/A/147

>  <CanonSites short tag>  (244) 
1 - A0911/A/147/1

>  <CrystalformSites short tag>  (244) 
F8h - A0884/A/147

>  <Quatassemblies short tag>  (244) 
A1 - monomer

>  <Crystalforms short tag>  (244) 
F8 - A712A_x4271_2.1_refmac1_1st_ref

>  <Centroid res>  (244) 
A71EV2A-x0911/A/133/A_v1

>  <Experiment code>  (244) 
A71EV2A-x3940

>  <Pose>  (244) 
A3940a

$$$$
A3942a
     RDKit          3D

 21 22  0  0  0  0  0  0  0  0999 V2000
   10.3840   16.6790   19.1660 O   0  0  0  0  0  0  0  0  0  0  0  0
   10.7820   15.5370   19.4170 C   0  0  0  0  0  0  0  0  0  0  0  0
   11.1280   14.6690   18.4790 N   0  0  0  0  0  0  0  0  0  0  0  0
   10.8620   15.0310   20.8470 C   0  0  1  0  0  0  0  0  0  0  0  0
   11.9670   15.7430   21.6470 C   0  0  0  0  0  0  0  0  0  0  0  0
   12.0180   15.2470   23.0950 C   0  0  0  0  0  0  0  0  0  0  0  0
   10.6580   15.3790   23.7580 C   0  0  0  0  0  0  0  0  0  0  0  0
    9.5290   15.2370   21.5710 C   0  0  0  0  0  0  0  0  0  0  0  0
    9.6280   14.7240   22.9370 N   0  0  0  0  0  0  0  0  0  0  0  0
    8.8580   13.6920   23.3300 C   0  0  0  0  0  0  0  0  0  0  0  0
    7.8920   13.3140   22.6810 O   0  0  0  0  0  0  0  0  0  0  0  0
    9.2710   13.0040   24.6150 C   0  0  0  0  0  0  0  0  0  0  0  0
    8.1810   12.0870   25.1100 C   0  0  0  0  0  0  0  0  0  0  0  0
    8.1510   10.7500   24.6910 C   0  0  0  0  0  0  0  0  0  0  0  0
    9.0810   10.4260   23.7370 O   0  0  0  0  0  0  0  0  0  0  0  0
    9.3790    9.0450   23.5230 C   0  0  0  0  0  0  0  0  0  0  0  0
    7.1910   12.5190   25.9950 C   0  0  0  0  0  0  0  0  0  0  0  0
    7.0800   14.2140   26.3940 Cl  0  0  0  0  0  0  0  0  0  0  0  0
    6.2390   11.6550   26.5050 C   0  0  0  0  0  0  0  0  0  0  0  0
    6.2440   10.3310   26.1010 C   0  0  0  0  0  0  0  0  0  0  0  0
    7.1900    9.8760   25.1910 C   0  0  0  0  0  0  0  0  0  0  0  0
 16 15  1  0
 15 14  1  0
 14 21  2  0
 21 20  1  0
 20 19  2  0
 19 17  1  0
 18 17  1  0
 17 13  2  0
 14 13  1  0
 13 12  1  0
 12 10  1  0
 11 10  2  0
 10  9  1  0
  9  7  1  0
  7  6  1  0
  6  5  1  0
  5  4  1  0
  4  2  1  6
  3  2  1  0
  2  1  2  0
  8  4  1  0
  9  8  1  0
M  END
>  <id>  (245) 
245

>  <inchikey>  (245) 
NHPQEFHMDYOTOA-JTQLQIEISA-N

>  <alias>  (245) 
A3942a

>  <smiles>  (245) 
COc1cccc(Cl)c1CC(=O)N1CCC[C@H](C(N)=O)C1

>  <path>  (245) 
/opt/xchem-fragalysis-2/maxwin/BulkDock/TARGETS/A71EV2A/aligned_files/A3942a/A3942a.pdb

>  <distance_score>  (245) 
None

>  <energy_score>  (245) 
None

>  <compound>  (245) 
NHPQEFHMDYOTOA-UHFFFAOYSA-N

>  <compound_id>  (245) 
182

>  <target>  (245) 
A71EV2A

>  <tags>  (245) 
['GOOD count', 'MEDIOCRE count', '[Other] S1 site', 'hits', '[Other] S2 site', '[Other] P3 compound design', '[Other] upload_1 2025-02-12', 'Main status', '[Series] Piperidine series', 'BAD count']

>  <inspirations>  (245) 
None

>  <subsites>  (245) 
None

>  <reference>  (245) 


>  <observation_longname>  (245) 
A71EV2A-x3942_A_201_v1

>  <ConformerSites alias>  (245) 
1b - A0911/A/147

>  <CanonSites alias>  (245) 
1 - Active Site

>  <CrystalformSites alias>  (245) 
F8h - A0884/A/147

>  <Quatassemblies alias>  (245) 
A1 - monomer

>  <Crystalforms alias>  (245) 
F8 - A712A_x4271_2.1_refmac1_1st_ref

>  <ConformerSites upload name>  (245) 
1b - A71EV2A-x0911/A/147

>  <CanonSites upload name>  (245) 
1 - A71EV2A-x0911/A/147/1

>  <CrystalformSites upload name>  (245) 
F8h - A71EV2A-x0884/A/147/1

>  <Quatassemblies upload name>  (245) 
A1 - monomer

>  <Crystalforms upload name>  (245) 
F8 - A712A_x4271_2.1_refmac1_1st_ref

>  <ConformerSites short tag>  (245) 
1b - A0911/A/147

>  <CanonSites short tag>  (245) 
1 - A0911/A/147/1

>  <CrystalformSites short tag>  (245) 
F8h - A0884/A/147

>  <Quatassemblies short tag>  (245) 
A1 - monomer

>  <Crystalforms short tag>  (245) 
F8 - A712A_x4271_2.1_refmac1_1st_ref

>  <Centroid res>  (245) 
A71EV2A-x0911/A/133/A_v1

>  <Experiment code>  (245) 
A71EV2A-x3942

>  <Pose>  (245) 
A3942a

$$$$
A3944a
     RDKit          3D

 27 29  0  0  0  0  0  0  0  0999 V2000
   10.2740   16.5990   19.1020 O   0  0  0  0  0  0  0  0  0  0  0  0
   10.6300   15.4420   19.3590 C   0  0  0  0  0  0  0  0  0  0  0  0
   10.9550   14.5590   18.4300 N   0  0  0  0  0  0  0  0  0  0  0  0
   10.6850   14.9350   20.7900 C   0  0  1  0  0  0  0  0  0  0  0  0
   11.8010   15.6040   21.6030 C   0  0  0  0  0  0  0  0  0  0  0  0
   11.9040   14.9740   22.9940 C   0  0  0  0  0  0  0  0  0  0  0  0
   10.5490   14.9890   23.7110 C   0  0  0  0  0  0  0  0  0  0  0  0
    9.3660   15.1110   21.5430 C   0  0  0  0  0  0  0  0  0  0  0  0
    9.4740   14.4610   22.8520 N   0  0  0  0  0  0  0  0  0  0  0  0
    8.6370   13.4500   23.1800 C   0  0  0  0  0  0  0  0  0  0  0  0
    7.6620   13.1730   22.5020 O   0  0  0  0  0  0  0  0  0  0  0  0
    8.9660   12.6660   24.4370 C   0  0  0  0  0  0  0  0  0  0  0  0
    7.7610   12.4270   25.3180 C   0  0  0  0  0  0  0  0  0  0  0  0
    7.3950   11.1380   25.6870 C   0  0  0  0  0  0  0  0  0  0  0  0
    6.3090   10.9220   26.5180 C   0  0  0  0  0  0  0  0  0  0  0  0
    5.5620   11.9920   26.9770 C   0  0  0  0  0  0  0  0  0  0  0  0
    7.0130   13.4990   25.7960 C   0  0  0  0  0  0  0  0  0  0  0  0
    5.9090   13.2920   26.6230 C   0  0  0  0  0  0  0  0  0  0  0  0
    5.0980   14.4850   27.0320 C   0  0  0  0  0  0  0  0  0  0  0  0
    5.0950   15.4630   26.3010 O   0  0  0  0  0  0  0  0  0  0  0  0
    4.4450   14.4760   28.2240 N   0  0  0  0  0  0  0  0  0  0  0  0
    3.6130   15.6340   28.5920 C   0  0  0  0  0  0  0  0  0  0  0  0
    2.2350   15.5620   27.9890 C   0  0  0  0  0  0  0  0  0  0  0  0
    4.5310   13.4360   29.2540 C   0  0  0  0  0  0  0  0  0  0  0  0
    5.6200   13.7660   30.2740 C   0  0  0  0  0  0  0  0  0  0  0  0
    5.5390   13.2360   31.6740 C   0  0  0  0  0  0  0  0  0  0  0  0
    6.5660   12.6940   30.7270 C   0  0  0  0  0  0  0  0  0  0  0  0
 23 22  1  0
 22 21  1  0
 24 21  1  0
 25 24  1  0
 25 27  1  0
 27 26  1  0
 26 25  1  0
 21 19  1  0
 20 19  2  0
 19 18  1  0
 18 16  2  0
 16 15  1  0
 15 14  2  0
 14 13  1  0
 13 12  1  0
 12 10  1  0
 11 10  2  0
 10  9  1  0
  9  7  1  0
  7  6  1  0
  6  5  1  0
  5  4  1  0
  4  2  1  6
  3  2  1  0
  2  1  2  0
  8  4  1  0
  9  8  1  0
 17 13  2  0
 18 17  1  0
M  END
>  <id>  (246) 
246

>  <inchikey>  (246) 
ATECCQSBFXQPQB-SFHVURJKSA-N

>  <alias>  (246) 
A3944a

>  <smiles>  (246) 
CCN(CC1CC1)C(=O)c1cccc(CC(=O)N2CCC[C@H](C(N)=O)C2)c1

>  <path>  (246) 
/opt/xchem-fragalysis-2/maxwin/BulkDock/TARGETS/A71EV2A/aligned_files/A3944a/A3944a.pdb

>  <distance_score>  (246) 
None

>  <energy_score>  (246) 
None

>  <compound>  (246) 
ATECCQSBFXQPQB-UHFFFAOYSA-N

>  <compound_id>  (246) 
196

>  <target>  (246) 
A71EV2A

>  <tags>  (246) 
['GOOD count', 'MEDIOCRE count', '[Other] S1 site', 'hits', '[Other] S2 site', '[Other] P3 compound design', '[Other] upload_1 2025-02-12', 'Main status', '[Series] Piperidine series', 'BAD count']

>  <inspirations>  (246) 
None

>  <subsites>  (246) 
None

>  <reference>  (246) 


>  <observation_longname>  (246) 
A71EV2A-x3944_A_201_v1

>  <ConformerSites alias>  (246) 
1b - A0911/A/147

>  <CanonSites alias>  (246) 
1 - Active Site

>  <CrystalformSites alias>  (246) 
F8h - A0884/A/147

>  <Quatassemblies alias>  (246) 
A1 - monomer

>  <Crystalforms alias>  (246) 
F8 - A712A_x4271_2.1_refmac1_1st_ref

>  <ConformerSites upload name>  (246) 
1b - A71EV2A-x0911/A/147

>  <CanonSites upload name>  (246) 
1 - A71EV2A-x0911/A/147/1

>  <CrystalformSites upload name>  (246) 
F8h - A71EV2A-x0884/A/147/1

>  <Quatassemblies upload name>  (246) 
A1 - monomer

>  <Crystalforms upload name>  (246) 
F8 - A712A_x4271_2.1_refmac1_1st_ref

>  <ConformerSites short tag>  (246) 
1b - A0911/A/147

>  <CanonSites short tag>  (246) 
1 - A0911/A/147/1

>  <CrystalformSites short tag>  (246) 
F8h - A0884/A/147

>  <Quatassemblies short tag>  (246) 
A1 - monomer

>  <Crystalforms short tag>  (246) 
F8 - A712A_x4271_2.1_refmac1_1st_ref

>  <Centroid res>  (246) 
A71EV2A-x0911/A/133/A_v1

>  <Experiment code>  (246) 
A71EV2A-x3944

>  <Pose>  (246) 
A3944a

$$$$
A3954a
     RDKit          3D

 22 24  0  0  0  0  0  0  0  0999 V2000
   10.3620   16.6710   18.9200 O   0  0  0  0  0  0  0  0  0  0  0  0
   10.7090   15.5460   19.2930 C   0  0  0  0  0  0  0  0  0  0  0  0
   11.0520   14.5830   18.4510 N   0  0  0  0  0  0  0  0  0  0  0  0
   10.7600   15.1860   20.7680 C   0  0  1  0  0  0  0  0  0  0  0  0
   11.8530   15.9740   21.5060 C   0  0  0  0  0  0  0  0  0  0  0  0
   11.9280   15.5950   22.9900 C   0  0  0  0  0  0  0  0  0  0  0  0
   10.5690   15.7270   23.6590 C   0  0  0  0  0  0  0  0  0  0  0  0
    9.4380   15.4330   21.5010 C   0  0  0  0  0  0  0  0  0  0  0  0
    9.5470   14.9940   22.8970 N   0  0  0  0  0  0  0  0  0  0  0  0
    8.7550   14.0130   23.3730 C   0  0  0  0  0  0  0  0  0  0  0  0
    8.0840   13.3240   22.6260 O   0  0  0  0  0  0  0  0  0  0  0  0
    8.6880   13.7930   24.8830 C   0  0  1  0  0  0  0  0  0  0  0  0
    7.6500   14.7240   25.5840 C   0  0  0  0  0  0  0  0  0  0  0  0
    6.8260   13.8390   26.5400 C   0  0  0  0  0  0  0  0  0  0  0  0
    7.0300   12.4490   25.9940 C   0  0  0  0  0  0  0  0  0  0  0  0
    6.3780   11.2500   26.2510 C   0  0  0  0  0  0  0  0  0  0  0  0
    6.8140   10.0840   25.6480 C   0  0  0  0  0  0  0  0  0  0  0  0
    8.1160   12.4130   25.1130 C   0  0  0  0  0  0  0  0  0  0  0  0
    8.5770   11.2950   24.5310 N   0  0  0  0  0  0  0  0  0  0  0  0
    7.9380   10.1610   24.8010 C   0  0  0  0  0  0  0  0  0  0  0  0
    8.3500    8.9840   24.2750 O   0  0  0  0  0  0  0  0  0  0  0  0
    9.6060    8.9490   23.5900 C   0  0  0  0  0  0  0  0  0  0  0  0
 22 21  1  0
 21 20  1  0
 20 17  1  0
 17 16  2  0
 16 15  1  0
 15 18  2  0
 19 18  1  0
 20 19  2  0
 18 12  1  0
 12 10  1  6
 11 10  2  0
 10  9  1  0
  9  7  1  0
  7  6  1  0
  6  5  1  0
  5  4  1  0
  4  2  1  6
  3  2  1  0
  2  1  2  0
  8  4  1  0
  9  8  1  0
 13 12  1  0
 14 13  1  0
 15 14  1  0
M  END
>  <id>  (247) 
247

>  <inchikey>  (247) 
ZDYXIBCIXYHKOA-RYUDHWBXSA-N

>  <alias>  (247) 
A3954a

>  <smiles>  (247) 
COc1ccc2c(n1)[C@@H](C(=O)N1CCC[C@H](C(N)=O)C1)CC2

>  <path>  (247) 
/opt/xchem-fragalysis-2/maxwin/BulkDock/TARGETS/A71EV2A/aligned_files/A3954a/A3954a.pdb

>  <distance_score>  (247) 
None

>  <energy_score>  (247) 
None

>  <compound>  (247) 
ZDYXIBCIXYHKOA-UHFFFAOYSA-N

>  <compound_id>  (247) 
197

>  <target>  (247) 
A71EV2A

>  <tags>  (247) 
['GOOD count', 'MEDIOCRE count', '[Other] S1 site', 'hits', '[Other] S2 site', '[Other] P3 compound design', '[Other] upload_1 2025-02-12', 'Main status', '[Series] Piperidine series', 'BAD count']

>  <inspirations>  (247) 
None

>  <subsites>  (247) 
None

>  <reference>  (247) 


>  <observation_longname>  (247) 
A71EV2A-x3954_A_201_v1

>  <ConformerSites alias>  (247) 
1b - A0911/A/147

>  <CanonSites alias>  (247) 
1 - Active Site

>  <CrystalformSites alias>  (247) 
F8h - A0884/A/147

>  <Quatassemblies alias>  (247) 
A1 - monomer

>  <Crystalforms alias>  (247) 
F8 - A712A_x4271_2.1_refmac1_1st_ref

>  <ConformerSites upload name>  (247) 
1b - A71EV2A-x0911/A/147

>  <CanonSites upload name>  (247) 
1 - A71EV2A-x0911/A/147/1

>  <CrystalformSites upload name>  (247) 
F8h - A71EV2A-x0884/A/147/1

>  <Quatassemblies upload name>  (247) 
A1 - monomer

>  <Crystalforms upload name>  (247) 
F8 - A712A_x4271_2.1_refmac1_1st_ref

>  <ConformerSites short tag>  (247) 
1b - A0911/A/147

>  <CanonSites short tag>  (247) 
1 - A0911/A/147/1

>  <CrystalformSites short tag>  (247) 
F8h - A0884/A/147

>  <Quatassemblies short tag>  (247) 
A1 - monomer

>  <Crystalforms short tag>  (247) 
F8 - A712A_x4271_2.1_refmac1_1st_ref

>  <Centroid res>  (247) 
A71EV2A-x0911/A/133/A_v1

>  <Experiment code>  (247) 
A71EV2A-x3954

>  <Pose>  (247) 
A3954a

$$$$
A3956a
     RDKit          3D

 19 20  0  0  0  0  0  0  0  0999 V2000
   11.6760   15.7260   24.0790 O   0  0  0  0  0  0  0  0  0  0  0  0
   11.2040   15.4650   22.9720 C   0  0  0  0  0  0  0  0  0  0  0  0
   11.7950   15.7940   21.6310 C   0  0  0  0  0  0  0  0  0  0  0  0
   10.9850   14.8880   20.6790 C   0  0  2  0  0  0  0  0  0  0  0  0
   10.9260   15.3080   19.2200 C   0  0  0  0  0  0  0  0  0  0  0  0
   11.2730   14.5370   18.3240 O   0  0  0  0  0  0  0  0  0  0  0  0
   10.4130   16.4980   18.9690 N   0  0  0  0  0  0  0  0  0  0  0  0
    9.6190   14.8500   21.3460 C   0  0  0  0  0  0  0  0  0  0  0  0
    9.9980   14.8900   22.7620 N   0  0  0  0  0  0  0  0  0  0  0  0
    9.1480   14.3580   23.8370 C   0  0  0  0  0  0  0  0  0  0  0  0
    9.3080   12.8420   23.9260 C   0  0  0  0  0  0  0  0  0  0  0  0
    8.1920   12.0670   24.5900 C   0  0  0  0  0  0  0  0  0  0  0  0
    8.1000   10.6910   24.3860 C   0  0  0  0  0  0  0  0  0  0  0  0
    9.0000   10.1940   23.4770 O   0  0  0  0  0  0  0  0  0  0  0  0
    9.0440    8.7800   23.2750 C   0  0  0  0  0  0  0  0  0  0  0  0
    7.2890   12.6680   25.4700 C   0  0  0  0  0  0  0  0  0  0  0  0
    6.3730   11.9020   26.1800 C   0  0  0  0  0  0  0  0  0  0  0  0
    6.3360   10.5290   26.0080 C   0  0  0  0  0  0  0  0  0  0  0  0
    7.1830    9.9200   25.0930 C   0  0  0  0  0  0  0  0  0  0  0  0
 15 14  1  0
 14 13  1  0
 13 19  2  0
 19 18  1  0
 18 17  2  0
 17 16  1  0
 16 12  2  0
 13 12  1  0
 12 11  1  0
 11 10  1  0
 10  9  1  0
  9  8  1  0
  8  4  1  0
  4  5  1  6
  7  5  1  0
  6  5  2  0
  4  3  1  0
  3  2  1  0
  9  2  1  0
  2  1  2  0
M  END
>  <id>  (248) 
248

>  <inchikey>  (248) 
IZZURCOVVRSJHS-NSHDSACASA-N

>  <alias>  (248) 
A3956a

>  <smiles>  (248) 
COc1ccccc1CCN1C[C@@H](C(N)=O)CC1=O

>  <path>  (248) 
/opt/xchem-fragalysis-2/maxwin/BulkDock/TARGETS/A71EV2A/aligned_files/A3956a/A3956a.pdb

>  <distance_score>  (248) 
None

>  <energy_score>  (248) 
None

>  <compound>  (248) 
IZZURCOVVRSJHS-UHFFFAOYSA-N

>  <compound_id>  (248) 
198

>  <target>  (248) 
A71EV2A

>  <tags>  (248) 
['GOOD count', 'MEDIOCRE count', '[Other] S1 site', 'hits', '[Other] S2 site', '[Other] Lactam Series', '[Other] P3 compound design', 'Main status', '[Other] upload_061224', 'BAD count']

>  <inspirations>  (248) 
None

>  <subsites>  (248) 
None

>  <reference>  (248) 


>  <observation_longname>  (248) 
A71EV2A-x3956_A_201_v1

>  <ConformerSites alias>  (248) 
1b - A0911/A/147

>  <CanonSites alias>  (248) 
1 - Active Site

>  <CrystalformSites alias>  (248) 
F5i - A3175/A/201

>  <Quatassemblies alias>  (248) 
A1 - monomer

>  <Crystalforms alias>  (248) 
F5 - A71EV2A_x3178_new_long_dials_041024

>  <ConformerSites upload name>  (248) 
1b - A71EV2A-x0911/A/147

>  <CanonSites upload name>  (248) 
1 - A71EV2A-x0911/A/147/1

>  <CrystalformSites upload name>  (248) 
F5i - A71EV2A-x3175/A/201/1

>  <Quatassemblies upload name>  (248) 
A1 - monomer

>  <Crystalforms upload name>  (248) 
F5 - A71EV2A_x3178_new_long_dials_041024

>  <ConformerSites short tag>  (248) 
1b - A0911/A/147

>  <CanonSites short tag>  (248) 
1 - A0911/A/147/1

>  <CrystalformSites short tag>  (248) 
F5i - A3175/A/201

>  <Quatassemblies short tag>  (248) 
A1 - monomer

>  <Crystalforms short tag>  (248) 
F5 - A71EV2A_x3178_new_long_dials_041024

>  <Centroid res>  (248) 
A71EV2A-x0911/A/133/A_v1

>  <Experiment code>  (248) 
A71EV2A-x3956

>  <Pose>  (248) 
A3956a

$$$$
A3963a
     RDKit          3D

 19 20  0  0  0  0  0  0  0  0999 V2000
    7.5720   13.3200   22.4770 O   0  0  0  0  0  0  0  0  0  0  0  0
    8.5180   13.6500   23.1740 C   0  0  0  0  0  0  0  0  0  0  0  0
    9.3070   14.6950   22.8660 N   0  0  0  0  0  0  0  0  0  0  0  0
   10.3470   15.2600   23.7390 C   0  0  0  0  0  0  0  0  0  0  0  0
   11.7300   15.1470   23.1040 C   0  0  0  0  0  0  0  0  0  0  0  0
   11.7140   15.6710   21.6660 C   0  0  0  0  0  0  0  0  0  0  0  0
    9.2660   15.2610   21.5150 C   0  0  0  0  0  0  0  0  0  0  0  0
   10.6100   14.9960   20.8380 C   0  0  1  0  0  0  0  0  0  0  0  0
   10.6510   15.4240   19.3820 C   0  0  0  0  0  0  0  0  0  0  0  0
   10.9480   14.6200   18.4920 O   0  0  0  0  0  0  0  0  0  0  0  0
   10.3230   16.6850   19.1350 N   0  0  0  0  0  0  0  0  0  0  0  0
    8.9590   12.8490   24.3840 C   0  0  0  0  0  0  0  0  0  0  0  0
    7.8970   11.9000   24.8820 C   0  0  0  0  0  0  0  0  0  0  0  0
    8.0030   10.4810   24.7260 C   0  0  0  0  0  0  0  0  0  0  0  0
    9.0030    9.9230   24.0230 N   0  0  0  0  0  0  0  0  0  0  0  0
    7.1450    9.6420   25.3410 N   0  0  0  0  0  0  0  0  0  0  0  0
    6.2030   10.1590   26.1430 C   0  0  0  0  0  0  0  0  0  0  0  0
    6.0200   11.5030   26.3340 C   0  0  0  0  0  0  0  0  0  0  0  0
    6.8640   12.3790   25.6830 C   0  0  0  0  0  0  0  0  0  0  0  0
 11  9  1  0
 10  9  2  0
  8  9  1  6
  8  6  1  0
  6  5  1  0
  5  4  1  0
  4  3  1  0
  3  2  1  0
  2  1  2  0
 12  2  1  0
 13 12  1  0
 13 19  2  0
 19 18  1  0
 18 17  2  0
 17 16  1  0
 16 14  2  0
 14 13  1  0
 15 14  1  0
  7  3  1  0
  8  7  1  0
M  END
>  <id>  (249) 
249

>  <inchikey>  (249) 
UWGHAGSZEJRSBU-JTQLQIEISA-N

>  <alias>  (249) 
A3963a

>  <smiles>  (249) 
NC(=O)[C@H]1CCCN(C(=O)Cc2cccnc2N)C1

>  <path>  (249) 
/opt/xchem-fragalysis-2/maxwin/BulkDock/TARGETS/A71EV2A/aligned_files/A3963a/A3963a_hippo.pdb

>  <distance_score>  (249) 
None

>  <energy_score>  (249) 
None

>  <compound>  (249) 
UWGHAGSZEJRSBU-UHFFFAOYSA-N

>  <compound_id>  (249) 
199

>  <target>  (249) 
A71EV2A

>  <tags>  (249) 
['GOOD count', 'MEDIOCRE count', '[Other] S1 site', 'hits', '[Other] S2 site', '[Other] P3 compound design', '[Series] Piperidine series', 'Main status', '[Other] upload_061224', 'BAD count']

>  <inspirations>  (249) 
None

>  <subsites>  (249) 
None

>  <reference>  (249) 


>  <observation_longname>  (249) 
A71EV2A-x3963_A_201_v1

>  <ConformerSites alias>  (249) 
1b - A0911/A/147

>  <CanonSites alias>  (249) 
1 - Active Site

>  <CrystalformSites alias>  (249) 
F7j - A3509/A/201

>  <Quatassemblies alias>  (249) 
A1 - monomer

>  <Crystalforms alias>  (249) 
F7 - A712A_x4207_8.1_refmac1_1st_ref

>  <ConformerSites upload name>  (249) 
1b - A71EV2A-x0911/A/147

>  <CanonSites upload name>  (249) 
1 - A71EV2A-x0911/A/147/1

>  <CrystalformSites upload name>  (249) 
F7j - A71EV2A-x3509/A/201/1

>  <Quatassemblies upload name>  (249) 
A1 - monomer

>  <Crystalforms upload name>  (249) 
F7 - A712A_x4207_8.1_refmac1_1st_ref

>  <ConformerSites short tag>  (249) 
1b - A0911/A/147

>  <CanonSites short tag>  (249) 
1 - A0911/A/147/1

>  <CrystalformSites short tag>  (249) 
F7j - A3509/A/201

>  <Quatassemblies short tag>  (249) 
A1 - monomer

>  <Crystalforms short tag>  (249) 
F7 - A712A_x4207_8.1_refmac1_1st_ref

>  <Centroid res>  (249) 
A71EV2A-x0911/A/133/A_v1

>  <Experiment code>  (249) 
A71EV2A-x3963

>  <Pose>  (249) 
A3963a

$$$$
A3963b
     RDKit          3D

 19 20  0  0  0  0  0  0  0  0999 V2000
    7.9230   13.2890   22.6340 O   0  0  0  0  0  0  0  0  0  0  0  0
    8.8630   13.6910   23.3240 C   0  0  0  0  0  0  0  0  0  0  0  0
    9.6550   14.7190   22.9450 N   0  0  0  0  0  0  0  0  0  0  0  0
   10.6800   15.3910   23.7620 C   0  0  0  0  0  0  0  0  0  0  0  0
   12.0470   15.2950   23.0930 C   0  0  0  0  0  0  0  0  0  0  0  0
   11.9770   15.7900   21.6520 C   0  0  0  0  0  0  0  0  0  0  0  0
    9.5540   15.2300   21.5750 C   0  0  0  0  0  0  0  0  0  0  0  0
   10.8930   15.0400   20.8620 C   0  0  1  0  0  0  0  0  0  0  0  0
   10.7820   15.5600   19.4420 C   0  0  0  0  0  0  0  0  0  0  0  0
   10.4150   16.7250   19.2160 O   0  0  0  0  0  0  0  0  0  0  0  0
   11.0330   14.6690   18.4860 N   0  0  0  0  0  0  0  0  0  0  0  0
    9.2550   13.0430   24.6420 C   0  0  0  0  0  0  0  0  0  0  0  0
    8.2650   11.9980   25.0980 C   0  0  0  0  0  0  0  0  0  0  0  0
    8.3600   10.6220   24.7150 C   0  0  0  0  0  0  0  0  0  0  0  0
    9.2680   10.2020   23.8210 N   0  0  0  0  0  0  0  0  0  0  0  0
    7.5340    9.6890   25.2340 N   0  0  0  0  0  0  0  0  0  0  0  0
    6.6180   10.0700   26.1370 C   0  0  0  0  0  0  0  0  0  0  0  0
    6.4520   11.3640   26.5490 C   0  0  0  0  0  0  0  0  0  0  0  0
    7.2750   12.3360   26.0160 C   0  0  0  0  0  0  0  0  0  0  0  0
 11  9  1  0
 10  9  2  0
  8  9  1  6
  8  6  1  0
  6  5  1  0
  5  4  1  0
  4  3  1  0
  3  2  1  0
  2  1  2  0
 12  2  1  0
 13 12  1  0
 13 19  2  0
 19 18  1  0
 18 17  2  0
 17 16  1  0
 16 14  2  0
 14 13  1  0
 15 14  1  0
  7  3  1  0
  8  7  1  0
M  END
>  <id>  (250) 
250

>  <inchikey>  (250) 
UWGHAGSZEJRSBU-JTQLQIEISA-N

>  <alias>  (250) 
A3963b

>  <smiles>  (250) 
NC(=O)[C@H]1CCCN(C(=O)Cc2cccnc2N)C1

>  <path>  (250) 
/opt/xchem-fragalysis-2/maxwin/BulkDock/TARGETS/A71EV2A/aligned_files/A3963b/A3963b_hippo.pdb

>  <distance_score>  (250) 
None

>  <energy_score>  (250) 
None

>  <compound>  (250) 
UWGHAGSZEJRSBU-UHFFFAOYSA-N

>  <compound_id>  (250) 
199

>  <target>  (250) 
A71EV2A

>  <tags>  (250) 
['GOOD count', 'MEDIOCRE count', '[Other] S1 site', 'hits', '[Other] S2 site', '[Other] P3 compound design', '[Series] Piperidine series', 'Main status', '[Other] upload_061224', 'BAD count']

>  <inspirations>  (250) 
None

>  <subsites>  (250) 
None

>  <reference>  (250) 


>  <observation_longname>  (250) 
A71EV2A-x3963_C_201_v1

>  <ConformerSites alias>  (250) 
1b - A0911/A/147

>  <CanonSites alias>  (250) 
1 - Active Site

>  <CrystalformSites alias>  (250) 
F7k - A3509/C/201

>  <Quatassemblies alias>  (250) 
A1 - monomer

>  <Crystalforms alias>  (250) 
F7 - A712A_x4207_8.1_refmac1_1st_ref

>  <ConformerSites upload name>  (250) 
1b - A71EV2A-x0911/A/147

>  <CanonSites upload name>  (250) 
1 - A71EV2A-x0911/A/147/1

>  <CrystalformSites upload name>  (250) 
F7k - A71EV2A-x3509/C/201/1

>  <Quatassemblies upload name>  (250) 
A1 - monomer

>  <Crystalforms upload name>  (250) 
F7 - A712A_x4207_8.1_refmac1_1st_ref

>  <ConformerSites short tag>  (250) 
1b - A0911/A/147

>  <CanonSites short tag>  (250) 
1 - A0911/A/147/1

>  <CrystalformSites short tag>  (250) 
F7k - A3509/C/201

>  <Quatassemblies short tag>  (250) 
A1 - monomer

>  <Crystalforms short tag>  (250) 
F7 - A712A_x4207_8.1_refmac1_1st_ref

>  <Centroid res>  (250) 
A71EV2A-x0911/A/133/A_v1

>  <Experiment code>  (250) 
A71EV2A-x3963

>  <Pose>  (250) 
A3963a

$$$$
A3968a
     RDKit          3D

 25 27  0  0  0  0  0  0  0  0999 V2000
    6.9270   13.5590   22.1010 O   0  0  0  0  0  0  0  0  0  0  0  0
    7.6730   13.8920   22.9900 C   0  0  0  0  0  0  0  0  0  0  0  0
    8.6690   14.7790   22.7650 N   0  0  0  0  0  0  0  0  0  0  0  0
    9.6820   15.3170   23.6800 C   0  0  0  0  0  0  0  0  0  0  0  0
   11.0860   15.1480   23.1390 C   0  0  0  0  0  0  0  0  0  0  0  0
   11.1920   15.6830   21.7140 C   0  0  0  0  0  0  0  0  0  0  0  0
    8.7700   15.3670   21.4290 C   0  0  0  0  0  0  0  0  0  0  0  0
   10.1310   15.0510   20.8140 C   0  0  1  0  0  0  0  0  0  0  0  0
   10.2340   15.5720   19.3910 C   0  0  0  0  0  0  0  0  0  0  0  0
    9.8810   16.7200   19.1050 O   0  0  0  0  0  0  0  0  0  0  0  0
   10.7500   14.7380   18.5030 N   0  0  0  0  0  0  0  0  0  0  0  0
    7.4380   13.2830   24.3850 C   0  0  1  0  0  0  0  0  0  0  0  0
    8.1350   11.9450   24.4140 C   0  0  0  0  0  0  0  0  0  0  0  0
    7.4870   10.8220   24.8930 C   0  0  0  0  0  0  0  0  0  0  0  0
    8.0780    9.5750   24.7980 C   0  0  0  0  0  0  0  0  0  0  0  0
    9.3220    9.4400   24.2370 C   0  0  0  0  0  0  0  0  0  0  0  0
    9.9860   10.5470   23.7790 C   0  0  0  0  0  0  0  0  0  0  0  0
    9.3990   11.7960   23.8680 C   0  0  0  0  0  0  0  0  0  0  0  0
    8.0200   13.9880   25.4830 O   0  0  0  0  0  0  0  0  0  0  0  0
    7.1510   14.9670   26.0560 C   0  0  0  0  0  0  0  0  0  0  0  0
    5.9960   14.3150   26.7720 C   0  0  0  0  0  0  0  0  0  0  0  0
    4.8580   15.2800   27.1010 C   0  0  0  0  0  0  0  0  0  0  0  0
    4.0990   14.6140   28.2440 C   0  0  0  0  0  0  0  0  0  0  0  0
    5.0610   13.6110   28.8740 C   0  0  0  0  0  0  0  0  0  0  0  0
    6.3820   13.7780   28.1510 C   0  0  0  0  0  0  0  0  0  0  0  0
 11  9  1  0
 10  9  2  0
  8  9  1  6
  8  6  1  0
  6  5  1  0
  5  4  1  0
  4  3  1  0
  3  2  1  0
  2  1  2  0
 12  2  1  0
 12 19  1  1
 20 19  1  0
 21 20  1  0
 21 25  1  0
 25 24  1  0
 24 23  1  0
 23 22  1  0
 22 21  1  0
 13 12  1  0
 13 18  2  0
 18 17  1  0
 17 16  2  0
 16 15  1  0
 15 14  2  0
 14 13  1  0
  7  3  1  0
  8  7  1  0
M  END
>  <id>  (251) 
251

>  <inchikey>  (251) 
FNAQVGAMQZPXGH-ZWKOTPCHSA-N

>  <alias>  (251) 
A3968a

>  <smiles>  (251) 
NC(=O)[C@H]1CCCN(C(=O)[C@H](OCC2CCCC2)c2ccccc2)C1

>  <path>  (251) 
/opt/xchem-fragalysis-2/maxwin/BulkDock/TARGETS/A71EV2A/aligned_files/A3968a/A3968a.pdb

>  <distance_score>  (251) 
None

>  <energy_score>  (251) 
None

>  <compound>  (251) 
FNAQVGAMQZPXGH-UHFFFAOYSA-N

>  <compound_id>  (251) 
200

>  <target>  (251) 
A71EV2A

>  <tags>  (251) 
['GOOD count', 'MEDIOCRE count', '[Other] S1 site', 'hits', '[Other] S2 site', '[Other] P3 compound design', '[Other] upload_1 2025-02-12', 'Main status', '[Series] Piperidine series', 'BAD count']

>  <inspirations>  (251) 
None

>  <subsites>  (251) 
None

>  <reference>  (251) 


>  <observation_longname>  (251) 
A71EV2A-x3968_A_201_v1

>  <ConformerSites alias>  (251) 
1b - A0911/A/147

>  <CanonSites alias>  (251) 
1 - Active Site

>  <CrystalformSites alias>  (251) 
F8h - A0884/A/147

>  <Quatassemblies alias>  (251) 
A1 - monomer

>  <Crystalforms alias>  (251) 
F8 - A712A_x4271_2.1_refmac1_1st_ref

>  <ConformerSites upload name>  (251) 
1b - A71EV2A-x0911/A/147

>  <CanonSites upload name>  (251) 
1 - A71EV2A-x0911/A/147/1

>  <CrystalformSites upload name>  (251) 
F8h - A71EV2A-x0884/A/147/1

>  <Quatassemblies upload name>  (251) 
A1 - monomer

>  <Crystalforms upload name>  (251) 
F8 - A712A_x4271_2.1_refmac1_1st_ref

>  <ConformerSites short tag>  (251) 
1b - A0911/A/147

>  <CanonSites short tag>  (251) 
1 - A0911/A/147/1

>  <CrystalformSites short tag>  (251) 
F8h - A0884/A/147

>  <Quatassemblies short tag>  (251) 
A1 - monomer

>  <Crystalforms short tag>  (251) 
F8 - A712A_x4271_2.1_refmac1_1st_ref

>  <Centroid res>  (251) 
A71EV2A-x0911/A/133/A_v1

>  <Experiment code>  (251) 
A71EV2A-x3968

>  <Pose>  (251) 
A3968a

$$$$
A3975a
     RDKit          3D

 24 26  0  0  0  0  0  0  0  0999 V2000
    7.3350   13.6670   22.2970 O   0  0  0  0  0  0  0  0  0  0  0  0
    8.1670   14.0150   23.1140 C   0  0  0  0  0  0  0  0  0  0  0  0
    9.2170   14.8010   22.7690 N   0  0  0  0  0  0  0  0  0  0  0  0
   10.3470   15.1410   23.6530 C   0  0  0  0  0  0  0  0  0  0  0  0
   11.6980   14.8370   23.0060 C   0  0  0  0  0  0  0  0  0  0  0  0
   11.7820   15.4350   21.5970 C   0  0  0  0  0  0  0  0  0  0  0  0
    9.2920   15.3770   21.4250 C   0  0  0  0  0  0  0  0  0  0  0  0
   10.5960   14.9610   20.7350 C   0  0  1  0  0  0  0  0  0  0  0  0
   10.6820   15.5100   19.3230 C   0  0  0  0  0  0  0  0  0  0  0  0
   10.3150   16.6600   19.0690 O   0  0  0  0  0  0  0  0  0  0  0  0
   11.1370   14.6750   18.3980 N   0  0  0  0  0  0  0  0  0  0  0  0
    8.0330   13.5610   24.5670 C   0  0  2  0  0  0  0  0  0  0  0  0
    8.2450   12.0550   24.4880 C   0  0  0  0  0  0  0  0  0  0  0  0
    7.3860   11.1690   25.1230 C   0  0  0  0  0  0  0  0  0  0  0  0
    7.5390    9.8040   24.9660 C   0  0  0  0  0  0  0  0  0  0  0  0
    8.5680    9.3010   24.1970 C   0  0  0  0  0  0  0  0  0  0  0  0
    9.4420   10.1650   23.5810 C   0  0  0  0  0  0  0  0  0  0  0  0
    9.2810   11.5340   23.7220 C   0  0  0  0  0  0  0  0  0  0  0  0
    6.6370   13.9580   25.0950 C   0  0  0  0  0  0  0  0  0  0  0  0
    6.4120   15.4120   25.1140 N   0  0  0  0  0  0  0  0  0  0  0  0
    5.0540   15.7760   25.5310 C   0  0  0  0  0  0  0  0  0  0  0  0
    5.1530   17.2580   25.8140 C   0  0  0  0  0  0  0  0  0  0  0  0
    6.5800   17.4570   26.2860 C   0  0  0  0  0  0  0  0  0  0  0  0
    7.2780   16.1180   26.0680 C   0  0  0  0  0  0  0  0  0  0  0  0
 11  9  1  0
 10  9  2  0
  8  9  1  6
  8  6  1  0
  6  5  1  0
  5  4  1  0
  4  3  1  0
  3  2  1  0
  2  1  2  0
 12  2  1  0
 12 19  1  6
 20 19  1  0
 20 24  1  0
 24 23  1  0
 23 22  1  0
 22 21  1  0
 21 20  1  0
 13 12  1  0
 13 18  2  0
 18 17  1  0
 17 16  2  0
 16 15  1  0
 15 14  2  0
 14 13  1  0
  7  3  1  0
  8  7  1  0
M  END
>  <id>  (252) 
252

>  <inchikey>  (252) 
NBHKSQZOSDYBJT-IRXDYDNUSA-N

>  <alias>  (252) 
A3975a

>  <smiles>  (252) 
NC(=O)[C@H]1CCCN(C(=O)[C@@H](CN2CCCC2)c2ccccc2)C1

>  <path>  (252) 
/opt/xchem-fragalysis-2/maxwin/BulkDock/TARGETS/A71EV2A/aligned_files/A3975a/A3975a.pdb

>  <distance_score>  (252) 
None

>  <energy_score>  (252) 
None

>  <compound>  (252) 
NBHKSQZOSDYBJT-UHFFFAOYSA-N

>  <compound_id>  (252) 
201

>  <target>  (252) 
A71EV2A

>  <tags>  (252) 
['GOOD count', 'MEDIOCRE count', '[Other] S1 site', 'hits', '[Other] S2 site', '[Other] P3 compound design', '[Other] upload_1 2025-02-12', 'Main status', '[Series] Piperidine series', 'BAD count']

>  <inspirations>  (252) 
None

>  <subsites>  (252) 
None

>  <reference>  (252) 


>  <observation_longname>  (252) 
A71EV2A-x3975_A_201_v1

>  <ConformerSites alias>  (252) 
1b - A0911/A/147

>  <CanonSites alias>  (252) 
1 - Active Site

>  <CrystalformSites alias>  (252) 
F1a - A0375/A/201

>  <Quatassemblies alias>  (252) 
A1 - monomer

>  <Crystalforms alias>  (252) 
F1 - A71_2A_open

>  <ConformerSites upload name>  (252) 
1b - A71EV2A-x0911/A/147

>  <CanonSites upload name>  (252) 
1 - A71EV2A-x0911/A/147/1

>  <CrystalformSites upload name>  (252) 
F1a - A71EV2A-x0375/A/201/1

>  <Quatassemblies upload name>  (252) 
A1 - monomer

>  <Crystalforms upload name>  (252) 
F1 - A71_2A_open

>  <ConformerSites short tag>  (252) 
1b - A0911/A/147

>  <CanonSites short tag>  (252) 
1 - A0911/A/147/1

>  <CrystalformSites short tag>  (252) 
F1a - A0375/A/201

>  <Quatassemblies short tag>  (252) 
A1 - monomer

>  <Crystalforms short tag>  (252) 
F1 - A71_2A_open

>  <Centroid res>  (252) 
A71EV2A-x0911/A/133/A_v1

>  <Experiment code>  (252) 
A71EV2A-x3975

>  <Pose>  (252) 
A3975a

$$$$
A3977a
     RDKit          3D

 18 18  0  0  0  0  0  0  0  0999 V2000
   10.2680   16.5320   19.1130 O   0  0  0  0  0  0  0  0  0  0  0  0
   10.7660   15.4180   19.3270 C   0  0  0  0  0  0  0  0  0  0  0  0
   11.0940   14.5740   18.3610 N   0  0  0  0  0  0  0  0  0  0  0  0
   11.0480   14.9540   20.7330 C   0  0  0  0  0  0  0  0  0  0  0  0
    9.8270   15.1110   21.6240 C   0  0  0  0  0  0  0  0  0  0  0  0
    9.9820   14.4570   22.9260 N   0  0  0  0  0  0  0  0  0  0  0  0
   11.1560   14.8540   23.7000 C   0  0  0  0  0  0  0  0  0  0  0  0
    9.0830   13.5350   23.3420 C   0  0  0  0  0  0  0  0  0  0  0  0
    8.0810   13.2620   22.6800 O   0  0  0  0  0  0  0  0  0  0  0  0
    9.3190   12.9000   24.7010 C   0  0  0  0  0  0  0  0  0  0  0  0
    8.2040   11.9580   25.0960 C   0  0  0  0  0  0  0  0  0  0  0  0
    8.2170   10.6370   24.6490 C   0  0  0  0  0  0  0  0  0  0  0  0
    9.1720   10.3610   23.7040 O   0  0  0  0  0  0  0  0  0  0  0  0
    9.4250    8.9860   23.3770 C   0  0  0  0  0  0  0  0  0  0  0  0
    7.2160   12.3420   26.0020 C   0  0  0  0  0  0  0  0  0  0  0  0
    6.2990   11.4220   26.4840 C   0  0  0  0  0  0  0  0  0  0  0  0
    6.3550   10.1120   26.0720 C   0  0  0  0  0  0  0  0  0  0  0  0
    7.3050    9.7090   25.1410 C   0  0  0  0  0  0  0  0  0  0  0  0
 14 13  1  0
 13 12  1  0
 12 18  2  0
 18 17  1  0
 17 16  2  0
 16 15  1  0
 15 11  2  0
 12 11  1  0
 11 10  1  0
 10  8  1  0
  9  8  2  0
  8  6  1  0
  7  6  1  0
  6  5  1  0
  5  4  1  0
  4  2  1  0
  3  2  1  0
  2  1  2  0
M  END
>  <id>  (253) 
253

>  <inchikey>  (253) 
HYRNBUDTYVNBBW-UHFFFAOYSA-N

>  <alias>  (253) 
A3977a

>  <smiles>  (253) 
COc1ccccc1CC(=O)N(C)CCC(N)=O

>  <path>  (253) 
/opt/xchem-fragalysis-2/maxwin/BulkDock/TARGETS/A71EV2A/aligned_files/A3977a/A3977a.pdb

>  <distance_score>  (253) 
None

>  <energy_score>  (253) 
None

>  <compound>  (253) 
HYRNBUDTYVNBBW-UHFFFAOYSA-N

>  <compound_id>  (253) 
202

>  <target>  (253) 
A71EV2A

>  <tags>  (253) 
['GOOD count', "[Other] S1' site", 'MEDIOCRE count', '[Other] S1 site', 'hits', '[Other] S2 site', '[Other] P3 compound design', 'Main status', '[Other] upload_061224', 'BAD count']

>  <inspirations>  (253) 
None

>  <subsites>  (253) 
None

>  <reference>  (253) 


>  <observation_longname>  (253) 
A71EV2A-x3977_A_201_v1

>  <ConformerSites alias>  (253) 
1b - A0911/A/147

>  <CanonSites alias>  (253) 
1 - Active Site

>  <CrystalformSites alias>  (253) 
F1a - A0375/A/201

>  <Quatassemblies alias>  (253) 
A1 - monomer

>  <Crystalforms alias>  (253) 
F1 - A71_2A_open

>  <ConformerSites upload name>  (253) 
1b - A71EV2A-x0911/A/147

>  <CanonSites upload name>  (253) 
1 - A71EV2A-x0911/A/147/1

>  <CrystalformSites upload name>  (253) 
F1a - A71EV2A-x0375/A/201/1

>  <Quatassemblies upload name>  (253) 
A1 - monomer

>  <Crystalforms upload name>  (253) 
F1 - A71_2A_open

>  <ConformerSites short tag>  (253) 
1b - A0911/A/147

>  <CanonSites short tag>  (253) 
1 - A0911/A/147/1

>  <CrystalformSites short tag>  (253) 
F1a - A0375/A/201

>  <Quatassemblies short tag>  (253) 
A1 - monomer

>  <Crystalforms short tag>  (253) 
F1 - A71_2A_open

>  <Centroid res>  (253) 
A71EV2A-x0911/A/133/A_v1

>  <Experiment code>  (253) 
A71EV2A-x3977

>  <Pose>  (253) 
A3977a

$$$$
A3977b
     RDKit          3D

 18 18  0  0  0  0  0  0  0  0999 V2000
   17.4400   -0.2190   20.0310 O   0  0  0  0  0  0  0  0  0  0  0  0
   18.6350    0.0880   19.9470 C   0  0  0  0  0  0  0  0  0  0  0  0
   19.0530    1.2850   19.5370 N   0  0  0  0  0  0  0  0  0  0  0  0
   19.7160   -0.9000   20.3230 C   0  0  0  0  0  0  0  0  0  0  0  0
   19.2430   -2.3450   20.1980 C   0  0  0  0  0  0  0  0  0  0  0  0
   19.2250   -2.8240   18.8140 N   0  0  0  0  0  0  0  0  0  0  0  0
   20.5190   -2.8880   18.1420 C   0  0  0  0  0  0  0  0  0  0  0  0
   18.1030   -3.2280   18.1770 C   0  0  0  0  0  0  0  0  0  0  0  0
   18.1330   -3.6240   17.0190 O   0  0  0  0  0  0  0  0  0  0  0  0
   16.8070   -3.2710   18.9660 C   0  0  0  0  0  0  0  0  0  0  0  0
   15.8410   -4.2820   18.3900 C   0  0  0  0  0  0  0  0  0  0  0  0
   16.1580   -5.6430   18.3840 C   0  0  0  0  0  0  0  0  0  0  0  0
   17.3970   -5.9440   18.8790 O   0  0  0  0  0  0  0  0  0  0  0  0
   17.7170   -7.3140   19.0990 C   0  0  0  0  0  0  0  0  0  0  0  0
   14.6000   -3.8900   17.8870 C   0  0  0  0  0  0  0  0  0  0  0  0
   13.6940   -4.8340   17.4310 C   0  0  0  0  0  0  0  0  0  0  0  0
   14.0200   -6.1740   17.4410 C   0  0  0  0  0  0  0  0  0  0  0  0
   15.2570   -6.5840   17.9050 C   0  0  0  0  0  0  0  0  0  0  0  0
 14 13  1  0
 13 12  1  0
 12 18  2  0
 18 17  1  0
 17 16  2  0
 16 15  1  0
 15 11  2  0
 12 11  1  0
 11 10  1  0
 10  8  1  0
  9  8  2  0
  8  6  1  0
  7  6  1  0
  6  5  1  0
  5  4  1  0
  4  2  1  0
  3  2  1  0
  2  1  2  0
M  END
>  <id>  (254) 
254

>  <inchikey>  (254) 
HYRNBUDTYVNBBW-UHFFFAOYSA-N

>  <alias>  (254) 
A3977b

>  <smiles>  (254) 
COc1ccccc1CC(=O)N(C)CCC(N)=O

>  <path>  (254) 
/opt/xchem-fragalysis-2/maxwin/BulkDock/TARGETS/A71EV2A/aligned_files/A3977b/A3977b.pdb

>  <distance_score>  (254) 
None

>  <energy_score>  (254) 
None

>  <compound>  (254) 
HYRNBUDTYVNBBW-UHFFFAOYSA-N

>  <compound_id>  (254) 
202

>  <target>  (254) 
A71EV2A

>  <tags>  (254) 
['GOOD count', 'MEDIOCRE count', 'hits', '[Other] upload_1 2024-12-06', 'Main status', '[Other] upload_061224', '[Other] upload_1 2025-02-12', 'BAD count']

>  <inspirations>  (254) 
None

>  <subsites>  (254) 
None

>  <reference>  (254) 


>  <observation_longname>  (254) 
A71EV2A-x3977_A_202_v1

>  <ConformerSites alias>  (254) 
2a - A3977/A/202

>  <CanonSites alias>  (254) 
2 - A3977/A/202/1

>  <CrystalformSites alias>  (254) 
F1s - A0152/A/201

>  <Quatassemblies alias>  (254) 
A1 - monomer

>  <Crystalforms alias>  (254) 
F1 - A71_2A_open

>  <ConformerSites upload name>  (254) 
2a - A71EV2A-x3977/A/202

>  <CanonSites upload name>  (254) 
2 - A71EV2A-x3977/A/202/1

>  <CrystalformSites upload name>  (254) 
F1s - A71EV2A-x0152/A/201/1

>  <Quatassemblies upload name>  (254) 
A1 - monomer

>  <Crystalforms upload name>  (254) 
F1 - A71_2A_open

>  <ConformerSites short tag>  (254) 
2a - A3977/A/202

>  <CanonSites short tag>  (254) 
2 - A3977/A/202/1

>  <CrystalformSites short tag>  (254) 
F1s - A0152/A/201

>  <Quatassemblies short tag>  (254) 
A1 - monomer

>  <Crystalforms short tag>  (254) 
F1 - A71_2A_open

>  <Centroid res>  (254) 
A71EV2A-x3977/A/113/A_v1

>  <Experiment code>  (254) 
A71EV2A-x3977

>  <Pose>  (254) 
A3977b

$$$$
A3982a
     RDKit          3D

 24 26  0  0  0  0  0  0  0  0999 V2000
    7.7190   13.4780   22.5490 O   0  0  0  0  0  0  0  0  0  0  0  0
    8.5590   13.9550   23.2940 C   0  0  0  0  0  0  0  0  0  0  0  0
    9.3400   14.9940   22.9180 N   0  0  0  0  0  0  0  0  0  0  0  0
   10.3290   15.6880   23.7580 C   0  0  0  0  0  0  0  0  0  0  0  0
   11.7280   15.5390   23.1810 C   0  0  0  0  0  0  0  0  0  0  0  0
   11.7550   15.9660   21.7120 C   0  0  0  0  0  0  0  0  0  0  0  0
    9.3160   15.4940   21.5420 C   0  0  0  0  0  0  0  0  0  0  0  0
   10.6760   15.2360   20.8890 C   0  0  1  0  0  0  0  0  0  0  0  0
   10.6290   15.7580   19.4650 C   0  0  0  0  0  0  0  0  0  0  0  0
   10.3780   16.9420   19.2310 O   0  0  0  0  0  0  0  0  0  0  0  0
   10.8420   14.8610   18.5130 N   0  0  0  0  0  0  0  0  0  0  0  0
    8.8070   13.3560   24.6810 C   0  0  0  0  0  0  0  0  0  0  0  0
    8.6590   11.8390   24.6220 C   0  0  0  0  0  0  0  0  0  0  0  0
    9.5370   11.0940   23.8430 C   0  0  0  0  0  0  0  0  0  0  0  0
    9.3790    9.7280   23.7050 C   0  0  0  0  0  0  0  0  0  0  0  0
    8.3550    9.0840   24.3520 C   0  0  0  0  0  0  0  0  0  0  0  0
    7.4850    9.8040   25.1450 C   0  0  0  0  0  0  0  0  0  0  0  0
    7.6320   11.1740   25.2770 C   0  0  0  0  0  0  0  0  0  0  0  0
    8.0280   14.1010   25.7610 C   0  0  0  0  0  0  0  0  0  0  0  0
    8.6900   14.6310   26.8580 C   0  0  0  0  0  0  0  0  0  0  0  0
    8.0020   15.3350   27.8270 C   0  0  0  0  0  0  0  0  0  0  0  0
    6.6430   15.5360   27.7040 C   0  0  0  0  0  0  0  0  0  0  0  0
    5.9770   15.0360   26.6120 C   0  0  0  0  0  0  0  0  0  0  0  0
    6.6640   14.3200   25.6460 C   0  0  0  0  0  0  0  0  0  0  0  0
 11  9  1  0
 10  9  2  0
  8  9  1  6
  8  6  1  0
  6  5  1  0
  5  4  1  0
  4  3  1  0
  3  2  1  0
  2  1  2  0
 12  2  1  0
 19 12  1  0
 19 24  2  0
 24 23  1  0
 23 22  2  0
 22 21  1  0
 21 20  2  0
 20 19  1  0
 13 12  1  0
 13 18  2  0
 18 17  1  0
 17 16  2  0
 16 15  1  0
 15 14  2  0
 14 13  1  0
  7  3  1  0
  8  7  1  0
M  END
>  <id>  (255) 
255

>  <inchikey>  (255) 
VJCDCBHTHBGHRC-KRWDZBQOSA-N

>  <alias>  (255) 
A3982a

>  <smiles>  (255) 
NC(=O)[C@H]1CCCN(C(=O)C(c2ccccc2)c2ccccc2)C1

>  <path>  (255) 
/opt/xchem-fragalysis-2/maxwin/BulkDock/TARGETS/A71EV2A/aligned_files/A3982a/A3982a.pdb

>  <distance_score>  (255) 
None

>  <energy_score>  (255) 
None

>  <compound>  (255) 
VJCDCBHTHBGHRC-UHFFFAOYSA-N

>  <compound_id>  (255) 
203

>  <target>  (255) 
A71EV2A

>  <tags>  (255) 
['GOOD count', 'MEDIOCRE count', '[Other] S1 site', 'hits', '[Other] S2 site', '[Other] P3 compound design', '[Series] Piperidine series', 'Main status', '[Other] upload_061224', 'BAD count']

>  <inspirations>  (255) 
None

>  <subsites>  (255) 
None

>  <reference>  (255) 


>  <observation_longname>  (255) 
A71EV2A-x3982_A_201_v1

>  <ConformerSites alias>  (255) 
1b - A0911/A/147

>  <CanonSites alias>  (255) 
1 - Active Site

>  <CrystalformSites alias>  (255) 
F8h - A0884/A/147

>  <Quatassemblies alias>  (255) 
A1 - monomer

>  <Crystalforms alias>  (255) 
F8 - A712A_x4271_2.1_refmac1_1st_ref

>  <ConformerSites upload name>  (255) 
1b - A71EV2A-x0911/A/147

>  <CanonSites upload name>  (255) 
1 - A71EV2A-x0911/A/147/1

>  <CrystalformSites upload name>  (255) 
F8h - A71EV2A-x0884/A/147/1

>  <Quatassemblies upload name>  (255) 
A1 - monomer

>  <Crystalforms upload name>  (255) 
F8 - A712A_x4271_2.1_refmac1_1st_ref

>  <ConformerSites short tag>  (255) 
1b - A0911/A/147

>  <CanonSites short tag>  (255) 
1 - A0911/A/147/1

>  <CrystalformSites short tag>  (255) 
F8h - A0884/A/147

>  <Quatassemblies short tag>  (255) 
A1 - monomer

>  <Crystalforms short tag>  (255) 
F8 - A712A_x4271_2.1_refmac1_1st_ref

>  <Centroid res>  (255) 
A71EV2A-x0911/A/133/A_v1

>  <Experiment code>  (255) 
A71EV2A-x3982

>  <Pose>  (255) 
A3982a

$$$$
A3986a
     RDKit          3D

 25 27  0  0  0  0  0  0  0  0999 V2000
    7.3230   13.3780   22.4450 O   0  0  0  0  0  0  0  0  0  0  0  0
    8.0690   13.9320   23.2300 C   0  0  0  0  0  0  0  0  0  0  0  0
    8.9320   14.8920   22.8350 N   0  0  0  0  0  0  0  0  0  0  0  0
    9.8940   15.5850   23.7110 C   0  0  0  0  0  0  0  0  0  0  0  0
   11.3270   15.3610   23.2480 C   0  0  0  0  0  0  0  0  0  0  0  0
   11.4870   15.7130   21.7630 C   0  0  0  0  0  0  0  0  0  0  0  0
    9.0010   15.3160   21.4360 C   0  0  0  0  0  0  0  0  0  0  0  0
   10.4070   15.0410   20.9020 C   0  0  1  0  0  0  0  0  0  0  0  0
   10.5170   15.4460   19.4430 C   0  0  0  0  0  0  0  0  0  0  0  0
   10.8670   14.6300   18.5800 O   0  0  0  0  0  0  0  0  0  0  0  0
   10.2170   16.7010   19.1590 N   0  0  0  0  0  0  0  0  0  0  0  0
    8.1710   13.4640   24.6840 C   0  0  2  0  0  0  0  0  0  0  0  0
    8.5190   11.9990   24.5660 C   0  0  0  0  0  0  0  0  0  0  0  0
    9.6420   11.6120   23.8510 C   0  0  0  0  0  0  0  0  0  0  0  0
    9.9070   10.2750   23.6190 C   0  0  0  0  0  0  0  0  0  0  0  0
    9.0640    9.3140   24.1040 C   0  0  0  0  0  0  0  0  0  0  0  0
    7.9510    9.6800   24.8260 C   0  0  0  0  0  0  0  0  0  0  0  0
    7.6860   11.0150   25.0710 C   0  0  0  0  0  0  0  0  0  0  0  0
    6.9220   13.8950   25.9750 S   0  0  0  0  0  0  0  0  0  0  0  0
    5.3900   13.9910   25.0810 C   0  0  0  0  0  0  0  0  0  0  0  0
    5.1810   14.8470   24.0090 C   0  0  0  0  0  0  0  0  0  0  0  0
    3.8940   15.0840   23.5500 C   0  0  0  0  0  0  0  0  0  0  0  0
    2.8180   14.4690   24.1480 C   0  0  0  0  0  0  0  0  0  0  0  0
    3.0220   13.6090   25.2050 C   0  0  0  0  0  0  0  0  0  0  0  0
    4.3040   13.3570   25.6680 C   0  0  0  0  0  0  0  0  0  0  0  0
 11  9  1  0
 10  9  2  0
  8  9  1  6
  8  6  1  0
  6  5  1  0
  5  4  1  0
  4  3  1  0
  3  2  1  0
  2  1  2  0
 12  2  1  0
 12 19  1  6
 20 19  1  0
 20 25  2  0
 25 24  1  0
 24 23  2  0
 23 22  1  0
 22 21  2  0
 21 20  1  0
 13 12  1  0
 13 18  2  0
 18 17  1  0
 17 16  2  0
 16 15  1  0
 15 14  2  0
 14 13  1  0
  7  3  1  0
  8  7  1  0
M  END
>  <id>  (256) 
256

>  <inchikey>  (256) 
XCKSWRSDIRLLDZ-WMZOPIPTSA-N

>  <alias>  (256) 
A3986a

>  <smiles>  (256) 
NC(=O)[C@H]1CCCN(C(=O)[C@@H](Sc2ccccc2)c2ccccc2)C1

>  <path>  (256) 
/opt/xchem-fragalysis-2/maxwin/BulkDock/TARGETS/A71EV2A/aligned_files/A3986a/A3986a_hippo.pdb

>  <distance_score>  (256) 
None

>  <energy_score>  (256) 
None

>  <compound>  (256) 
XCKSWRSDIRLLDZ-UHFFFAOYSA-N

>  <compound_id>  (256) 
204

>  <target>  (256) 
A71EV2A

>  <tags>  (256) 
['GOOD count', 'MEDIOCRE count', '[Other] S1 site', 'hits', '[Other] S2 site', '[Other] P3 compound design', '[Other] upload_1 2025-02-12', 'Main status', '[Series] Piperidine series', 'BAD count', '[Other] S3 site']

>  <inspirations>  (256) 
None

>  <subsites>  (256) 
None

>  <reference>  (256) 


>  <observation_longname>  (256) 
A71EV2A-x3986_A_201_v1

>  <ConformerSites alias>  (256) 
1b - A0911/A/147

>  <CanonSites alias>  (256) 
1 - Active Site

>  <CrystalformSites alias>  (256) 
F7j - A3509/A/201

>  <Quatassemblies alias>  (256) 
A1 - monomer

>  <Crystalforms alias>  (256) 
F7 - A712A_x4207_8.1_refmac1_1st_ref

>  <ConformerSites upload name>  (256) 
1b - A71EV2A-x0911/A/147

>  <CanonSites upload name>  (256) 
1 - A71EV2A-x0911/A/147/1

>  <CrystalformSites upload name>  (256) 
F7j - A71EV2A-x3509/A/201/1

>  <Quatassemblies upload name>  (256) 
A1 - monomer

>  <Crystalforms upload name>  (256) 
F7 - A712A_x4207_8.1_refmac1_1st_ref

>  <ConformerSites short tag>  (256) 
1b - A0911/A/147

>  <CanonSites short tag>  (256) 
1 - A0911/A/147/1

>  <CrystalformSites short tag>  (256) 
F7j - A3509/A/201

>  <Quatassemblies short tag>  (256) 
A1 - monomer

>  <Crystalforms short tag>  (256) 
F7 - A712A_x4207_8.1_refmac1_1st_ref

>  <Centroid res>  (256) 
A71EV2A-x0911/A/133/A_v1

>  <Experiment code>  (256) 
A71EV2A-x3986

>  <Pose>  (256) 
A3986a

$$$$
A3986b
     RDKit          3D

 25 27  0  0  0  0  0  0  0  0999 V2000
    7.4380   13.4590   22.5480 O   0  0  0  0  0  0  0  0  0  0  0  0
    8.2600   13.9750   23.3040 C   0  0  0  0  0  0  0  0  0  0  0  0
    9.0790   14.9810   22.9120 N   0  0  0  0  0  0  0  0  0  0  0  0
   10.0330   15.7360   23.7460 C   0  0  0  0  0  0  0  0  0  0  0  0
   11.4690   15.4980   23.3040 C   0  0  0  0  0  0  0  0  0  0  0  0
   11.6460   15.8120   21.8160 C   0  0  0  0  0  0  0  0  0  0  0  0
    9.1330   15.3680   21.5030 C   0  0  0  0  0  0  0  0  0  0  0  0
   10.5450   15.1430   20.9690 C   0  0  1  0  0  0  0  0  0  0  0  0
   10.5670   15.6170   19.5280 C   0  0  0  0  0  0  0  0  0  0  0  0
   10.2430   16.7830   19.2310 O   0  0  0  0  0  0  0  0  0  0  0  0
   10.8850   14.6880   18.6300 N   0  0  0  0  0  0  0  0  0  0  0  0
    8.5860   13.4040   24.6780 C   0  0  2  0  0  0  0  0  0  0  0  0
    8.6710   11.9060   24.4950 C   0  0  0  0  0  0  0  0  0  0  0  0
    7.7680   11.0540   25.1050 C   0  0  0  0  0  0  0  0  0  0  0  0
    7.8850    9.6860   24.9520 C   0  0  0  0  0  0  0  0  0  0  0  0
    8.8920    9.1590   24.1800 C   0  0  0  0  0  0  0  0  0  0  0  0
    9.7870    9.9880   23.5660 C   0  0  0  0  0  0  0  0  0  0  0  0
    9.6810   11.3570   23.7210 C   0  0  0  0  0  0  0  0  0  0  0  0
    7.6610   13.9590   26.1680 S   0  0  0  0  0  0  0  0  0  0  0  0
    6.1120   14.5220   25.5160 C   0  0  0  0  0  0  0  0  0  0  0  0
    5.7430   15.8290   25.7940 C   0  0  0  0  0  0  0  0  0  0  0  0
    4.4130   16.2070   25.7040 C   0  0  0  0  0  0  0  0  0  0  0  0
    3.4570   15.2960   25.3090 C   0  0  0  0  0  0  0  0  0  0  0  0
    3.8280   14.0110   24.9840 C   0  0  0  0  0  0  0  0  0  0  0  0
    5.1570   13.6230   25.0700 C   0  0  0  0  0  0  0  0  0  0  0  0
 11  9  1  0
 10  9  2  0
  8  9  1  6
  8  6  1  0
  6  5  1  0
  5  4  1  0
  4  3  1  0
  3  2  1  0
  2  1  2  0
 12  2  1  0
 12 19  1  1
 20 19  1  0
 20 25  2  0
 25 24  1  0
 24 23  2  0
 23 22  1  0
 22 21  2  0
 21 20  1  0
 13 12  1  0
 13 18  2  0
 18 17  1  0
 17 16  2  0
 16 15  1  0
 15 14  2  0
 14 13  1  0
  7  3  1  0
  8  7  1  0
M  END
>  <id>  (257) 
257

>  <inchikey>  (257) 
XCKSWRSDIRLLDZ-WMZOPIPTSA-N

>  <alias>  (257) 
A3986b

>  <smiles>  (257) 
NC(=O)[C@H]1CCCN(C(=O)[C@@H](Sc2ccccc2)c2ccccc2)C1

>  <path>  (257) 
/opt/xchem-fragalysis-2/maxwin/BulkDock/TARGETS/A71EV2A/aligned_files/A3986b/A3986b_hippo.pdb

>  <distance_score>  (257) 
None

>  <energy_score>  (257) 
None

>  <compound>  (257) 
XCKSWRSDIRLLDZ-UHFFFAOYSA-N

>  <compound_id>  (257) 
204

>  <target>  (257) 
A71EV2A

>  <tags>  (257) 
['GOOD count', 'MEDIOCRE count', '[Other] S1 site', 'hits', '[Other] S2 site', '[Other] P3 compound design', '[Other] upload_1 2025-02-12', 'Main status', '[Series] Piperidine series', 'BAD count', '[Other] S3 site']

>  <inspirations>  (257) 
None

>  <subsites>  (257) 
None

>  <reference>  (257) 


>  <observation_longname>  (257) 
A71EV2A-x3986_C_201_v1

>  <ConformerSites alias>  (257) 
1b - A0911/A/147

>  <CanonSites alias>  (257) 
1 - Active Site

>  <CrystalformSites alias>  (257) 
F7k - A3509/C/201

>  <Quatassemblies alias>  (257) 
A1 - monomer

>  <Crystalforms alias>  (257) 
F7 - A712A_x4207_8.1_refmac1_1st_ref

>  <ConformerSites upload name>  (257) 
1b - A71EV2A-x0911/A/147

>  <CanonSites upload name>  (257) 
1 - A71EV2A-x0911/A/147/1

>  <CrystalformSites upload name>  (257) 
F7k - A71EV2A-x3509/C/201/1

>  <Quatassemblies upload name>  (257) 
A1 - monomer

>  <Crystalforms upload name>  (257) 
F7 - A712A_x4207_8.1_refmac1_1st_ref

>  <ConformerSites short tag>  (257) 
1b - A0911/A/147

>  <CanonSites short tag>  (257) 
1 - A0911/A/147/1

>  <CrystalformSites short tag>  (257) 
F7k - A3509/C/201

>  <Quatassemblies short tag>  (257) 
A1 - monomer

>  <Crystalforms short tag>  (257) 
F7 - A712A_x4207_8.1_refmac1_1st_ref

>  <Centroid res>  (257) 
A71EV2A-x0911/A/133/A_v1

>  <Experiment code>  (257) 
A71EV2A-x3986

>  <Pose>  (257) 
A3986a

$$$$
A3989a
     RDKit          3D

 22 23  0  0  0  0  0  0  0  0999 V2000
    9.5240   11.1190   23.3130 Cl  0  0  0  0  0  0  0  0  0  0  0  0
    8.2950   11.4190   24.5040 C   0  0  0  0  0  0  0  0  0  0  0  0
    7.7800   10.3420   25.2030 C   0  0  0  0  0  0  0  0  0  0  0  0
    6.8480   10.5560   26.2030 C   0  0  0  0  0  0  0  0  0  0  0  0
    6.4300   11.8460   26.5040 C   0  0  0  0  0  0  0  0  0  0  0  0
    5.4410   12.1110   27.5870 C   0  0  0  0  0  0  0  0  0  0  0  0
    5.4620   11.1920   28.5290 F   0  0  0  0  0  0  0  0  0  0  0  0
    5.6760   13.2420   28.2200 F   0  0  0  0  0  0  0  0  0  0  0  0
    4.2000   12.2250   27.1200 F   0  0  0  0  0  0  0  0  0  0  0  0
    6.9540   12.9060   25.7770 C   0  0  0  0  0  0  0  0  0  0  0  0
    7.8830   12.7220   24.7590 C   0  0  0  0  0  0  0  0  0  0  0  0
    8.3230   13.9030   23.9260 C   0  0  0  0  0  0  0  0  0  0  0  0
    9.7830   14.2500   24.1400 C   0  0  0  0  0  0  0  0  0  0  0  0
   10.3010   14.1990   25.2430 O   0  0  0  0  0  0  0  0  0  0  0  0
   10.4630   14.6510   23.0460 N   0  0  0  0  0  0  0  0  0  0  0  0
   11.8450   15.1420   23.0980 C   0  0  0  0  0  0  0  0  0  0  0  0
   12.0260   15.7820   21.7240 C   0  0  0  0  0  0  0  0  0  0  0  0
    9.9120   14.6990   21.6850 C   0  0  0  0  0  0  0  0  0  0  0  0
   11.1680   14.8670   20.8330 C   0  0  1  0  0  0  0  0  0  0  0  0
   10.8640   15.3900   19.4380 C   0  0  0  0  0  0  0  0  0  0  0  0
   10.4120   16.5280   19.2590 O   0  0  0  0  0  0  0  0  0  0  0  0
   11.1040   14.5440   18.4480 N   0  0  0  0  0  0  0  0  0  0  0  0
 22 20  1  0
 21 20  2  0
 19 20  1  6
 19 17  1  0
 17 16  1  0
 16 15  1  0
 15 13  1  0
 14 13  2  0
 13 12  1  0
 12 11  1  0
 11 10  2  0
 10  5  1  0
  6  5  1  0
  9  6  1  0
  8  6  1  0
  7  6  1  0
  5  4  2  0
  4  3  1  0
  3  2  2  0
 11  2  1  0
  2  1  1  0
 18 15  1  0
 19 18  1  0
M  END
>  <id>  (258) 
258

>  <inchikey>  (258) 
HVQIWPCPNWMLEJ-QMMMGPOBSA-N

>  <alias>  (258) 
A3989a

>  <smiles>  (258) 
NC(=O)[C@H]1CCN(C(=O)Cc2cc(C(F)(F)F)ccc2Cl)C1

>  <path>  (258) 
/opt/xchem-fragalysis-2/maxwin/BulkDock/TARGETS/A71EV2A/aligned_files/A3989a/A3989a.pdb

>  <distance_score>  (258) 
None

>  <energy_score>  (258) 
None

>  <compound>  (258) 
HVQIWPCPNWMLEJ-UHFFFAOYSA-N

>  <compound_id>  (258) 
205

>  <target>  (258) 
A71EV2A

>  <tags>  (258) 
['GOOD count', 'MEDIOCRE count', '[Other] S1 site', 'hits', '[Other] S2 site', '[Other] P3 compound design', 'Main status', '[Other] upload_061224', 'BAD count']

>  <inspirations>  (258) 
None

>  <subsites>  (258) 
None

>  <reference>  (258) 


>  <observation_longname>  (258) 
A71EV2A-x3989_A_201_v1

>  <ConformerSites alias>  (258) 
1b - A0911/A/147

>  <CanonSites alias>  (258) 
1 - Active Site

>  <CrystalformSites alias>  (258) 
F8h - A0884/A/147

>  <Quatassemblies alias>  (258) 
A1 - monomer

>  <Crystalforms alias>  (258) 
F8 - A712A_x4271_2.1_refmac1_1st_ref

>  <ConformerSites upload name>  (258) 
1b - A71EV2A-x0911/A/147

>  <CanonSites upload name>  (258) 
1 - A71EV2A-x0911/A/147/1

>  <CrystalformSites upload name>  (258) 
F8h - A71EV2A-x0884/A/147/1

>  <Quatassemblies upload name>  (258) 
A1 - monomer

>  <Crystalforms upload name>  (258) 
F8 - A712A_x4271_2.1_refmac1_1st_ref

>  <ConformerSites short tag>  (258) 
1b - A0911/A/147

>  <CanonSites short tag>  (258) 
1 - A0911/A/147/1

>  <CrystalformSites short tag>  (258) 
F8h - A0884/A/147

>  <Quatassemblies short tag>  (258) 
A1 - monomer

>  <Crystalforms short tag>  (258) 
F8 - A712A_x4271_2.1_refmac1_1st_ref

>  <Centroid res>  (258) 
A71EV2A-x0911/A/133/A_v1

>  <Experiment code>  (258) 
A71EV2A-x3989

>  <Pose>  (258) 
A3989a

$$$$
A3990a
     RDKit          3D

 23 24  0  0  0  0  0  0  0  0999 V2000
   11.7190   16.9400   22.9180 F   0  0  0  0  0  0  0  0  0  0  0  0
   12.2480   15.9700   22.1670 C   0  0  0  0  0  0  0  0  0  0  0  0
   12.8880   16.5750   21.1530 F   0  0  0  0  0  0  0  0  0  0  0  0
   13.1820   15.3830   22.9160 F   0  0  0  0  0  0  0  0  0  0  0  0
   11.2140   14.9920   21.6880 C   0  0  2  0  0  0  0  0  0  0  0  0
   10.0870   15.6720   20.8790 C   0  0  1  0  0  0  0  0  0  0  0  0
   10.3670   15.8970   19.4080 C   0  0  0  0  0  0  0  0  0  0  0  0
   10.1340   16.9910   18.8890 O   0  0  0  0  0  0  0  0  0  0  0  0
   10.8570   14.8630   18.7270 N   0  0  0  0  0  0  0  0  0  0  0  0
    8.9020   14.7310   21.0850 C   0  0  0  0  0  0  0  0  0  0  0  0
   10.4920   14.3860   22.8900 C   0  0  0  0  0  0  0  0  0  0  0  0
    9.1160   14.2050   22.4290 N   0  0  0  0  0  0  0  0  0  0  0  0
    8.1180   13.5990   23.0990 C   0  0  0  0  0  0  0  0  0  0  0  0
    7.0690   13.2920   22.5600 O   0  0  0  0  0  0  0  0  0  0  0  0
    8.3810   13.3370   24.5710 C   0  0  0  0  0  0  0  0  0  0  0  0
    7.6040   12.1570   25.1110 C   0  0  0  0  0  0  0  0  0  0  0  0
    7.8420   10.8590   24.6500 C   0  0  0  0  0  0  0  0  0  0  0  0
    8.8060   10.7540   23.6830 O   0  0  0  0  0  0  0  0  0  0  0  0
    9.4440    9.4860   23.4940 C   0  0  0  0  0  0  0  0  0  0  0  0
    6.6440   12.3400   26.1020 C   0  0  0  0  0  0  0  0  0  0  0  0
    5.9360   11.2680   26.6110 C   0  0  0  0  0  0  0  0  0  0  0  0
    6.1700   10.0040   26.1430 C   0  0  0  0  0  0  0  0  0  0  0  0
    7.1260    9.7850   25.1610 C   0  0  0  0  0  0  0  0  0  0  0  0
 19 18  1  0
 18 17  1  0
 17 23  2  0
 23 22  1  0
 22 21  2  0
 21 20  1  0
 20 16  2  0
 17 16  1  0
 16 15  1  0
 15 13  1  0
 14 13  2  0
 13 12  1  0
 12 10  1  0
 10  6  1  0
  6  7  1  6
  9  7  1  0
  8  7  2  0
  6  5  1  0
  5  2  1  1
  3  2  1  0
  4  2  1  0
  2  1  1  0
 11  5  1  0
 12 11  1  0
M  END
>  <id>  (259) 
259

>  <inchikey>  (259) 
WDWZKNJCYBSIRL-QWRGUYRKSA-N

>  <alias>  (259) 
A3990a

>  <smiles>  (259) 
COc1ccccc1CC(=O)N1C[C@H](C(N)=O)[C@@H](C(F)(F)F)C1

>  <path>  (259) 
/opt/xchem-fragalysis-2/maxwin/BulkDock/TARGETS/A71EV2A/aligned_files/A3990a/A3990a.pdb

>  <distance_score>  (259) 
None

>  <energy_score>  (259) 
None

>  <compound>  (259) 
WDWZKNJCYBSIRL-UHFFFAOYSA-N

>  <compound_id>  (259) 
206

>  <target>  (259) 
A71EV2A

>  <tags>  (259) 
['GOOD count', 'MEDIOCRE count', '[Other] S1 site', 'hits', '[Other] S2 site', '[Other] P3 compound design', '[Other] upload_2 2024-12-12', 'Main status', 'BAD count']

>  <inspirations>  (259) 
None

>  <subsites>  (259) 
None

>  <reference>  (259) 


>  <observation_longname>  (259) 
A71EV2A-x3990_A_201_v1

>  <ConformerSites alias>  (259) 
1b - A0911/A/147

>  <CanonSites alias>  (259) 
1 - Active Site

>  <CrystalformSites alias>  (259) 
F8h - A0884/A/147

>  <Quatassemblies alias>  (259) 
A1 - monomer

>  <Crystalforms alias>  (259) 
F8 - A712A_x4271_2.1_refmac1_1st_ref

>  <ConformerSites upload name>  (259) 
1b - A71EV2A-x0911/A/147

>  <CanonSites upload name>  (259) 
1 - A71EV2A-x0911/A/147/1

>  <CrystalformSites upload name>  (259) 
F8h - A71EV2A-x0884/A/147/1

>  <Quatassemblies upload name>  (259) 
A1 - monomer

>  <Crystalforms upload name>  (259) 
F8 - A712A_x4271_2.1_refmac1_1st_ref

>  <ConformerSites short tag>  (259) 
1b - A0911/A/147

>  <CanonSites short tag>  (259) 
1 - A0911/A/147/1

>  <CrystalformSites short tag>  (259) 
F8h - A0884/A/147

>  <Quatassemblies short tag>  (259) 
A1 - monomer

>  <Crystalforms short tag>  (259) 
F8 - A712A_x4271_2.1_refmac1_1st_ref

>  <Centroid res>  (259) 
A71EV2A-x0911/A/133/A_v1

>  <Experiment code>  (259) 
A71EV2A-x3990

>  <Pose>  (259) 
A3990a

$$$$
A3992a
     RDKit          3D

 20 21  0  0  0  0  0  0  0  0999 V2000
   10.4270   16.5940   19.3150 O   0  0  0  0  0  0  0  0  0  0  0  0
   10.9000   15.4680   19.4830 C   0  0  0  0  0  0  0  0  0  0  0  0
   11.1600   14.6360   18.4760 N   0  0  0  0  0  0  0  0  0  0  0  0
   11.0910   14.8970   20.8790 C   0  0  1  0  0  0  0  0  0  0  0  0
   11.8240   15.8230   21.8760 C   0  0  0  0  0  0  0  0  0  0  0  0
   11.5210   15.1800   23.2270 C   0  0  0  0  0  0  0  0  0  0  0  0
    9.7620   14.6850   21.6130 C   0  0  0  0  0  0  0  0  0  0  0  0
   10.2130   14.5330   23.0000 N   0  0  0  0  0  0  0  0  0  0  0  0
    9.5830   13.7930   23.9560 C   0  0  0  0  0  0  0  0  0  0  0  0
   10.1120   13.5990   25.0450 O   0  0  0  0  0  0  0  0  0  0  0  0
    8.3730   13.2620   23.6070 N   0  0  0  0  0  0  0  0  0  0  0  0
    7.7000   12.3420   24.4710 C   0  0  0  0  0  0  0  0  0  0  0  0
    7.9170   10.9610   24.3360 C   0  0  0  0  0  0  0  0  0  0  0  0
    8.9000   10.6100   23.4460 O   0  0  0  0  0  0  0  0  0  0  0  0
    9.2280    9.2190   23.3010 C   0  0  0  0  0  0  0  0  0  0  0  0
    6.7660   12.7770   25.4100 C   0  0  0  0  0  0  0  0  0  0  0  0
    6.4030   14.4650   25.5380 Cl  0  0  0  0  0  0  0  0  0  0  0  0
    6.0550   11.8950   26.1990 C   0  0  0  0  0  0  0  0  0  0  0  0
    6.2540   10.5360   26.0360 C   0  0  0  0  0  0  0  0  0  0  0  0
    7.1780   10.0660   25.1040 C   0  0  0  0  0  0  0  0  0  0  0  0
 15 14  1  0
 14 13  1  0
 13 20  2  0
 20 19  1  0
 19 18  2  0
 18 16  1  0
 17 16  1  0
 16 12  2  0
 13 12  1  0
 12 11  1  0
 11  9  1  0
 10  9  2  0
  9  8  1  0
  8  6  1  0
  6  5  1  0
  5  4  1  0
  4  2  1  6
  3  2  1  0
  2  1  2  0
  7  4  1  0
  8  7  1  0
M  END
>  <id>  (260) 
260

>  <inchikey>  (260) 
MROSVTPISGFMGH-QMMMGPOBSA-N

>  <alias>  (260) 
A3992a

>  <smiles>  (260) 
COc1cccc(Cl)c1NC(=O)N1CC[C@H](C(N)=O)C1

>  <path>  (260) 
/opt/xchem-fragalysis-2/maxwin/BulkDock/TARGETS/A71EV2A/aligned_files/A3992a/A3992a_hippo.pdb

>  <distance_score>  (260) 
None

>  <energy_score>  (260) 
None

>  <compound>  (260) 
MROSVTPISGFMGH-UHFFFAOYSA-N

>  <compound_id>  (260) 
207

>  <target>  (260) 
A71EV2A

>  <tags>  (260) 
['GOOD count', 'MEDIOCRE count', '[Other] S1 site', 'hits', '[Other] S2 site', '[Other] P3 compound design', 'Main status', '[Other] upload_061224', 'BAD count']

>  <inspirations>  (260) 
None

>  <subsites>  (260) 
None

>  <reference>  (260) 


>  <observation_longname>  (260) 
A71EV2A-x3992_A_201_v1

>  <ConformerSites alias>  (260) 
1b - A0911/A/147

>  <CanonSites alias>  (260) 
1 - Active Site

>  <CrystalformSites alias>  (260) 
F6m - A3858/A/201

>  <Quatassemblies alias>  (260) 
A1 - monomer

>  <Crystalforms alias>  (260) 
F6 - short_long_x4018

>  <ConformerSites upload name>  (260) 
1b - A71EV2A-x0911/A/147

>  <CanonSites upload name>  (260) 
1 - A71EV2A-x0911/A/147/1

>  <CrystalformSites upload name>  (260) 
F6m - A71EV2A-x3858/A/201/1

>  <Quatassemblies upload name>  (260) 
A1 - monomer

>  <Crystalforms upload name>  (260) 
F6 - short_long_x4018

>  <ConformerSites short tag>  (260) 
1b - A0911/A/147

>  <CanonSites short tag>  (260) 
1 - A0911/A/147/1

>  <CrystalformSites short tag>  (260) 
F6m - A3858/A/201

>  <Quatassemblies short tag>  (260) 
A1 - monomer

>  <Crystalforms short tag>  (260) 
F6 - short_long_x4018

>  <Centroid res>  (260) 
A71EV2A-x0911/A/133/A_v1

>  <Experiment code>  (260) 
A71EV2A-x3992

>  <Pose>  (260) 
A3992a

$$$$
A3992b
     RDKit          3D

 20 21  0  0  0  0  0  0  0  0999 V2000
   10.4630   16.6400   19.2680 O   0  0  0  0  0  0  0  0  0  0  0  0
   10.9370   15.5060   19.4150 C   0  0  0  0  0  0  0  0  0  0  0  0
   11.1890   14.6830   18.4020 N   0  0  0  0  0  0  0  0  0  0  0  0
   11.1800   14.9340   20.8030 C   0  0  1  0  0  0  0  0  0  0  0  0
   11.9460   15.8720   21.7670 C   0  0  0  0  0  0  0  0  0  0  0  0
   11.6880   15.2470   23.1330 C   0  0  0  0  0  0  0  0  0  0  0  0
    9.8740   14.7130   21.5850 C   0  0  0  0  0  0  0  0  0  0  0  0
   10.3890   14.5640   22.9520 N   0  0  0  0  0  0  0  0  0  0  0  0
    9.8350   13.7860   23.9300 C   0  0  0  0  0  0  0  0  0  0  0  0
   10.4220   13.6010   24.9950 O   0  0  0  0  0  0  0  0  0  0  0  0
    8.6270   13.2270   23.6280 N   0  0  0  0  0  0  0  0  0  0  0  0
    7.9750   12.3160   24.5080 C   0  0  0  0  0  0  0  0  0  0  0  0
    8.1880   10.9380   24.3690 C   0  0  0  0  0  0  0  0  0  0  0  0
    9.1440   10.5890   23.4490 O   0  0  0  0  0  0  0  0  0  0  0  0
    9.4620    9.1990   23.2960 C   0  0  0  0  0  0  0  0  0  0  0  0
    7.0810   12.7650   25.4780 C   0  0  0  0  0  0  0  0  0  0  0  0
    6.7980   14.4700   25.6590 Cl  0  0  0  0  0  0  0  0  0  0  0  0
    6.3950   11.8840   26.2920 C   0  0  0  0  0  0  0  0  0  0  0  0
    6.5820   10.5220   26.1210 C   0  0  0  0  0  0  0  0  0  0  0  0
    7.4720   10.0460   25.1640 C   0  0  0  0  0  0  0  0  0  0  0  0
 15 14  1  0
 14 13  1  0
 13 20  2  0
 20 19  1  0
 19 18  2  0
 18 16  1  0
 17 16  1  0
 16 12  2  0
 13 12  1  0
 12 11  1  0
 11  9  1  0
 10  9  2  0
  9  8  1  0
  8  6  1  0
  6  5  1  0
  5  4  1  0
  4  2  1  6
  3  2  1  0
  2  1  2  0
  7  4  1  0
  8  7  1  0
M  END
>  <id>  (261) 
261

>  <inchikey>  (261) 
MROSVTPISGFMGH-QMMMGPOBSA-N

>  <alias>  (261) 
A3992b

>  <smiles>  (261) 
COc1cccc(Cl)c1NC(=O)N1CC[C@H](C(N)=O)C1

>  <path>  (261) 
/opt/xchem-fragalysis-2/maxwin/BulkDock/TARGETS/A71EV2A/aligned_files/A3992b/A3992b_hippo.pdb

>  <distance_score>  (261) 
None

>  <energy_score>  (261) 
None

>  <compound>  (261) 
MROSVTPISGFMGH-UHFFFAOYSA-N

>  <compound_id>  (261) 
207

>  <target>  (261) 
A71EV2A

>  <tags>  (261) 
['GOOD count', 'MEDIOCRE count', '[Other] S1 site', 'hits', '[Other] S2 site', '[Other] P3 compound design', 'Main status', '[Other] upload_061224', 'BAD count']

>  <inspirations>  (261) 
None

>  <subsites>  (261) 
None

>  <reference>  (261) 


>  <observation_longname>  (261) 
A71EV2A-x3992_C_201_v1

>  <ConformerSites alias>  (261) 
1b - A0911/A/147

>  <CanonSites alias>  (261) 
1 - Active Site

>  <CrystalformSites alias>  (261) 
F6n - A3858/C/201

>  <Quatassemblies alias>  (261) 
A1 - monomer

>  <Crystalforms alias>  (261) 
F6 - short_long_x4018

>  <ConformerSites upload name>  (261) 
1b - A71EV2A-x0911/A/147

>  <CanonSites upload name>  (261) 
1 - A71EV2A-x0911/A/147/1

>  <CrystalformSites upload name>  (261) 
F6n - A71EV2A-x3858/C/201/1

>  <Quatassemblies upload name>  (261) 
A1 - monomer

>  <Crystalforms upload name>  (261) 
F6 - short_long_x4018

>  <ConformerSites short tag>  (261) 
1b - A0911/A/147

>  <CanonSites short tag>  (261) 
1 - A0911/A/147/1

>  <CrystalformSites short tag>  (261) 
F6n - A3858/C/201

>  <Quatassemblies short tag>  (261) 
A1 - monomer

>  <Crystalforms short tag>  (261) 
F6 - short_long_x4018

>  <Centroid res>  (261) 
A71EV2A-x0911/A/133/A_v1

>  <Experiment code>  (261) 
A71EV2A-x3992

>  <Pose>  (261) 
A3992a

$$$$
A3993a
     RDKit          3D

 27 29  0  0  0  0  0  0  0  0999 V2000
   13.1630   17.3600   24.3300 O   0  0  0  0  0  0  0  0  0  0  0  0
   12.8630   16.1720   24.2580 C   0  0  0  0  0  0  0  0  0  0  0  0
   13.4450   15.2410   25.0280 N   0  0  0  0  0  0  0  0  0  0  0  0
   14.3880   15.5750   26.0940 C   0  0  0  0  0  0  0  0  0  0  0  0
   14.5880   14.6120   27.2010 C   0  0  0  0  0  0  0  0  0  0  0  0
   13.8500   15.8790   27.4420 C   0  0  0  0  0  0  0  0  0  0  0  0
   11.7300   15.6990   23.3600 C   0  0  1  0  0  0  0  0  0  0  0  0
   12.1360   15.5830   21.8890 C   0  0  0  0  0  0  0  0  0  0  0  0
   10.8320   15.6580   21.0860 C   0  0  1  0  0  0  0  0  0  0  0  0
   10.9920   15.8240   19.5840 C   0  0  0  0  0  0  0  0  0  0  0  0
   10.6680   16.8720   19.0300 O   0  0  0  0  0  0  0  0  0  0  0  0
   11.4000   14.7580   18.9070 N   0  0  0  0  0  0  0  0  0  0  0  0
    9.9230   14.4780   21.4360 C   0  0  0  0  0  0  0  0  0  0  0  0
   10.9250   14.4640   23.7550 C   0  0  0  0  0  0  0  0  0  0  0  0
    9.7690   14.2390   22.8780 N   0  0  0  0  0  0  0  0  0  0  0  0
    8.6810   13.5590   23.3050 C   0  0  0  0  0  0  0  0  0  0  0  0
    7.7290   13.3190   22.5730 O   0  0  0  0  0  0  0  0  0  0  0  0
    8.7340   13.0410   24.7310 C   0  0  0  0  0  0  0  0  0  0  0  0
    7.7090   11.9780   25.0460 C   0  0  0  0  0  0  0  0  0  0  0  0
    7.9240   10.6490   24.6480 C   0  0  0  0  0  0  0  0  0  0  0  0
    9.0080   10.4560   23.8260 O   0  0  0  0  0  0  0  0  0  0  0  0
    9.2740    9.1300   23.3670 C   0  0  0  0  0  0  0  0  0  0  0  0
    6.5940   12.2400   25.8430 C   0  0  0  0  0  0  0  0  0  0  0  0
    6.2180   13.8810   26.2650 Cl  0  0  0  0  0  0  0  0  0  0  0  0
    5.7550   11.2400   26.2900 C   0  0  0  0  0  0  0  0  0  0  0  0
    6.0090    9.9350   25.9180 C   0  0  0  0  0  0  0  0  0  0  0  0
    7.0780    9.6380   25.0860 C   0  0  0  0  0  0  0  0  0  0  0  0
 22 21  1  0
 21 20  1  0
 20 27  2  0
 27 26  1  0
 26 25  2  0
 25 23  1  0
 24 23  1  0
 23 19  2  0
 20 19  1  0
 19 18  1  0
 18 16  1  0
 17 16  2  0
 16 15  1  0
 15 13  1  0
 13  9  1  0
  9 10  1  6
 12 10  1  0
 11 10  2  0
  9  8  1  0
  8  7  1  0
  7  2  1  1
  2  1  2  0
  3  2  1  0
  4  3  1  0
  4  6  1  0
  6  5  1  0
  5  4  1  0
 14  7  1  0
 15 14  1  0
M  END
>  <id>  (262) 
262

>  <inchikey>  (262) 
GPQKHKQSBRCPLG-NEPJUHHUSA-N

>  <alias>  (262) 
A3993a

>  <smiles>  (262) 
COc1cccc(Cl)c1CC(=O)N1C[C@H](C(N)=O)C[C@H](C(=O)NC2CC2)C1

>  <path>  (262) 
/opt/xchem-fragalysis-2/maxwin/BulkDock/TARGETS/A71EV2A/aligned_files/A3993a/A3993a_hippo.pdb

>  <distance_score>  (262) 
None

>  <energy_score>  (262) 
None

>  <compound>  (262) 
GPQKHKQSBRCPLG-UHFFFAOYSA-N

>  <compound_id>  (262) 
208

>  <target>  (262) 
A71EV2A

>  <tags>  (262) 
['GOOD count', "[Other] S1' site", 'MEDIOCRE count', '[Other] S1 site', 'hits', '[Other] S2 site', '[Other] P3 compound design', '[Other] upload_1 2025-02-12', 'Main status', '[Series] Piperidine series', 'BAD count']

>  <inspirations>  (262) 
None

>  <subsites>  (262) 
None

>  <reference>  (262) 


>  <observation_longname>  (262) 
A71EV2A-x3993_A_201_v1

>  <ConformerSites alias>  (262) 
1b - A0911/A/147

>  <CanonSites alias>  (262) 
1 - Active Site

>  <CrystalformSites alias>  (262) 
F7j - A3509/A/201

>  <Quatassemblies alias>  (262) 
A1 - monomer

>  <Crystalforms alias>  (262) 
F7 - A712A_x4207_8.1_refmac1_1st_ref

>  <ConformerSites upload name>  (262) 
1b - A71EV2A-x0911/A/147

>  <CanonSites upload name>  (262) 
1 - A71EV2A-x0911/A/147/1

>  <CrystalformSites upload name>  (262) 
F7j - A71EV2A-x3509/A/201/1

>  <Quatassemblies upload name>  (262) 
A1 - monomer

>  <Crystalforms upload name>  (262) 
F7 - A712A_x4207_8.1_refmac1_1st_ref

>  <ConformerSites short tag>  (262) 
1b - A0911/A/147

>  <CanonSites short tag>  (262) 
1 - A0911/A/147/1

>  <CrystalformSites short tag>  (262) 
F7j - A3509/A/201

>  <Quatassemblies short tag>  (262) 
A1 - monomer

>  <Crystalforms short tag>  (262) 
F7 - A712A_x4207_8.1_refmac1_1st_ref

>  <Centroid res>  (262) 
A71EV2A-x0911/A/133/A_v1

>  <Experiment code>  (262) 
A71EV2A-x3993

>  <Pose>  (262) 
A3993a

$$$$
A3993b
     RDKit          3D

 27 29  0  0  0  0  0  0  0  0999 V2000
   13.2730   17.3400   24.2270 O   0  0  0  0  0  0  0  0  0  0  0  0
   12.9960   16.1470   24.1460 C   0  0  0  0  0  0  0  0  0  0  0  0
   13.6180   15.2200   24.8910 N   0  0  0  0  0  0  0  0  0  0  0  0
   14.6160   15.5780   25.9030 C   0  0  0  0  0  0  0  0  0  0  0  0
   14.8840   14.6270   27.0150 C   0  0  0  0  0  0  0  0  0  0  0  0
   14.1530   15.9010   27.2780 C   0  0  0  0  0  0  0  0  0  0  0  0
   11.8410   15.6650   23.2800 C   0  0  1  0  0  0  0  0  0  0  0  0
   12.1880   15.5730   21.7930 C   0  0  0  0  0  0  0  0  0  0  0  0
   10.8530   15.6170   21.0400 C   0  0  1  0  0  0  0  0  0  0  0  0
   10.9260   15.7970   19.5350 C   0  0  0  0  0  0  0  0  0  0  0  0
   10.5040   16.8270   19.0110 O   0  0  0  0  0  0  0  0  0  0  0  0
   11.3440   14.7500   18.8310 N   0  0  0  0  0  0  0  0  0  0  0  0
    9.9780   14.4230   21.4190 C   0  0  0  0  0  0  0  0  0  0  0  0
   11.0770   14.4130   23.6890 C   0  0  0  0  0  0  0  0  0  0  0  0
    9.8800   14.1870   22.8630 N   0  0  0  0  0  0  0  0  0  0  0  0
    8.8200   13.4800   23.3170 C   0  0  0  0  0  0  0  0  0  0  0  0
    7.8420   13.2310   22.6150 O   0  0  0  0  0  0  0  0  0  0  0  0
    8.9790   12.9130   24.7170 C   0  0  0  0  0  0  0  0  0  0  0  0
    7.9570   11.8700   25.0860 C   0  0  0  0  0  0  0  0  0  0  0  0
    8.1230   10.5460   24.6550 C   0  0  0  0  0  0  0  0  0  0  0  0
    9.1770   10.3480   23.8010 O   0  0  0  0  0  0  0  0  0  0  0  0
    9.4400    9.0210   23.3410 C   0  0  0  0  0  0  0  0  0  0  0  0
    6.9330   12.1320   25.9840 C   0  0  0  0  0  0  0  0  0  0  0  0
    6.7120   13.7700   26.5220 Cl  0  0  0  0  0  0  0  0  0  0  0  0
    6.1010   11.1440   26.4720 C   0  0  0  0  0  0  0  0  0  0  0  0
    6.2780    9.8450   26.0380 C   0  0  0  0  0  0  0  0  0  0  0  0
    7.2810    9.5390   25.1250 C   0  0  0  0  0  0  0  0  0  0  0  0
 22 21  1  0
 21 20  1  0
 20 27  2  0
 27 26  1  0
 26 25  2  0
 25 23  1  0
 24 23  1  0
 23 19  2  0
 20 19  1  0
 19 18  1  0
 18 16  1  0
 17 16  2  0
 16 15  1  0
 15 13  1  0
 13  9  1  0
  9 10  1  6
 12 10  1  0
 11 10  2  0
  9  8  1  0
  8  7  1  0
  7  2  1  1
  2  1  2  0
  3  2  1  0
  4  3  1  0
  4  6  1  0
  6  5  1  0
  5  4  1  0
 14  7  1  0
 15 14  1  0
M  END
>  <id>  (263) 
263

>  <inchikey>  (263) 
GPQKHKQSBRCPLG-NEPJUHHUSA-N

>  <alias>  (263) 
A3993b

>  <smiles>  (263) 
COc1cccc(Cl)c1CC(=O)N1C[C@H](C(N)=O)C[C@H](C(=O)NC2CC2)C1

>  <path>  (263) 
/opt/xchem-fragalysis-2/maxwin/BulkDock/TARGETS/A71EV2A/aligned_files/A3993b/A3993b.pdb

>  <distance_score>  (263) 
None

>  <energy_score>  (263) 
None

>  <compound>  (263) 
GPQKHKQSBRCPLG-UHFFFAOYSA-N

>  <compound_id>  (263) 
208

>  <target>  (263) 
A71EV2A

>  <tags>  (263) 
['GOOD count', "[Other] S1' site", 'MEDIOCRE count', '[Other] S1 site', 'hits', '[Other] S2 site', '[Other] P3 compound design', '[Other] upload_1 2025-02-12', 'Main status', '[Series] Piperidine series', 'BAD count']

>  <inspirations>  (263) 
None

>  <subsites>  (263) 
None

>  <reference>  (263) 


>  <observation_longname>  (263) 
A71EV2A-x3993_C_201_v1

>  <ConformerSites alias>  (263) 
1b - A0911/A/147

>  <CanonSites alias>  (263) 
1 - Active Site

>  <CrystalformSites alias>  (263) 
F7k - A3509/C/201

>  <Quatassemblies alias>  (263) 
A1 - monomer

>  <Crystalforms alias>  (263) 
F7 - A712A_x4207_8.1_refmac1_1st_ref

>  <ConformerSites upload name>  (263) 
1b - A71EV2A-x0911/A/147

>  <CanonSites upload name>  (263) 
1 - A71EV2A-x0911/A/147/1

>  <CrystalformSites upload name>  (263) 
F7k - A71EV2A-x3509/C/201/1

>  <Quatassemblies upload name>  (263) 
A1 - monomer

>  <Crystalforms upload name>  (263) 
F7 - A712A_x4207_8.1_refmac1_1st_ref

>  <ConformerSites short tag>  (263) 
1b - A0911/A/147

>  <CanonSites short tag>  (263) 
1 - A0911/A/147/1

>  <CrystalformSites short tag>  (263) 
F7k - A3509/C/201

>  <Quatassemblies short tag>  (263) 
A1 - monomer

>  <Crystalforms short tag>  (263) 
F7 - A712A_x4207_8.1_refmac1_1st_ref

>  <Centroid res>  (263) 
A71EV2A-x0911/A/133/A_v1

>  <Experiment code>  (263) 
A71EV2A-x3993

>  <Pose>  (263) 
A3993a

$$$$
A4012a
     RDKit          3D

 20 21  0  0  0  0  0  0  0  0999 V2000
   10.3060   16.6970   19.2290 O   0  0  0  0  0  0  0  0  0  0  0  0
   10.6380   15.5320   19.4810 C   0  0  0  0  0  0  0  0  0  0  0  0
   10.9800   14.6620   18.5310 N   0  0  0  0  0  0  0  0  0  0  0  0
   10.6250   14.9990   20.9030 C   0  0  1  0  0  0  0  0  0  0  0  0
   11.7410   15.6080   21.7760 C   0  0  0  0  0  0  0  0  0  0  0  0
   11.7250   14.9760   23.1740 C   0  0  0  0  0  0  0  0  0  0  0  0
   10.3610   15.1280   23.8210 C   0  0  0  0  0  0  0  0  0  0  0  0
    9.2610   15.2290   21.5630 C   0  0  0  0  0  0  0  0  0  0  0  0
    9.2770   14.6810   22.9250 N   0  0  0  0  0  0  0  0  0  0  0  0
    8.3590   13.7150   23.2430 C   0  0  0  0  0  0  0  0  0  0  0  0
    7.5760   13.2730   22.4250 O   0  0  0  0  0  0  0  0  0  0  0  0
    8.3620   13.2760   24.5290 N   0  0  0  0  0  0  0  0  0  0  0  0
    7.4930   12.2700   25.0120 C   0  0  0  0  0  0  0  0  0  0  0  0
    7.7280   10.9260   24.5960 C   0  0  0  0  0  0  0  0  0  0  0  0
    8.7930   10.7640   23.7540 O   0  0  0  0  0  0  0  0  0  0  0  0
    9.1140    9.4240   23.3270 C   0  0  0  0  0  0  0  0  0  0  0  0
    6.4660   12.5320   25.9210 C   0  0  0  0  0  0  0  0  0  0  0  0
    5.7080   11.4800   26.4170 C   0  0  0  0  0  0  0  0  0  0  0  0
    5.9400   10.1840   26.0020 C   0  0  0  0  0  0  0  0  0  0  0  0
    6.9510    9.8940   25.0920 C   0  0  0  0  0  0  0  0  0  0  0  0
 16 15  1  0
 15 14  1  0
 14 20  2  0
 20 19  1  0
 19 18  2  0
 18 17  1  0
 17 13  2  0
 14 13  1  0
 13 12  1  0
 12 10  1  0
 11 10  2  0
 10  9  1  0
  9  7  1  0
  7  6  1  0
  6  5  1  0
  5  4  1  0
  4  2  1  6
  3  2  1  0
  2  1  2  0
  8  4  1  0
  9  8  1  0
M  END
>  <id>  (264) 
264

>  <inchikey>  (264) 
IQHVDKFVLUCUBM-JTQLQIEISA-N

>  <alias>  (264) 
A4012a

>  <smiles>  (264) 
COc1ccccc1NC(=O)N1CCC[C@H](C(N)=O)C1

>  <path>  (264) 
/opt/xchem-fragalysis-2/maxwin/BulkDock/TARGETS/A71EV2A/aligned_files/A4012a/A4012a_hippo.pdb

>  <distance_score>  (264) 
None

>  <energy_score>  (264) 
None

>  <compound>  (264) 
IQHVDKFVLUCUBM-UHFFFAOYSA-N

>  <compound_id>  (264) 
209

>  <target>  (264) 
A71EV2A

>  <tags>  (264) 
['GOOD count', 'MEDIOCRE count', '[Other] S1 site', 'hits', '[Other] S2 site', '[Other] P3 compound design', '[Series] Piperidine series', 'Main status', '[Other] upload_061224', 'BAD count']

>  <inspirations>  (264) 
None

>  <subsites>  (264) 
None

>  <reference>  (264) 


>  <observation_longname>  (264) 
A71EV2A-x4012_A_201_v1

>  <ConformerSites alias>  (264) 
1b - A0911/A/147

>  <CanonSites alias>  (264) 
1 - Active Site

>  <CrystalformSites alias>  (264) 
F6m - A3858/A/201

>  <Quatassemblies alias>  (264) 
A1 - monomer

>  <Crystalforms alias>  (264) 
F6 - short_long_x4018

>  <ConformerSites upload name>  (264) 
1b - A71EV2A-x0911/A/147

>  <CanonSites upload name>  (264) 
1 - A71EV2A-x0911/A/147/1

>  <CrystalformSites upload name>  (264) 
F6m - A71EV2A-x3858/A/201/1

>  <Quatassemblies upload name>  (264) 
A1 - monomer

>  <Crystalforms upload name>  (264) 
F6 - short_long_x4018

>  <ConformerSites short tag>  (264) 
1b - A0911/A/147

>  <CanonSites short tag>  (264) 
1 - A0911/A/147/1

>  <CrystalformSites short tag>  (264) 
F6m - A3858/A/201

>  <Quatassemblies short tag>  (264) 
A1 - monomer

>  <Crystalforms short tag>  (264) 
F6 - short_long_x4018

>  <Centroid res>  (264) 
A71EV2A-x0911/A/133/A_v1

>  <Experiment code>  (264) 
A71EV2A-x4012

>  <Pose>  (264) 
A4012a

$$$$
A4012b
     RDKit          3D

 20 21  0  0  0  0  0  0  0  0999 V2000
   10.3970   16.6530   19.2580 O   0  0  0  0  0  0  0  0  0  0  0  0
   10.7640   15.4910   19.4900 C   0  0  0  0  0  0  0  0  0  0  0  0
   11.0570   14.6150   18.5280 N   0  0  0  0  0  0  0  0  0  0  0  0
   10.8280   14.9610   20.9110 C   0  0  1  0  0  0  0  0  0  0  0  0
   11.9720   15.6170   21.7030 C   0  0  0  0  0  0  0  0  0  0  0  0
   12.0530   15.0180   23.1110 C   0  0  0  0  0  0  0  0  0  0  0  0
   10.7250   15.1350   23.8380 C   0  0  0  0  0  0  0  0  0  0  0  0
    9.5060   15.1690   21.6490 C   0  0  0  0  0  0  0  0  0  0  0  0
    9.6180   14.6230   23.0060 N   0  0  0  0  0  0  0  0  0  0  0  0
    8.7540   13.6200   23.3650 C   0  0  0  0  0  0  0  0  0  0  0  0
    7.9240   13.1620   22.5850 O   0  0  0  0  0  0  0  0  0  0  0  0
    8.8570   13.1650   24.6370 N   0  0  0  0  0  0  0  0  0  0  0  0
    7.9990   12.1410   25.1450 C   0  0  0  0  0  0  0  0  0  0  0  0
    8.2000   10.8130   24.7170 C   0  0  0  0  0  0  0  0  0  0  0  0
    9.2180   10.6390   23.8150 O   0  0  0  0  0  0  0  0  0  0  0  0
    9.4810    9.3000   23.3630 C   0  0  0  0  0  0  0  0  0  0  0  0
    7.0270   12.4040   26.1040 C   0  0  0  0  0  0  0  0  0  0  0  0
    6.2800   11.3680   26.6390 C   0  0  0  0  0  0  0  0  0  0  0  0
    6.4760   10.0680   26.2100 C   0  0  0  0  0  0  0  0  0  0  0  0
    7.4260    9.7830   25.2400 C   0  0  0  0  0  0  0  0  0  0  0  0
 16 15  1  0
 15 14  1  0
 14 20  2  0
 20 19  1  0
 19 18  2  0
 18 17  1  0
 17 13  2  0
 14 13  1  0
 13 12  1  0
 12 10  1  0
 11 10  2  0
 10  9  1  0
  9  7  1  0
  7  6  1  0
  6  5  1  0
  5  4  1  0
  4  2  1  6
  3  2  1  0
  2  1  2  0
  8  4  1  0
  9  8  1  0
M  END
>  <id>  (265) 
265

>  <inchikey>  (265) 
IQHVDKFVLUCUBM-JTQLQIEISA-N

>  <alias>  (265) 
A4012b

>  <smiles>  (265) 
COc1ccccc1NC(=O)N1CCC[C@H](C(N)=O)C1

>  <path>  (265) 
/opt/xchem-fragalysis-2/maxwin/BulkDock/TARGETS/A71EV2A/aligned_files/A4012b/A4012b_hippo.pdb

>  <distance_score>  (265) 
None

>  <energy_score>  (265) 
None

>  <compound>  (265) 
IQHVDKFVLUCUBM-UHFFFAOYSA-N

>  <compound_id>  (265) 
209

>  <target>  (265) 
A71EV2A

>  <tags>  (265) 
['GOOD count', 'MEDIOCRE count', '[Other] S1 site', 'hits', '[Other] S2 site', '[Other] P3 compound design', '[Series] Piperidine series', 'Main status', '[Other] upload_061224', 'BAD count']

>  <inspirations>  (265) 
None

>  <subsites>  (265) 
None

>  <reference>  (265) 


>  <observation_longname>  (265) 
A71EV2A-x4012_C_201_v1

>  <ConformerSites alias>  (265) 
1b - A0911/A/147

>  <CanonSites alias>  (265) 
1 - Active Site

>  <CrystalformSites alias>  (265) 
F6n - A3858/C/201

>  <Quatassemblies alias>  (265) 
A1 - monomer

>  <Crystalforms alias>  (265) 
F6 - short_long_x4018

>  <ConformerSites upload name>  (265) 
1b - A71EV2A-x0911/A/147

>  <CanonSites upload name>  (265) 
1 - A71EV2A-x0911/A/147/1

>  <CrystalformSites upload name>  (265) 
F6n - A71EV2A-x3858/C/201/1

>  <Quatassemblies upload name>  (265) 
A1 - monomer

>  <Crystalforms upload name>  (265) 
F6 - short_long_x4018

>  <ConformerSites short tag>  (265) 
1b - A0911/A/147

>  <CanonSites short tag>  (265) 
1 - A0911/A/147/1

>  <CrystalformSites short tag>  (265) 
F6n - A3858/C/201

>  <Quatassemblies short tag>  (265) 
A1 - monomer

>  <Crystalforms short tag>  (265) 
F6 - short_long_x4018

>  <Centroid res>  (265) 
A71EV2A-x0911/A/133/A_v1

>  <Experiment code>  (265) 
A71EV2A-x4012

>  <Pose>  (265) 
A4012a

$$$$
A4017a
     RDKit          3D

 22 24  0  0  0  0  0  0  0  0999 V2000
   10.3770   16.6710   19.1290 O   0  0  0  0  0  0  0  0  0  0  0  0
   10.7690   15.5320   19.3900 C   0  0  0  0  0  0  0  0  0  0  0  0
   11.0080   14.6200   18.4590 N   0  0  0  0  0  0  0  0  0  0  0  0
   11.1240   15.1350   20.8140 C   0  0  1  0  0  0  0  0  0  0  0  0
   12.2630   16.0200   21.3260 C   0  0  0  0  0  0  0  0  0  0  0  0
   12.6780   15.6410   22.7420 C   0  0  0  0  0  0  0  0  0  0  0  0
   11.5020   15.7310   23.6700 C   0  0  0  0  0  0  0  0  0  0  0  0
    9.9540   15.2110   21.8040 C   0  0  0  0  0  0  0  0  0  0  0  0
   10.4210   14.8850   23.1610 N   0  0  0  0  0  0  0  0  0  0  0  0
   10.1350   13.7530   23.8530 C   0  0  0  0  0  0  0  0  0  0  0  0
   10.4210   13.6370   25.0440 O   0  0  0  0  0  0  0  0  0  0  0  0
    9.6320   12.7280   23.1290 N   0  0  0  0  0  0  0  0  0  0  0  0
    9.0970   11.5880   23.7420 C   0  0  0  0  0  0  0  0  0  0  0  0
    9.4520   10.2820   23.4090 C   0  0  0  0  0  0  0  0  0  0  0  0
    8.7160    9.2090   23.8950 C   0  0  0  0  0  0  0  0  0  0  0  0
    7.6400    9.4090   24.7470 C   0  0  0  0  0  0  0  0  0  0  0  0
    7.3280   10.7070   25.1190 C   0  0  0  0  0  0  0  0  0  0  0  0
    6.3750   11.2000   25.9490 N   0  0  0  0  0  0  0  0  0  0  0  0
    5.3920   10.4650   26.7290 C   0  0  0  0  0  0  0  0  0  0  0  0
    8.0400   11.8130   24.6280 C   0  0  0  0  0  0  0  0  0  0  0  0
    7.4160   12.9320   25.2340 C   0  0  0  0  0  0  0  0  0  0  0  0
    6.4270   12.5620   26.0170 N   0  0  0  0  0  0  0  0  0  0  0  0
 19 18  1  0
 18 22  1  0
 22 21  2  0
 21 20  1  0
 20 13  1  0
 13 12  1  0
 12 10  1  0
 11 10  2  0
 10  9  1  0
  9  7  1  0
  7  6  1  0
  6  5  1  0
  5  4  1  0
  4  2  1  6
  3  2  1  0
  2  1  2  0
  8  4  1  0
  9  8  1  0
 14 13  2  0
 15 14  1  0
 16 15  2  0
 17 16  1  0
 20 17  2  0
 18 17  1  0
M  END
>  <id>  (266) 
266

>  <inchikey>  (266) 
ZWLQWOFMLDHIDB-JTQLQIEISA-N

>  <alias>  (266) 
A4017a

>  <smiles>  (266) 
Cn1ncc2c(NC(=O)N3CCC[C@H](C(N)=O)C3)cccc21

>  <path>  (266) 
/opt/xchem-fragalysis-2/maxwin/BulkDock/TARGETS/A71EV2A/aligned_files/A4017a/A4017a_hippo.pdb

>  <distance_score>  (266) 
None

>  <energy_score>  (266) 
None

>  <compound>  (266) 
ZWLQWOFMLDHIDB-UHFFFAOYSA-N

>  <compound_id>  (266) 
210

>  <target>  (266) 
A71EV2A

>  <tags>  (266) 
['GOOD count', 'MEDIOCRE count', '[Other] S1 site', 'hits', '[Other] S2 site', '[Other] P3 compound design', '[Series] Piperidine series', 'Main status', 'BAD count']

>  <inspirations>  (266) 
None

>  <subsites>  (266) 
None

>  <reference>  (266) 


>  <observation_longname>  (266) 
A71EV2A-x4017_A_201_v1

>  <ConformerSites alias>  (266) 
1b - A0911/A/147

>  <CanonSites alias>  (266) 
1 - Active Site

>  <CrystalformSites alias>  (266) 
F7j - A3509/A/201

>  <Quatassemblies alias>  (266) 
A1 - monomer

>  <Crystalforms alias>  (266) 
F7 - A712A_x4207_8.1_refmac1_1st_ref

>  <ConformerSites upload name>  (266) 
1b - A71EV2A-x0911/A/147

>  <CanonSites upload name>  (266) 
1 - A71EV2A-x0911/A/147/1

>  <CrystalformSites upload name>  (266) 
F7j - A71EV2A-x3509/A/201/1

>  <Quatassemblies upload name>  (266) 
A1 - monomer

>  <Crystalforms upload name>  (266) 
F7 - A712A_x4207_8.1_refmac1_1st_ref

>  <ConformerSites short tag>  (266) 
1b - A0911/A/147

>  <CanonSites short tag>  (266) 
1 - A0911/A/147/1

>  <CrystalformSites short tag>  (266) 
F7j - A3509/A/201

>  <Quatassemblies short tag>  (266) 
A1 - monomer

>  <Crystalforms short tag>  (266) 
F7 - A712A_x4207_8.1_refmac1_1st_ref

>  <Centroid res>  (266) 
A71EV2A-x0911/A/133/A_v1

>  <Experiment code>  (266) 
A71EV2A-x4017

>  <Pose>  (266) 
A4017a

$$$$
A4017b
     RDKit          3D

 22 24  0  0  0  0  0  0  0  0999 V2000
   10.5240   16.8120   19.1430 O   0  0  0  0  0  0  0  0  0  0  0  0
   10.9050   15.6530   19.3720 C   0  0  0  0  0  0  0  0  0  0  0  0
   11.0330   14.7280   18.4290 N   0  0  0  0  0  0  0  0  0  0  0  0
   11.2290   15.2030   20.7870 C   0  0  1  0  0  0  0  0  0  0  0  0
   12.3070   16.1120   21.4090 C   0  0  0  0  0  0  0  0  0  0  0  0
   12.5750   15.7600   22.8710 C   0  0  0  0  0  0  0  0  0  0  0  0
   11.2880   15.7970   23.6540 C   0  0  0  0  0  0  0  0  0  0  0  0
    9.9690   15.1670   21.6590 C   0  0  0  0  0  0  0  0  0  0  0  0
   10.3230   14.8650   23.0550 N   0  0  0  0  0  0  0  0  0  0  0  0
   10.0940   13.7130   23.7570 C   0  0  0  0  0  0  0  0  0  0  0  0
   10.4190   13.5870   24.9380 O   0  0  0  0  0  0  0  0  0  0  0  0
    9.5710   12.6800   23.0580 N   0  0  0  0  0  0  0  0  0  0  0  0
    9.1680   11.5080   23.7330 C   0  0  0  0  0  0  0  0  0  0  0  0
    9.5540   10.2360   23.3150 C   0  0  0  0  0  0  0  0  0  0  0  0
    8.9120    9.1090   23.8070 C   0  0  0  0  0  0  0  0  0  0  0  0
    7.9060    9.2260   24.7560 C   0  0  0  0  0  0  0  0  0  0  0  0
    7.5770   10.4870   25.2280 C   0  0  0  0  0  0  0  0  0  0  0  0
    6.6770   10.8930   26.1620 N   0  0  0  0  0  0  0  0  0  0  0  0
    5.7050   10.0870   26.8860 C   0  0  0  0  0  0  0  0  0  0  0  0
    8.1960   11.6510   24.7410 C   0  0  0  0  0  0  0  0  0  0  0  0
    7.5900   12.7060   25.4710 C   0  0  0  0  0  0  0  0  0  0  0  0
    6.6920   12.2490   26.3170 N   0  0  0  0  0  0  0  0  0  0  0  0
 19 18  1  0
 18 22  1  0
 22 21  2  0
 21 20  1  0
 20 13  1  0
 13 12  1  0
 12 10  1  0
 11 10  2  0
 10  9  1  0
  9  7  1  0
  7  6  1  0
  6  5  1  0
  5  4  1  0
  4  2  1  6
  3  2  1  0
  2  1  2  0
  8  4  1  0
  9  8  1  0
 14 13  2  0
 15 14  1  0
 16 15  2  0
 17 16  1  0
 20 17  2  0
 18 17  1  0
M  END
>  <id>  (267) 
267

>  <inchikey>  (267) 
ZWLQWOFMLDHIDB-JTQLQIEISA-N

>  <alias>  (267) 
A4017b

>  <smiles>  (267) 
Cn1ncc2c(NC(=O)N3CCC[C@H](C(N)=O)C3)cccc21

>  <path>  (267) 
/opt/xchem-fragalysis-2/maxwin/BulkDock/TARGETS/A71EV2A/aligned_files/A4017b/A4017b.pdb

>  <distance_score>  (267) 
None

>  <energy_score>  (267) 
None

>  <compound>  (267) 
ZWLQWOFMLDHIDB-UHFFFAOYSA-N

>  <compound_id>  (267) 
210

>  <target>  (267) 
A71EV2A

>  <tags>  (267) 
['GOOD count', 'MEDIOCRE count', '[Other] S1 site', 'hits', '[Other] S2 site', '[Other] P3 compound design', '[Series] Piperidine series', 'Main status', '[Other] upload_061224', 'BAD count']

>  <inspirations>  (267) 
None

>  <subsites>  (267) 
None

>  <reference>  (267) 


>  <observation_longname>  (267) 
A71EV2A-x4017_C_201_v1

>  <ConformerSites alias>  (267) 
1b - A0911/A/147

>  <CanonSites alias>  (267) 
1 - Active Site

>  <CrystalformSites alias>  (267) 
F7k - A3509/C/201

>  <Quatassemblies alias>  (267) 
A1 - monomer

>  <Crystalforms alias>  (267) 
F7 - A712A_x4207_8.1_refmac1_1st_ref

>  <ConformerSites upload name>  (267) 
1b - A71EV2A-x0911/A/147

>  <CanonSites upload name>  (267) 
1 - A71EV2A-x0911/A/147/1

>  <CrystalformSites upload name>  (267) 
F7k - A71EV2A-x3509/C/201/1

>  <Quatassemblies upload name>  (267) 
A1 - monomer

>  <Crystalforms upload name>  (267) 
F7 - A712A_x4207_8.1_refmac1_1st_ref

>  <ConformerSites short tag>  (267) 
1b - A0911/A/147

>  <CanonSites short tag>  (267) 
1 - A0911/A/147/1

>  <CrystalformSites short tag>  (267) 
F7k - A3509/C/201

>  <Quatassemblies short tag>  (267) 
A1 - monomer

>  <Crystalforms short tag>  (267) 
F7 - A712A_x4207_8.1_refmac1_1st_ref

>  <Centroid res>  (267) 
A71EV2A-x0911/A/133/A_v1

>  <Experiment code>  (267) 
A71EV2A-x4017

>  <Pose>  (267) 
A4017a

$$$$
A4018a
     RDKit          3D

 21 22  0  0  0  0  0  0  0  0999 V2000
   10.2070   16.6630   19.0200 O   0  0  0  0  0  0  0  0  0  0  0  0
   10.5570   15.5250   19.3440 C   0  0  0  0  0  0  0  0  0  0  0  0
   11.0100   14.6360   18.4760 N   0  0  0  0  0  0  0  0  0  0  0  0
   10.4940   15.0670   20.7920 C   0  0  1  0  0  0  0  0  0  0  0  0
   11.6520   15.7000   21.5690 C   0  0  0  0  0  0  0  0  0  0  0  0
   12.0790   14.9020   22.7850 C   0  0  0  0  0  0  0  0  0  0  0  0
   11.1640   15.0400   23.9800 C   0  0  0  0  0  0  0  0  0  0  0  0
    9.1020   15.3710   21.3640 C   0  0  0  0  0  0  0  0  0  0  0  0
    9.0020   15.6370   22.8670 C   0  0  0  0  0  0  0  0  0  0  0  0
    9.7640   14.6980   23.7060 N   0  0  0  0  0  0  0  0  0  0  0  0
    9.2210   13.6270   24.3190 C   0  0  0  0  0  0  0  0  0  0  0  0
    9.7820   13.0540   25.2460 O   0  0  0  0  0  0  0  0  0  0  0  0
    7.8510   13.1770   23.8610 C   0  0  0  0  0  0  0  0  0  0  0  0
    7.3200   12.1250   24.8050 C   0  0  0  0  0  0  0  0  0  0  0  0
    7.6510   10.7810   24.6200 C   0  0  0  0  0  0  0  0  0  0  0  0
    8.6230   10.5490   23.6840 O   0  0  0  0  0  0  0  0  0  0  0  0
    9.3260    9.3120   23.7300 C   0  0  0  0  0  0  0  0  0  0  0  0
    6.4130   12.4530   25.8090 C   0  0  0  0  0  0  0  0  0  0  0  0
    5.8140   11.4660   26.5700 C   0  0  0  0  0  0  0  0  0  0  0  0
    6.1000   10.1440   26.3310 C   0  0  0  0  0  0  0  0  0  0  0  0
    7.0230    9.7900   25.3570 C   0  0  0  0  0  0  0  0  0  0  0  0
 17 16  1  0
 16 15  1  0
 15 21  2  0
 21 20  1  0
 20 19  2  0
 19 18  1  0
 18 14  2  0
 15 14  1  0
 14 13  1  0
 13 11  1  0
 12 11  2  0
 11 10  1  0
 10  7  1  0
  7  6  1  0
  6  5  1  0
  5  4  1  0
  4  2  1  6
  3  2  1  0
  2  1  2  0
  8  4  1  0
  9  8  1  0
 10  9  1  0
M  END
>  <id>  (268) 
268

>  <inchikey>  (268) 
KYIQVLMLIAPQNM-LBPRGKRZSA-N

>  <alias>  (268) 
A4018a

>  <smiles>  (268) 
COc1ccccc1CC(=O)N1CCC[C@H](C(N)=O)CC1

>  <path>  (268) 
/opt/xchem-fragalysis-2/maxwin/BulkDock/TARGETS/A71EV2A/aligned_files/A4018a/A4018a_hippo.pdb

>  <distance_score>  (268) 
None

>  <energy_score>  (268) 
None

>  <compound>  (268) 
KYIQVLMLIAPQNM-UHFFFAOYSA-N

>  <compound_id>  (268) 
211

>  <target>  (268) 
A71EV2A

>  <tags>  (268) 
['GOOD count', 'MEDIOCRE count', '[Other] S1 site', 'hits', '[Other] S2 site', '[Other] P3 compound design', 'Main status', '[Other] upload_061224', 'BAD count']

>  <inspirations>  (268) 
None

>  <subsites>  (268) 
None

>  <reference>  (268) 


>  <observation_longname>  (268) 
A71EV2A-x4018_A_201_v1

>  <ConformerSites alias>  (268) 
1b - A0911/A/147

>  <CanonSites alias>  (268) 
1 - Active Site

>  <CrystalformSites alias>  (268) 
F6m - A3858/A/201

>  <Quatassemblies alias>  (268) 
A1 - monomer

>  <Crystalforms alias>  (268) 
F6 - short_long_x4018

>  <ConformerSites upload name>  (268) 
1b - A71EV2A-x0911/A/147

>  <CanonSites upload name>  (268) 
1 - A71EV2A-x0911/A/147/1

>  <CrystalformSites upload name>  (268) 
F6m - A71EV2A-x3858/A/201/1

>  <Quatassemblies upload name>  (268) 
A1 - monomer

>  <Crystalforms upload name>  (268) 
F6 - short_long_x4018

>  <ConformerSites short tag>  (268) 
1b - A0911/A/147

>  <CanonSites short tag>  (268) 
1 - A0911/A/147/1

>  <CrystalformSites short tag>  (268) 
F6m - A3858/A/201

>  <Quatassemblies short tag>  (268) 
A1 - monomer

>  <Crystalforms short tag>  (268) 
F6 - short_long_x4018

>  <Centroid res>  (268) 
A71EV2A-x0911/A/133/A_v1

>  <Experiment code>  (268) 
A71EV2A-x4018

>  <Pose>  (268) 
A4018a

$$$$
A4018b
     RDKit          3D

 21 22  0  0  0  0  0  0  0  0999 V2000
   10.3380   16.7450   19.1040 O   0  0  0  0  0  0  0  0  0  0  0  0
   10.6520   15.5920   19.4310 C   0  0  0  0  0  0  0  0  0  0  0  0
   10.9640   14.6460   18.5590 N   0  0  0  0  0  0  0  0  0  0  0  0
   10.6530   15.1690   20.8880 C   0  0  1  0  0  0  0  0  0  0  0  0
   11.8600   15.8100   21.5790 C   0  0  0  0  0  0  0  0  0  0  0  0
   12.3160   15.0630   22.8130 C   0  0  0  0  0  0  0  0  0  0  0  0
   11.4220   15.2810   24.0050 C   0  0  0  0  0  0  0  0  0  0  0  0
    9.2920   15.5230   21.4990 C   0  0  0  0  0  0  0  0  0  0  0  0
    9.1890   15.7010   23.0130 C   0  0  0  0  0  0  0  0  0  0  0  0
   10.0540   14.8020   23.7850 N   0  0  0  0  0  0  0  0  0  0  0  0
    9.6490   13.6580   24.3720 C   0  0  0  0  0  0  0  0  0  0  0  0
   10.3190   13.0900   25.2270 O   0  0  0  0  0  0  0  0  0  0  0  0
    8.2740   13.1430   24.0020 C   0  0  0  0  0  0  0  0  0  0  0  0
    7.8310   12.0910   24.9910 C   0  0  0  0  0  0  0  0  0  0  0  0
    8.1350   10.7470   24.7760 C   0  0  0  0  0  0  0  0  0  0  0  0
    9.0850   10.5200   23.8140 O   0  0  0  0  0  0  0  0  0  0  0  0
    9.5880    9.1980   23.6580 C   0  0  0  0  0  0  0  0  0  0  0  0
    6.9960   12.4180   26.0540 C   0  0  0  0  0  0  0  0  0  0  0  0
    6.4270   11.4310   26.8370 C   0  0  0  0  0  0  0  0  0  0  0  0
    6.6760   10.1100   26.5680 C   0  0  0  0  0  0  0  0  0  0  0  0
    7.5320    9.7550   25.5350 C   0  0  0  0  0  0  0  0  0  0  0  0
 17 16  1  0
 16 15  1  0
 15 21  2  0
 21 20  1  0
 20 19  2  0
 19 18  1  0
 18 14  2  0
 15 14  1  0
 14 13  1  0
 13 11  1  0
 12 11  2  0
 11 10  1  0
 10  7  1  0
  7  6  1  0
  6  5  1  0
  5  4  1  0
  4  2  1  6
  3  2  1  0
  2  1  2  0
  8  4  1  0
  9  8  1  0
 10  9  1  0
M  END
>  <id>  (269) 
269

>  <inchikey>  (269) 
KYIQVLMLIAPQNM-LBPRGKRZSA-N

>  <alias>  (269) 
A4018b

>  <smiles>  (269) 
COc1ccccc1CC(=O)N1CCC[C@H](C(N)=O)CC1

>  <path>  (269) 
/opt/xchem-fragalysis-2/maxwin/BulkDock/TARGETS/A71EV2A/aligned_files/A4018b/A4018b_hippo.pdb

>  <distance_score>  (269) 
None

>  <energy_score>  (269) 
None

>  <compound>  (269) 
KYIQVLMLIAPQNM-UHFFFAOYSA-N

>  <compound_id>  (269) 
211

>  <target>  (269) 
A71EV2A

>  <tags>  (269) 
['GOOD count', 'MEDIOCRE count', '[Other] S1 site', 'hits', '[Other] S2 site', '[Other] P3 compound design', 'Main status', '[Other] upload_061224', 'BAD count']

>  <inspirations>  (269) 
None

>  <subsites>  (269) 
None

>  <reference>  (269) 


>  <observation_longname>  (269) 
A71EV2A-x4018_C_201_v1

>  <ConformerSites alias>  (269) 
1b - A0911/A/147

>  <CanonSites alias>  (269) 
1 - Active Site

>  <CrystalformSites alias>  (269) 
F6n - A3858/C/201

>  <Quatassemblies alias>  (269) 
A1 - monomer

>  <Crystalforms alias>  (269) 
F6 - short_long_x4018

>  <ConformerSites upload name>  (269) 
1b - A71EV2A-x0911/A/147

>  <CanonSites upload name>  (269) 
1 - A71EV2A-x0911/A/147/1

>  <CrystalformSites upload name>  (269) 
F6n - A71EV2A-x3858/C/201/1

>  <Quatassemblies upload name>  (269) 
A1 - monomer

>  <Crystalforms upload name>  (269) 
F6 - short_long_x4018

>  <ConformerSites short tag>  (269) 
1b - A0911/A/147

>  <CanonSites short tag>  (269) 
1 - A0911/A/147/1

>  <CrystalformSites short tag>  (269) 
F6n - A3858/C/201

>  <Quatassemblies short tag>  (269) 
A1 - monomer

>  <Crystalforms short tag>  (269) 
F6 - short_long_x4018

>  <Centroid res>  (269) 
A71EV2A-x0911/A/133/A_v1

>  <Experiment code>  (269) 
A71EV2A-x4018

>  <Pose>  (269) 
A4018a

$$$$
A4020a
     RDKit          3D

 19 20  0  0  0  0  0  0  0  0999 V2000
   10.2340   16.7990   19.0970 O   0  0  0  0  0  0  0  0  0  0  0  0
   10.5320   15.6350   19.3800 C   0  0  0  0  0  0  0  0  0  0  0  0
   10.8220   14.7240   18.4580 N   0  0  0  0  0  0  0  0  0  0  0  0
   10.5710   15.1650   20.8210 C   0  0  1  0  0  0  0  0  0  0  0  0
   11.7660   15.7710   21.5850 C   0  0  0  0  0  0  0  0  0  0  0  0
   11.7900   15.2990   23.0400 C   0  0  0  0  0  0  0  0  0  0  0  0
   10.4750   15.6260   23.7120 C   0  0  0  0  0  0  0  0  0  0  0  0
    9.2860   15.5820   21.5380 C   0  0  0  0  0  0  0  0  0  0  0  0
    9.3420   15.1090   22.9230 N   0  0  0  0  0  0  0  0  0  0  0  0
    8.5290   14.1060   23.3080 C   0  0  0  0  0  0  0  0  0  0  0  0
    7.6670   13.6450   22.5750 O   0  0  0  0  0  0  0  0  0  0  0  0
    8.7700   13.5610   24.7040 C   0  0  0  0  0  0  0  0  0  0  0  0
    8.2350   12.1600   24.8180 C   0  0  0  0  0  0  0  0  0  0  0  0
    7.1440   11.8670   25.6250 C   0  0  0  0  0  0  0  0  0  0  0  0
    6.6340   10.5790   25.6670 C   0  0  0  0  0  0  0  0  0  0  0  0
    7.2480    9.5700   24.9320 C   0  0  0  0  0  0  0  0  0  0  0  0
    8.8250   11.1360   24.0820 C   0  0  0  0  0  0  0  0  0  0  0  0
    8.3580    9.8350   24.1410 C   0  0  0  0  0  0  0  0  0  0  0  0
    9.0780    8.7280   23.4090 C   0  0  0  0  0  0  0  0  0  0  0  0
 19 18  1  0
 18 16  2  0
 16 15  1  0
 15 14  2  0
 14 13  1  0
 13 12  1  0
 12 10  1  0
 11 10  2  0
 10  9  1  0
  9  7  1  0
  7  6  1  0
  6  5  1  0
  5  4  1  0
  4  2  1  6
  3  2  1  0
  2  1  2  0
  8  4  1  0
  9  8  1  0
 17 13  2  0
 18 17  1  0
M  END
>  <id>  (270) 
270

>  <inchikey>  (270) 
MJMYLTAWMFARRM-ZDUSSCGKSA-N

>  <alias>  (270) 
A4020a

>  <smiles>  (270) 
Cc1cccc(CC(=O)N2CCC[C@H](C(N)=O)C2)c1

>  <path>  (270) 
/opt/xchem-fragalysis-2/maxwin/BulkDock/TARGETS/A71EV2A/aligned_files/A4020a/A4020a_hippo.pdb

>  <distance_score>  (270) 
None

>  <energy_score>  (270) 
None

>  <compound>  (270) 
MJMYLTAWMFARRM-UHFFFAOYSA-N

>  <compound_id>  (270) 
212

>  <target>  (270) 
A71EV2A

>  <tags>  (270) 
['GOOD count', 'MEDIOCRE count', '[Other] S1 site', 'hits', '[Other] S2 site', '[Other] P3 compound design', '[Series] Piperidine series', 'Main status', '[Other] upload_061224', 'BAD count']

>  <inspirations>  (270) 
None

>  <subsites>  (270) 
None

>  <reference>  (270) 


>  <observation_longname>  (270) 
A71EV2A-x4020_A_201_v1

>  <ConformerSites alias>  (270) 
1b - A0911/A/147

>  <CanonSites alias>  (270) 
1 - Active Site

>  <CrystalformSites alias>  (270) 
F7j - A3509/A/201

>  <Quatassemblies alias>  (270) 
A1 - monomer

>  <Crystalforms alias>  (270) 
F7 - A712A_x4207_8.1_refmac1_1st_ref

>  <ConformerSites upload name>  (270) 
1b - A71EV2A-x0911/A/147

>  <CanonSites upload name>  (270) 
1 - A71EV2A-x0911/A/147/1

>  <CrystalformSites upload name>  (270) 
F7j - A71EV2A-x3509/A/201/1

>  <Quatassemblies upload name>  (270) 
A1 - monomer

>  <Crystalforms upload name>  (270) 
F7 - A712A_x4207_8.1_refmac1_1st_ref

>  <ConformerSites short tag>  (270) 
1b - A0911/A/147

>  <CanonSites short tag>  (270) 
1 - A0911/A/147/1

>  <CrystalformSites short tag>  (270) 
F7j - A3509/A/201

>  <Quatassemblies short tag>  (270) 
A1 - monomer

>  <Crystalforms short tag>  (270) 
F7 - A712A_x4207_8.1_refmac1_1st_ref

>  <Centroid res>  (270) 
A71EV2A-x0911/A/133/A_v1

>  <Experiment code>  (270) 
A71EV2A-x4020

>  <Pose>  (270) 
A4020a

$$$$
A4020b
     RDKit          3D

 19 20  0  0  0  0  0  0  0  0999 V2000
   10.3430   16.8070   19.0980 O   0  0  0  0  0  0  0  0  0  0  0  0
   10.6840   15.6470   19.3640 C   0  0  0  0  0  0  0  0  0  0  0  0
   10.9310   14.7310   18.4370 N   0  0  0  0  0  0  0  0  0  0  0  0
   10.7940   15.1790   20.8020 C   0  0  1  0  0  0  0  0  0  0  0  0
   12.0160   15.8080   21.5010 C   0  0  0  0  0  0  0  0  0  0  0  0
   12.0970   15.3810   22.9750 C   0  0  0  0  0  0  0  0  0  0  0  0
   10.7970   15.6810   23.6920 C   0  0  0  0  0  0  0  0  0  0  0  0
    9.5290   15.5490   21.5840 C   0  0  0  0  0  0  0  0  0  0  0  0
    9.6660   15.0830   22.9680 N   0  0  0  0  0  0  0  0  0  0  0  0
    8.9100   14.0480   23.3880 C   0  0  0  0  0  0  0  0  0  0  0  0
    8.0410   13.5490   22.6870 O   0  0  0  0  0  0  0  0  0  0  0  0
    9.2180   13.4850   24.7640 C   0  0  0  0  0  0  0  0  0  0  0  0
    8.6800   12.0790   24.8960 C   0  0  0  0  0  0  0  0  0  0  0  0
    7.6120   11.7930   25.7440 C   0  0  0  0  0  0  0  0  0  0  0  0
    7.0970   10.5110   25.8080 C   0  0  0  0  0  0  0  0  0  0  0  0
    7.6420    9.5070   25.0210 C   0  0  0  0  0  0  0  0  0  0  0  0
    9.2240   11.0510   24.1330 C   0  0  0  0  0  0  0  0  0  0  0  0
    8.7260    9.7580   24.1910 C   0  0  0  0  0  0  0  0  0  0  0  0
    9.3780    8.6450   23.4080 C   0  0  0  0  0  0  0  0  0  0  0  0
 19 18  1  0
 18 16  2  0
 16 15  1  0
 15 14  2  0
 14 13  1  0
 13 12  1  0
 12 10  1  0
 11 10  2  0
 10  9  1  0
  9  7  1  0
  7  6  1  0
  6  5  1  0
  5  4  1  0
  4  2  1  6
  3  2  1  0
  2  1  2  0
  8  4  1  0
  9  8  1  0
 17 13  2  0
 18 17  1  0
M  END
>  <id>  (271) 
271

>  <inchikey>  (271) 
MJMYLTAWMFARRM-ZDUSSCGKSA-N

>  <alias>  (271) 
A4020b

>  <smiles>  (271) 
Cc1cccc(CC(=O)N2CCC[C@H](C(N)=O)C2)c1

>  <path>  (271) 
/opt/xchem-fragalysis-2/maxwin/BulkDock/TARGETS/A71EV2A/aligned_files/A4020b/A4020b.pdb

>  <distance_score>  (271) 
None

>  <energy_score>  (271) 
None

>  <compound>  (271) 
MJMYLTAWMFARRM-UHFFFAOYSA-N

>  <compound_id>  (271) 
212

>  <target>  (271) 
A71EV2A

>  <tags>  (271) 
['GOOD count', 'MEDIOCRE count', '[Other] S1 site', 'hits', '[Other] S2 site', '[Other] P3 compound design', '[Series] Piperidine series', 'Main status', '[Other] upload_061224', 'BAD count']

>  <inspirations>  (271) 
None

>  <subsites>  (271) 
None

>  <reference>  (271) 


>  <observation_longname>  (271) 
A71EV2A-x4020_C_201_v1

>  <ConformerSites alias>  (271) 
1b - A0911/A/147

>  <CanonSites alias>  (271) 
1 - Active Site

>  <CrystalformSites alias>  (271) 
F7k - A3509/C/201

>  <Quatassemblies alias>  (271) 
A1 - monomer

>  <Crystalforms alias>  (271) 
F7 - A712A_x4207_8.1_refmac1_1st_ref

>  <ConformerSites upload name>  (271) 
1b - A71EV2A-x0911/A/147

>  <CanonSites upload name>  (271) 
1 - A71EV2A-x0911/A/147/1

>  <CrystalformSites upload name>  (271) 
F7k - A71EV2A-x3509/C/201/1

>  <Quatassemblies upload name>  (271) 
A1 - monomer

>  <Crystalforms upload name>  (271) 
F7 - A712A_x4207_8.1_refmac1_1st_ref

>  <ConformerSites short tag>  (271) 
1b - A0911/A/147

>  <CanonSites short tag>  (271) 
1 - A0911/A/147/1

>  <CrystalformSites short tag>  (271) 
F7k - A3509/C/201

>  <Quatassemblies short tag>  (271) 
A1 - monomer

>  <Crystalforms short tag>  (271) 
F7 - A712A_x4207_8.1_refmac1_1st_ref

>  <Centroid res>  (271) 
A71EV2A-x0911/A/133/A_v1

>  <Experiment code>  (271) 
A71EV2A-x4020

>  <Pose>  (271) 
A4020a

$$$$
A4028a
     RDKit          3D

 24 25  0  0  0  0  0  0  0  0999 V2000
   10.1310   16.7870   19.1040 O   0  0  0  0  0  0  0  0  0  0  0  0
   10.4990   15.6300   19.3470 C   0  0  0  0  0  0  0  0  0  0  0  0
   10.8680   14.7770   18.4040 N   0  0  0  0  0  0  0  0  0  0  0  0
   10.5780   15.1170   20.7760 C   0  0  1  0  0  0  0  0  0  0  0  0
   11.6290   15.8990   21.5850 C   0  0  0  0  0  0  0  0  0  0  0  0
   11.6880   15.4530   23.0510 C   0  0  0  0  0  0  0  0  0  0  0  0
   10.3100   15.4860   23.6850 C   0  0  0  0  0  0  0  0  0  0  0  0
    9.2320   15.2810   21.4860 C   0  0  0  0  0  0  0  0  0  0  0  0
    9.3360   14.7630   22.8540 N   0  0  0  0  0  0  0  0  0  0  0  0
    8.5870   13.7110   23.2430 C   0  0  0  0  0  0  0  0  0  0  0  0
    7.7170   13.2340   22.5310 O   0  0  0  0  0  0  0  0  0  0  0  0
    8.8760   13.1640   24.6290 C   0  0  0  0  0  0  0  0  0  0  0  0
    7.8950   12.0930   25.0440 C   0  0  0  0  0  0  0  0  0  0  0  0
    8.0800   10.7710   24.6390 C   0  0  0  0  0  0  0  0  0  0  0  0
    9.1690   10.5640   23.8350 O   0  0  0  0  0  0  0  0  0  0  0  0
    9.4240    9.2250   23.3780 C   0  0  0  0  0  0  0  0  0  0  0  0
    6.8520   12.3720   25.9270 C   0  0  0  0  0  0  0  0  0  0  0  0
    6.0090   11.3800   26.4160 C   0  0  0  0  0  0  0  0  0  0  0  0
    4.9030   11.7290   27.3650 C   0  0  0  0  0  0  0  0  0  0  0  0
    5.3430   11.9970   28.5690 F   0  0  0  0  0  0  0  0  0  0  0  0
    3.9990   10.7690   27.5270 F   0  0  0  0  0  0  0  0  0  0  0  0
    4.2130   12.7810   27.0000 F   0  0  0  0  0  0  0  0  0  0  0  0
    6.2240   10.0710   26.0040 C   0  0  0  0  0  0  0  0  0  0  0  0
    7.2450    9.7670   25.1160 C   0  0  0  0  0  0  0  0  0  0  0  0
 16 15  1  0
 15 14  1  0
 14 24  2  0
 24 23  1  0
 23 18  2  0
 19 18  1  0
 22 19  1  0
 21 19  1  0
 20 19  1  0
 18 17  1  0
 17 13  2  0
 14 13  1  0
 13 12  1  0
 12 10  1  0
 11 10  2  0
 10  9  1  0
  9  7  1  0
  7  6  1  0
  6  5  1  0
  5  4  1  0
  4  2  1  6
  3  2  1  0
  2  1  2  0
  8  4  1  0
  9  8  1  0
M  END
>  <id>  (272) 
272

>  <inchikey>  (272) 
PQPPRBLQDZEENG-JTQLQIEISA-N

>  <alias>  (272) 
A4028a

>  <smiles>  (272) 
COc1ccc(C(F)(F)F)cc1CC(=O)N1CCC[C@H](C(N)=O)C1

>  <path>  (272) 
/opt/xchem-fragalysis-2/maxwin/BulkDock/TARGETS/A71EV2A/aligned_files/A4028a/A4028a.pdb

>  <distance_score>  (272) 
None

>  <energy_score>  (272) 
None

>  <compound>  (272) 
PQPPRBLQDZEENG-UHFFFAOYSA-N

>  <compound_id>  (272) 
213

>  <target>  (272) 
A71EV2A

>  <tags>  (272) 
['GOOD count', 'MEDIOCRE count', '[Other] S1 site', 'hits', '[Other] S2 site', '[Other] P3 compound design', '[Other] upload_2 2024-12-12', 'Main status', '[Series] Piperidine series', 'BAD count']

>  <inspirations>  (272) 
None

>  <subsites>  (272) 
None

>  <reference>  (272) 


>  <observation_longname>  (272) 
A71EV2A-x4028_A_201_v1

>  <ConformerSites alias>  (272) 
1b - A0911/A/147

>  <CanonSites alias>  (272) 
1 - Active Site

>  <CrystalformSites alias>  (272) 
F8h - A0884/A/147

>  <Quatassemblies alias>  (272) 
A1 - monomer

>  <Crystalforms alias>  (272) 
F8 - A712A_x4271_2.1_refmac1_1st_ref

>  <ConformerSites upload name>  (272) 
1b - A71EV2A-x0911/A/147

>  <CanonSites upload name>  (272) 
1 - A71EV2A-x0911/A/147/1

>  <CrystalformSites upload name>  (272) 
F8h - A71EV2A-x0884/A/147/1

>  <Quatassemblies upload name>  (272) 
A1 - monomer

>  <Crystalforms upload name>  (272) 
F8 - A712A_x4271_2.1_refmac1_1st_ref

>  <ConformerSites short tag>  (272) 
1b - A0911/A/147

>  <CanonSites short tag>  (272) 
1 - A0911/A/147/1

>  <CrystalformSites short tag>  (272) 
F8h - A0884/A/147

>  <Quatassemblies short tag>  (272) 
A1 - monomer

>  <Crystalforms short tag>  (272) 
F8 - A712A_x4271_2.1_refmac1_1st_ref

>  <Centroid res>  (272) 
A71EV2A-x0911/A/133/A_v1

>  <Experiment code>  (272) 
A71EV2A-x4028

>  <Pose>  (272) 
A4028a

$$$$
A4029a
     RDKit          3D

 19 20  0  0  0  0  0  0  0  0999 V2000
   11.3330   14.6310   25.0480 O   0  0  0  0  0  0  0  0  0  0  0  0
   11.2370   14.8130   23.8420 C   0  0  0  0  0  0  0  0  0  0  0  0
   12.4170   15.3330   23.0640 C   0  0  0  0  0  0  0  0  0  0  0  0
   12.0980   15.8260   21.6470 C   0  0  0  0  0  0  0  0  0  0  0  0
   11.1160   14.8860   20.9240 C   0  0  2  0  0  0  0  0  0  0  0  0
   10.8410   15.3450   19.4990 C   0  0  0  0  0  0  0  0  0  0  0  0
   10.3610   16.4620   19.2650 O   0  0  0  0  0  0  0  0  0  0  0  0
   11.1220   14.4730   18.5500 N   0  0  0  0  0  0  0  0  0  0  0  0
    9.8220   14.7540   21.7390 C   0  0  0  0  0  0  0  0  0  0  0  0
   10.0800   14.5810   23.1750 N   0  0  0  0  0  0  0  0  0  0  0  0
    8.8770   14.1940   23.9210 C   0  0  0  0  0  0  0  0  0  0  0  0
    8.7240   12.6980   24.0600 C   0  0  0  0  0  0  0  0  0  0  0  0
    7.7360   12.1600   24.8920 C   0  0  0  0  0  0  0  0  0  0  0  0
    6.9770   13.0850   25.5740 O   0  0  0  0  0  0  0  0  0  0  0  0
    5.9030   12.6040   26.3890 C   0  0  0  0  0  0  0  0  0  0  0  0
    9.5770   11.8160   23.3930 C   0  0  0  0  0  0  0  0  0  0  0  0
    9.4390   10.4470   23.5320 C   0  0  0  0  0  0  0  0  0  0  0  0
    8.4520    9.9320   24.3380 C   0  0  0  0  0  0  0  0  0  0  0  0
    7.5980   10.7800   25.0230 C   0  0  0  0  0  0  0  0  0  0  0  0
 15 14  1  0
 14 13  1  0
 13 19  2  0
 19 18  1  0
 18 17  2  0
 17 16  1  0
 16 12  2  0
 13 12  1  0
 12 11  1  0
 11 10  1  0
 10  9  1  0
  9  5  1  0
  5  6  1  6
  8  6  1  0
  7  6  2  0
  5  4  1  0
  4  3  1  0
  3  2  1  0
 10  2  1  0
  2  1  2  0
M  END
>  <id>  (273) 
273

>  <inchikey>  (273) 
PBLXCFVVIRAUAX-NSHDSACASA-N

>  <alias>  (273) 
A4029a

>  <smiles>  (273) 
COc1ccccc1CN1C[C@@H](C(N)=O)CCC1=O

>  <path>  (273) 
/opt/xchem-fragalysis-2/maxwin/BulkDock/TARGETS/A71EV2A/aligned_files/A4029a/A4029a.pdb

>  <distance_score>  (273) 
None

>  <energy_score>  (273) 
None

>  <compound>  (273) 
PBLXCFVVIRAUAX-UHFFFAOYSA-N

>  <compound_id>  (273) 
138

>  <target>  (273) 
A71EV2A

>  <tags>  (273) 
['GOOD count', 'MEDIOCRE count', '[Other] S1 site', 'hits', '[Other] S2 site', '[Other] Lactam Series', '[Other] upload_6_2025-02-13', '[Other] P3 compound design', 'Main status', 'BAD count']

>  <inspirations>  (273) 
None

>  <subsites>  (273) 
None

>  <reference>  (273) 


>  <observation_longname>  (273) 
A71EV2A-x4029_A_201_v1

>  <ConformerSites alias>  (273) 
1b - A0911/A/147

>  <CanonSites alias>  (273) 
1 - Active Site

>  <CrystalformSites alias>  (273) 
F8h - A0884/A/147

>  <Quatassemblies alias>  (273) 
A1 - monomer

>  <Crystalforms alias>  (273) 
F8 - A712A_x4271_2.1_refmac1_1st_ref

>  <ConformerSites upload name>  (273) 
1b - A71EV2A-x0911/A/147

>  <CanonSites upload name>  (273) 
1 - A71EV2A-x0911/A/147/1

>  <CrystalformSites upload name>  (273) 
F8h - A71EV2A-x0884/A/147/1

>  <Quatassemblies upload name>  (273) 
A1 - monomer

>  <Crystalforms upload name>  (273) 
F8 - A712A_x4271_2.1_refmac1_1st_ref

>  <ConformerSites short tag>  (273) 
1b - A0911/A/147

>  <CanonSites short tag>  (273) 
1 - A0911/A/147/1

>  <CrystalformSites short tag>  (273) 
F8h - A0884/A/147

>  <Quatassemblies short tag>  (273) 
A1 - monomer

>  <Crystalforms short tag>  (273) 
F8 - A712A_x4271_2.1_refmac1_1st_ref

>  <Centroid res>  (273) 
A71EV2A-x0911/A/133/A_v1

>  <Experiment code>  (273) 
A71EV2A-x4029

>  <Pose>  (273) 
A4029a

$$$$
A4031a
     RDKit          3D

 20 21  0  0  0  0  0  0  0  0999 V2000
   10.2610   16.6270   19.3130 O   0  0  0  0  0  0  0  0  0  0  0  0
   10.6380   15.4660   19.5340 C   0  0  0  0  0  0  0  0  0  0  0  0
   10.9770   14.6170   18.5600 N   0  0  0  0  0  0  0  0  0  0  0  0
   10.6700   14.8990   20.9430 C   0  0  1  0  0  0  0  0  0  0  0  0
   11.8190   15.4940   21.7830 C   0  0  0  0  0  0  0  0  0  0  0  0
   11.8460   14.8490   23.1700 C   0  0  0  0  0  0  0  0  0  0  0  0
   10.4920   14.9970   23.8690 C   0  0  0  0  0  0  0  0  0  0  0  0
    9.3370   15.1350   21.6590 C   0  0  0  0  0  0  0  0  0  0  0  0
    9.3760   14.5540   23.0080 N   0  0  0  0  0  0  0  0  0  0  0  0
    8.4990   13.5640   23.3470 C   0  0  0  0  0  0  0  0  0  0  0  0
    7.7030   13.1140   22.5320 O   0  0  0  0  0  0  0  0  0  0  0  0
    8.5540   13.1230   24.6390 N   0  0  0  0  0  0  0  0  0  0  0  0
    7.7350   12.0670   25.1180 C   0  0  0  0  0  0  0  0  0  0  0  0
    7.9400   10.7280   24.6200 C   0  0  0  0  0  0  0  0  0  0  0  0
    8.9470   10.5690   23.7400 O   0  0  0  0  0  0  0  0  0  0  0  0
    9.2530    9.2240   23.3180 C   0  0  0  0  0  0  0  0  0  0  0  0
    6.7440   12.2540   26.0870 C   0  0  0  0  0  0  0  0  0  0  0  0
    6.0080   11.1550   26.5110 C   0  0  0  0  0  0  0  0  0  0  0  0
    6.2660    9.9240   25.9460 C   0  0  0  0  0  0  0  0  0  0  0  0
    7.2350    9.6910   25.0330 N   0  0  0  0  0  0  0  0  0  0  0  0
 16 15  1  0
 15 14  1  0
 14 20  2  0
 20 19  1  0
 19 18  2  0
 18 17  1  0
 17 13  2  0
 14 13  1  0
 13 12  1  0
 12 10  1  0
 11 10  2  0
 10  9  1  0
  9  7  1  0
  7  6  1  0
  6  5  1  0
  5  4  1  0
  4  2  1  6
  3  2  1  0
  2  1  2  0
  8  4  1  0
  9  8  1  0
M  END
>  <id>  (274) 
274

>  <inchikey>  (274) 
RJRRIOPTPBEHKH-VIFPVBQESA-N

>  <alias>  (274) 
A4031a

>  <smiles>  (274) 
COc1ncccc1NC(=O)N1CCC[C@H](C(N)=O)C1

>  <path>  (274) 
/opt/xchem-fragalysis-2/maxwin/BulkDock/TARGETS/A71EV2A/aligned_files/A4031a/A4031a_hippo.pdb

>  <distance_score>  (274) 
None

>  <energy_score>  (274) 
None

>  <compound>  (274) 
RJRRIOPTPBEHKH-UHFFFAOYSA-N

>  <compound_id>  (274) 
214

>  <target>  (274) 
A71EV2A

>  <tags>  (274) 
['GOOD count', 'MEDIOCRE count', '[Other] S1 site', 'hits', '[Other] S2 site', '[Other] P3 compound design', '[Series] Piperidine series', 'Main status', '[Other] upload_061224', 'BAD count']

>  <inspirations>  (274) 
None

>  <subsites>  (274) 
None

>  <reference>  (274) 


>  <observation_longname>  (274) 
A71EV2A-x4031_A_201_v1

>  <ConformerSites alias>  (274) 
1b - A0911/A/147

>  <CanonSites alias>  (274) 
1 - Active Site

>  <CrystalformSites alias>  (274) 
F6m - A3858/A/201

>  <Quatassemblies alias>  (274) 
A1 - monomer

>  <Crystalforms alias>  (274) 
F6 - short_long_x4018

>  <ConformerSites upload name>  (274) 
1b - A71EV2A-x0911/A/147

>  <CanonSites upload name>  (274) 
1 - A71EV2A-x0911/A/147/1

>  <CrystalformSites upload name>  (274) 
F6m - A71EV2A-x3858/A/201/1

>  <Quatassemblies upload name>  (274) 
A1 - monomer

>  <Crystalforms upload name>  (274) 
F6 - short_long_x4018

>  <ConformerSites short tag>  (274) 
1b - A0911/A/147

>  <CanonSites short tag>  (274) 
1 - A0911/A/147/1

>  <CrystalformSites short tag>  (274) 
F6m - A3858/A/201

>  <Quatassemblies short tag>  (274) 
A1 - monomer

>  <Crystalforms short tag>  (274) 
F6 - short_long_x4018

>  <Centroid res>  (274) 
A71EV2A-x0911/A/133/A_v1

>  <Experiment code>  (274) 
A71EV2A-x4031

>  <Pose>  (274) 
A4031a

$$$$
A4031b
     RDKit          3D

 20 21  0  0  0  0  0  0  0  0999 V2000
   10.3740   16.5990   19.3040 O   0  0  0  0  0  0  0  0  0  0  0  0
   10.7850   15.4420   19.5160 C   0  0  0  0  0  0  0  0  0  0  0  0
   11.0990   14.5950   18.5350 N   0  0  0  0  0  0  0  0  0  0  0  0
   10.8820   14.8850   20.9260 C   0  0  1  0  0  0  0  0  0  0  0  0
   12.0300   15.5250   21.7450 C   0  0  0  0  0  0  0  0  0  0  0  0
   12.1070   14.8760   23.1250 C   0  0  0  0  0  0  0  0  0  0  0  0
   10.7660   15.0090   23.8590 C   0  0  0  0  0  0  0  0  0  0  0  0
    9.5690   15.0880   21.6990 C   0  0  0  0  0  0  0  0  0  0  0  0
    9.6690   14.4780   23.0290 N   0  0  0  0  0  0  0  0  0  0  0  0
    8.7980   13.4860   23.3930 C   0  0  0  0  0  0  0  0  0  0  0  0
    7.9470   13.0550   22.6020 O   0  0  0  0  0  0  0  0  0  0  0  0
    8.8970   13.0310   24.6770 N   0  0  0  0  0  0  0  0  0  0  0  0
    8.0830   11.9690   25.1690 C   0  0  0  0  0  0  0  0  0  0  0  0
    8.2590   10.6480   24.6540 C   0  0  0  0  0  0  0  0  0  0  0  0
    9.2400   10.4810   23.7380 O   0  0  0  0  0  0  0  0  0  0  0  0
    9.5160    9.1320   23.2880 C   0  0  0  0  0  0  0  0  0  0  0  0
    7.1210   12.1570   26.1540 C   0  0  0  0  0  0  0  0  0  0  0  0
    6.3920   11.0600   26.5970 C   0  0  0  0  0  0  0  0  0  0  0  0
    6.6340    9.8260   26.0310 C   0  0  0  0  0  0  0  0  0  0  0  0
    7.5460    9.6100   25.0700 N   0  0  0  0  0  0  0  0  0  0  0  0
 16 15  1  0
 15 14  1  0
 14 20  2  0
 20 19  1  0
 19 18  2  0
 18 17  1  0
 17 13  2  0
 14 13  1  0
 13 12  1  0
 12 10  1  0
 11 10  2  0
 10  9  1  0
  9  7  1  0
  7  6  1  0
  6  5  1  0
  5  4  1  0
  4  2  1  6
  3  2  1  0
  2  1  2  0
  8  4  1  0
  9  8  1  0
M  END
>  <id>  (275) 
275

>  <inchikey>  (275) 
RJRRIOPTPBEHKH-VIFPVBQESA-N

>  <alias>  (275) 
A4031b

>  <smiles>  (275) 
COc1ncccc1NC(=O)N1CCC[C@H](C(N)=O)C1

>  <path>  (275) 
/opt/xchem-fragalysis-2/maxwin/BulkDock/TARGETS/A71EV2A/aligned_files/A4031b/A4031b_hippo.pdb

>  <distance_score>  (275) 
None

>  <energy_score>  (275) 
None

>  <compound>  (275) 
RJRRIOPTPBEHKH-UHFFFAOYSA-N

>  <compound_id>  (275) 
214

>  <target>  (275) 
A71EV2A

>  <tags>  (275) 
['GOOD count', 'MEDIOCRE count', '[Other] S1 site', 'hits', '[Other] S2 site', '[Other] P3 compound design', '[Series] Piperidine series', 'Main status', '[Other] upload_061224', 'BAD count']

>  <inspirations>  (275) 
None

>  <subsites>  (275) 
None

>  <reference>  (275) 


>  <observation_longname>  (275) 
A71EV2A-x4031_C_201_v1

>  <ConformerSites alias>  (275) 
1b - A0911/A/147

>  <CanonSites alias>  (275) 
1 - Active Site

>  <CrystalformSites alias>  (275) 
F6n - A3858/C/201

>  <Quatassemblies alias>  (275) 
A1 - monomer

>  <Crystalforms alias>  (275) 
F6 - short_long_x4018

>  <ConformerSites upload name>  (275) 
1b - A71EV2A-x0911/A/147

>  <CanonSites upload name>  (275) 
1 - A71EV2A-x0911/A/147/1

>  <CrystalformSites upload name>  (275) 
F6n - A71EV2A-x3858/C/201/1

>  <Quatassemblies upload name>  (275) 
A1 - monomer

>  <Crystalforms upload name>  (275) 
F6 - short_long_x4018

>  <ConformerSites short tag>  (275) 
1b - A0911/A/147

>  <CanonSites short tag>  (275) 
1 - A0911/A/147/1

>  <CrystalformSites short tag>  (275) 
F6n - A3858/C/201

>  <Quatassemblies short tag>  (275) 
A1 - monomer

>  <Crystalforms short tag>  (275) 
F6 - short_long_x4018

>  <Centroid res>  (275) 
A71EV2A-x0911/A/133/A_v1

>  <Experiment code>  (275) 
A71EV2A-x4031

>  <Pose>  (275) 
A4031a

$$$$
A4032a
     RDKit          3D

 20 21  0  0  0  0  0  0  0  0999 V2000
   10.4520   16.6880   19.0190 O   0  0  0  0  0  0  0  0  0  0  0  0
   11.0280   15.6120   19.2110 C   0  0  0  0  0  0  0  0  0  0  0  0
   11.0240   14.6250   18.3330 N   0  0  0  0  0  0  0  0  0  0  0  0
   11.7930   15.3630   20.4880 C   0  0  0  0  0  0  0  0  0  0  0  0
   11.0050   15.6640   21.7530 C   0  0  2  0  0  0  0  0  0  0  0  0
   11.8530   15.0800   22.8940 C   0  0  0  0  0  0  0  0  0  0  0  0
   10.8610   14.6170   23.9390 C   0  0  0  0  0  0  0  0  0  0  0  0
    9.6770   14.8890   21.8250 C   0  0  0  0  0  0  0  0  0  0  0  0
    9.6700   14.2780   23.1520 N   0  0  0  0  0  0  0  0  0  0  0  0
    8.6290   13.5350   23.5600 C   0  0  0  0  0  0  0  0  0  0  0  0
    7.6070   13.4220   22.8970 O   0  0  0  0  0  0  0  0  0  0  0  0
    8.7910   12.9060   24.9300 C   0  0  0  0  0  0  0  0  0  0  0  0
    7.7210   11.8770   25.2030 C   0  0  0  0  0  0  0  0  0  0  0  0
    7.8610   10.5750   24.7190 C   0  0  0  0  0  0  0  0  0  0  0  0
    8.8820   10.3990   23.8160 O   0  0  0  0  0  0  0  0  0  0  0  0
    9.2520    9.0680   23.4610 C   0  0  0  0  0  0  0  0  0  0  0  0
    6.6380   12.1690   26.0290 C   0  0  0  0  0  0  0  0  0  0  0  0
    5.7390   11.1840   26.3940 C   0  0  0  0  0  0  0  0  0  0  0  0
    5.9070    9.9020   25.9400 C   0  0  0  0  0  0  0  0  0  0  0  0
    6.9630    9.5890   25.0920 C   0  0  0  0  0  0  0  0  0  0  0  0
 16 15  1  0
 15 14  1  0
 14 20  2  0
 20 19  1  0
 19 18  2  0
 18 17  1  0
 17 13  2  0
 14 13  1  0
 13 12  1  0
 12 10  1  0
 11 10  2  0
 10  9  1  0
  9  7  1  0
  7  6  1  0
  6  5  1  0
  5  4  1  6
  4  2  1  0
  3  2  1  0
  2  1  2  0
  8  5  1  0
  9  8  1  0
M  END
>  <id>  (276) 
276

>  <inchikey>  (276) 
MSPWRYALONZABD-NSHDSACASA-N

>  <alias>  (276) 
A4032a

>  <smiles>  (276) 
COc1ccccc1CC(=O)N1CC[C@@H](CC(N)=O)C1

>  <path>  (276) 
/opt/xchem-fragalysis-2/maxwin/BulkDock/TARGETS/A71EV2A/aligned_files/A4032a/A4032a_hippo.pdb

>  <distance_score>  (276) 
None

>  <energy_score>  (276) 
None

>  <compound>  (276) 
MSPWRYALONZABD-UHFFFAOYSA-N

>  <compound_id>  (276) 
170

>  <target>  (276) 
A71EV2A

>  <tags>  (276) 
['GOOD count', 'MEDIOCRE count', '[Other] S1 site', 'hits', '[Other] S2 site', '[Other] P3 compound design', '[Other] upload_2 2024-12-12', 'Main status', 'BAD count']

>  <inspirations>  (276) 
None

>  <subsites>  (276) 
None

>  <reference>  (276) 


>  <observation_longname>  (276) 
A71EV2A-x4032_A_201_v1

>  <ConformerSites alias>  (276) 
1b - A0911/A/147

>  <CanonSites alias>  (276) 
1 - Active Site

>  <CrystalformSites alias>  (276) 
F7j - A3509/A/201

>  <Quatassemblies alias>  (276) 
A1 - monomer

>  <Crystalforms alias>  (276) 
F7 - A712A_x4207_8.1_refmac1_1st_ref

>  <ConformerSites upload name>  (276) 
1b - A71EV2A-x0911/A/147

>  <CanonSites upload name>  (276) 
1 - A71EV2A-x0911/A/147/1

>  <CrystalformSites upload name>  (276) 
F7j - A71EV2A-x3509/A/201/1

>  <Quatassemblies upload name>  (276) 
A1 - monomer

>  <Crystalforms upload name>  (276) 
F7 - A712A_x4207_8.1_refmac1_1st_ref

>  <ConformerSites short tag>  (276) 
1b - A0911/A/147

>  <CanonSites short tag>  (276) 
1 - A0911/A/147/1

>  <CrystalformSites short tag>  (276) 
F7j - A3509/A/201

>  <Quatassemblies short tag>  (276) 
A1 - monomer

>  <Crystalforms short tag>  (276) 
F7 - A712A_x4207_8.1_refmac1_1st_ref

>  <Centroid res>  (276) 
A71EV2A-x0911/A/133/A_v1

>  <Experiment code>  (276) 
A71EV2A-x4032

>  <Pose>  (276) 
A4032a

$$$$
A4032b
     RDKit          3D

 20 21  0  0  0  0  0  0  0  0999 V2000
   10.5800   16.7290   19.0480 O   0  0  0  0  0  0  0  0  0  0  0  0
   11.1700   15.6400   19.1980 C   0  0  0  0  0  0  0  0  0  0  0  0
   11.0710   14.6340   18.3360 N   0  0  0  0  0  0  0  0  0  0  0  0
   11.9660   15.3600   20.4500 C   0  0  0  0  0  0  0  0  0  0  0  0
   11.2760   15.8630   21.7050 C   0  0  2  0  0  0  0  0  0  0  0  0
   12.0770   15.5990   22.9870 C   0  0  0  0  0  0  0  0  0  0  0  0
   11.5230   14.3020   23.5590 C   0  0  0  0  0  0  0  0  0  0  0  0
    9.9110   15.1810   21.9470 C   0  0  0  0  0  0  0  0  0  0  0  0
   10.1310   14.2730   23.0750 N   0  0  0  0  0  0  0  0  0  0  0  0
    9.1400   13.4810   23.5250 C   0  0  0  0  0  0  0  0  0  0  0  0
    8.0380   13.4280   22.9780 O   0  0  0  0  0  0  0  0  0  0  0  0
    9.4650   12.6860   24.7770 C   0  0  0  0  0  0  0  0  0  0  0  0
    8.3460   11.7490   25.1730 C   0  0  0  0  0  0  0  0  0  0  0  0
    8.3180   10.4500   24.6710 C   0  0  0  0  0  0  0  0  0  0  0  0
    9.3020   10.1730   23.7670 O   0  0  0  0  0  0  0  0  0  0  0  0
    9.4550    8.8230   23.3110 C   0  0  0  0  0  0  0  0  0  0  0  0
    7.3830   12.1160   26.1110 C   0  0  0  0  0  0  0  0  0  0  0  0
    6.4360   11.2060   26.5520 C   0  0  0  0  0  0  0  0  0  0  0  0
    6.4190    9.9280   26.0470 C   0  0  0  0  0  0  0  0  0  0  0  0
    7.3510    9.5410   25.0910 C   0  0  0  0  0  0  0  0  0  0  0  0
 16 15  1  0
 15 14  1  0
 14 20  2  0
 20 19  1  0
 19 18  2  0
 18 17  1  0
 17 13  2  0
 14 13  1  0
 13 12  1  0
 12 10  1  0
 11 10  2  0
 10  9  1  0
  9  7  1  0
  7  6  1  0
  6  5  1  0
  5  4  1  6
  4  2  1  0
  3  2  1  0
  2  1  2  0
  8  5  1  0
  9  8  1  0
M  END
>  <id>  (277) 
277

>  <inchikey>  (277) 
MSPWRYALONZABD-NSHDSACASA-N

>  <alias>  (277) 
A4032b

>  <smiles>  (277) 
COc1ccccc1CC(=O)N1CC[C@@H](CC(N)=O)C1

>  <path>  (277) 
/opt/xchem-fragalysis-2/maxwin/BulkDock/TARGETS/A71EV2A/aligned_files/A4032b/A4032b.pdb

>  <distance_score>  (277) 
None

>  <energy_score>  (277) 
None

>  <compound>  (277) 
MSPWRYALONZABD-UHFFFAOYSA-N

>  <compound_id>  (277) 
170

>  <target>  (277) 
A71EV2A

>  <tags>  (277) 
['GOOD count', 'MEDIOCRE count', '[Other] S1 site', 'hits', '[Other] S2 site', '[Other] P3 compound design', '[Other] upload_2 2024-12-12', 'Main status', 'BAD count']

>  <inspirations>  (277) 
None

>  <subsites>  (277) 
None

>  <reference>  (277) 


>  <observation_longname>  (277) 
A71EV2A-x4032_C_201_v1

>  <ConformerSites alias>  (277) 
1b - A0911/A/147

>  <CanonSites alias>  (277) 
1 - Active Site

>  <CrystalformSites alias>  (277) 
F7k - A3509/C/201

>  <Quatassemblies alias>  (277) 
A1 - monomer

>  <Crystalforms alias>  (277) 
F7 - A712A_x4207_8.1_refmac1_1st_ref

>  <ConformerSites upload name>  (277) 
1b - A71EV2A-x0911/A/147

>  <CanonSites upload name>  (277) 
1 - A71EV2A-x0911/A/147/1

>  <CrystalformSites upload name>  (277) 
F7k - A71EV2A-x3509/C/201/1

>  <Quatassemblies upload name>  (277) 
A1 - monomer

>  <Crystalforms upload name>  (277) 
F7 - A712A_x4207_8.1_refmac1_1st_ref

>  <ConformerSites short tag>  (277) 
1b - A0911/A/147

>  <CanonSites short tag>  (277) 
1 - A0911/A/147/1

>  <CrystalformSites short tag>  (277) 
F7k - A3509/C/201

>  <Quatassemblies short tag>  (277) 
A1 - monomer

>  <Crystalforms short tag>  (277) 
F7 - A712A_x4207_8.1_refmac1_1st_ref

>  <Centroid res>  (277) 
A71EV2A-x0911/A/133/A_v1

>  <Experiment code>  (277) 
A71EV2A-x4032

>  <Pose>  (277) 
A4032a

$$$$
A4035a
     RDKit          3D

 21 22  0  0  0  0  0  0  0  0999 V2000
   10.3010   16.6950   19.2760 O   0  0  0  0  0  0  0  0  0  0  0  0
   10.6490   15.5300   19.4880 C   0  0  0  0  0  0  0  0  0  0  0  0
   11.0340   14.7070   18.5280 N   0  0  0  0  0  0  0  0  0  0  0  0
   10.6490   14.9540   20.8970 C   0  0  1  0  0  0  0  0  0  0  0  0
   11.7760   15.5520   21.7520 C   0  0  0  0  0  0  0  0  0  0  0  0
   11.7360   15.0110   23.1860 C   0  0  0  0  0  0  0  0  0  0  0  0
   10.3570   15.2250   23.8070 C   0  0  0  0  0  0  0  0  0  0  0  0
    9.3000   15.2510   21.5650 C   0  0  0  0  0  0  0  0  0  0  0  0
    9.2850   14.7200   22.9310 N   0  0  0  0  0  0  0  0  0  0  0  0
    8.3960   13.7280   23.2540 C   0  0  0  0  0  0  0  0  0  0  0  0
    7.5800   13.3040   22.4520 O   0  0  0  0  0  0  0  0  0  0  0  0
    8.4670   13.2530   24.5200 N   0  0  0  0  0  0  0  0  0  0  0  0
    7.5880   12.2210   24.9560 C   0  0  0  0  0  0  0  0  0  0  0  0
    7.8360   10.8820   24.6040 C   0  0  0  0  0  0  0  0  0  0  0  0
    8.8920   10.6880   23.7480 O   0  0  0  0  0  0  0  0  0  0  0  0
    9.2830    9.3450   23.4440 C   0  0  0  0  0  0  0  0  0  0  0  0
    6.5180   12.4950   25.8070 C   0  0  0  0  0  0  0  0  0  0  0  0
    6.1140   14.1380   26.2020 Cl  0  0  0  0  0  0  0  0  0  0  0  0
    5.7350   11.4920   26.3370 C   0  0  0  0  0  0  0  0  0  0  0  0
    6.0070   10.1780   26.0030 C   0  0  0  0  0  0  0  0  0  0  0  0
    7.0420    9.8680   25.1300 C   0  0  0  0  0  0  0  0  0  0  0  0
 16 15  1  0
 15 14  1  0
 14 21  2  0
 21 20  1  0
 20 19  2  0
 19 17  1  0
 18 17  1  0
 17 13  2  0
 14 13  1  0
 13 12  1  0
 12 10  1  0
 11 10  2  0
 10  9  1  0
  9  7  1  0
  7  6  1  0
  6  5  1  0
  5  4  1  0
  4  2  1  6
  3  2  1  0
  2  1  2  0
  8  4  1  0
  9  8  1  0
M  END
>  <id>  (278) 
278

>  <inchikey>  (278) 
BAWQVTYFUSCRSF-VIFPVBQESA-N

>  <alias>  (278) 
A4035a

>  <smiles>  (278) 
COc1cccc(Cl)c1NC(=O)N1CCC[C@H](C(N)=O)C1

>  <path>  (278) 
/opt/xchem-fragalysis-2/maxwin/BulkDock/TARGETS/A71EV2A/aligned_files/A4035a/A4035a_hippo.pdb

>  <distance_score>  (278) 
None

>  <energy_score>  (278) 
None

>  <compound>  (278) 
BAWQVTYFUSCRSF-UHFFFAOYSA-N

>  <compound_id>  (278) 
141

>  <target>  (278) 
A71EV2A

>  <tags>  (278) 
['GOOD count', 'MEDIOCRE count', '[Other] S1 site', 'hits', '[Other] S2 site', '[Other] P3 compound design', '[Other] upload_2 2024-12-12', 'Main status', '[Series] Piperidine series', 'BAD count']

>  <inspirations>  (278) 
None

>  <subsites>  (278) 
None

>  <reference>  (278) 


>  <observation_longname>  (278) 
A71EV2A-x4035_A_201_v1

>  <ConformerSites alias>  (278) 
1b - A0911/A/147

>  <CanonSites alias>  (278) 
1 - Active Site

>  <CrystalformSites alias>  (278) 
F7j - A3509/A/201

>  <Quatassemblies alias>  (278) 
A1 - monomer

>  <Crystalforms alias>  (278) 
F7 - A712A_x4207_8.1_refmac1_1st_ref

>  <ConformerSites upload name>  (278) 
1b - A71EV2A-x0911/A/147

>  <CanonSites upload name>  (278) 
1 - A71EV2A-x0911/A/147/1

>  <CrystalformSites upload name>  (278) 
F7j - A71EV2A-x3509/A/201/1

>  <Quatassemblies upload name>  (278) 
A1 - monomer

>  <Crystalforms upload name>  (278) 
F7 - A712A_x4207_8.1_refmac1_1st_ref

>  <ConformerSites short tag>  (278) 
1b - A0911/A/147

>  <CanonSites short tag>  (278) 
1 - A0911/A/147/1

>  <CrystalformSites short tag>  (278) 
F7j - A3509/A/201

>  <Quatassemblies short tag>  (278) 
A1 - monomer

>  <Crystalforms short tag>  (278) 
F7 - A712A_x4207_8.1_refmac1_1st_ref

>  <Centroid res>  (278) 
A71EV2A-x0911/A/133/A_v1

>  <Experiment code>  (278) 
A71EV2A-x4035

>  <Pose>  (278) 
A4035a

$$$$
A4035b
     RDKit          3D

 21 22  0  0  0  0  0  0  0  0999 V2000
   10.3080   16.6900   19.2460 O   0  0  0  0  0  0  0  0  0  0  0  0
   10.7240   15.5390   19.4340 C   0  0  0  0  0  0  0  0  0  0  0  0
   11.0680   14.7220   18.4480 N   0  0  0  0  0  0  0  0  0  0  0  0
   10.8150   14.9600   20.8350 C   0  0  1  0  0  0  0  0  0  0  0  0
   11.9540   15.6160   21.6330 C   0  0  0  0  0  0  0  0  0  0  0  0
   12.0040   15.1150   23.0800 C   0  0  0  0  0  0  0  0  0  0  0  0
   10.6460   15.2740   23.7610 C   0  0  0  0  0  0  0  0  0  0  0  0
    9.4990   15.2260   21.5730 C   0  0  0  0  0  0  0  0  0  0  0  0
    9.5840   14.6870   22.9340 N   0  0  0  0  0  0  0  0  0  0  0  0
    8.7400   13.6800   23.3150 C   0  0  0  0  0  0  0  0  0  0  0  0
    7.8680   13.2540   22.5640 O   0  0  0  0  0  0  0  0  0  0  0  0
    8.9280   13.1850   24.5720 N   0  0  0  0  0  0  0  0  0  0  0  0
    8.0520   12.1700   25.0640 C   0  0  0  0  0  0  0  0  0  0  0  0
    8.2630   10.8340   24.7100 C   0  0  0  0  0  0  0  0  0  0  0  0
    9.2710   10.6300   23.8080 O   0  0  0  0  0  0  0  0  0  0  0  0
    9.6160    9.2870   23.4900 C   0  0  0  0  0  0  0  0  0  0  0  0
    7.0370   12.4790   25.9610 C   0  0  0  0  0  0  0  0  0  0  0  0
    6.7470   14.1490   26.3700 Cl  0  0  0  0  0  0  0  0  0  0  0  0
    6.2560   11.4900   26.5350 C   0  0  0  0  0  0  0  0  0  0  0  0
    6.4810   10.1660   26.1940 C   0  0  0  0  0  0  0  0  0  0  0  0
    7.4700    9.8320   25.2740 C   0  0  0  0  0  0  0  0  0  0  0  0
 16 15  1  0
 15 14  1  0
 14 21  2  0
 21 20  1  0
 20 19  2  0
 19 17  1  0
 18 17  1  0
 17 13  2  0
 14 13  1  0
 13 12  1  0
 12 10  1  0
 11 10  2  0
 10  9  1  0
  9  7  1  0
  7  6  1  0
  6  5  1  0
  5  4  1  0
  4  2  1  6
  3  2  1  0
  2  1  2  0
  8  4  1  0
  9  8  1  0
M  END
>  <id>  (279) 
279

>  <inchikey>  (279) 
BAWQVTYFUSCRSF-VIFPVBQESA-N

>  <alias>  (279) 
A4035b

>  <smiles>  (279) 
COc1cccc(Cl)c1NC(=O)N1CCC[C@H](C(N)=O)C1

>  <path>  (279) 
/opt/xchem-fragalysis-2/maxwin/BulkDock/TARGETS/A71EV2A/aligned_files/A4035b/A4035b_hippo.pdb

>  <distance_score>  (279) 
None

>  <energy_score>  (279) 
None

>  <compound>  (279) 
BAWQVTYFUSCRSF-UHFFFAOYSA-N

>  <compound_id>  (279) 
141

>  <target>  (279) 
A71EV2A

>  <tags>  (279) 
['GOOD count', 'MEDIOCRE count', '[Other] S1 site', 'hits', '[Other] S2 site', '[Other] P3 compound design', '[Other] upload_2 2024-12-12', 'Main status', '[Series] Piperidine series', 'BAD count']

>  <inspirations>  (279) 
None

>  <subsites>  (279) 
None

>  <reference>  (279) 


>  <observation_longname>  (279) 
A71EV2A-x4035_C_201_v1

>  <ConformerSites alias>  (279) 
1b - A0911/A/147

>  <CanonSites alias>  (279) 
1 - Active Site

>  <CrystalformSites alias>  (279) 
F7k - A3509/C/201

>  <Quatassemblies alias>  (279) 
A1 - monomer

>  <Crystalforms alias>  (279) 
F7 - A712A_x4207_8.1_refmac1_1st_ref

>  <ConformerSites upload name>  (279) 
1b - A71EV2A-x0911/A/147

>  <CanonSites upload name>  (279) 
1 - A71EV2A-x0911/A/147/1

>  <CrystalformSites upload name>  (279) 
F7k - A71EV2A-x3509/C/201/1

>  <Quatassemblies upload name>  (279) 
A1 - monomer

>  <Crystalforms upload name>  (279) 
F7 - A712A_x4207_8.1_refmac1_1st_ref

>  <ConformerSites short tag>  (279) 
1b - A0911/A/147

>  <CanonSites short tag>  (279) 
1 - A0911/A/147/1

>  <CrystalformSites short tag>  (279) 
F7k - A3509/C/201

>  <Quatassemblies short tag>  (279) 
A1 - monomer

>  <Crystalforms short tag>  (279) 
F7 - A712A_x4207_8.1_refmac1_1st_ref

>  <Centroid res>  (279) 
A71EV2A-x0911/A/133/A_v1

>  <Experiment code>  (279) 
A71EV2A-x4035

>  <Pose>  (279) 
A4035a

$$$$
A4202a
     RDKit          3D

 21 23  0  0  0  0  0  0  0  0999 V2000
    9.5000   10.4100   23.6190 Br  0  0  0  0  0  0  0  0  0  0  0  0
    7.9540   10.8220   24.6450 C   0  0  0  0  0  0  0  0  0  0  0  0
    7.1490    9.7820   25.0800 C   0  0  0  0  0  0  0  0  0  0  0  0
    6.0330   10.0720   25.8570 C   0  0  0  0  0  0  0  0  0  0  0  0
    5.7320   11.3780   26.1850 C   0  0  0  0  0  0  0  0  0  0  0  0
    7.6690   12.1370   24.9720 C   0  0  0  0  0  0  0  0  0  0  0  0
    6.5400   12.4110   25.7310 C   0  0  0  0  0  0  0  0  0  0  0  0
    6.3740   13.8920   25.9350 C   0  0  0  0  0  0  0  0  0  0  0  0
    7.7700   14.4350   25.6200 C   0  0  0  0  0  0  0  0  0  0  0  0
    8.4660   13.3830   24.6910 C   0  0  2  0  0  0  0  0  0  0  0  0
    8.4390   13.7820   23.2160 C   0  0  0  0  0  0  0  0  0  0  0  0
    7.6050   13.3290   22.4510 O   0  0  0  0  0  0  0  0  0  0  0  0
    9.3260   14.7100   22.8030 N   0  0  0  0  0  0  0  0  0  0  0  0
   10.3450   15.3370   23.6700 C   0  0  0  0  0  0  0  0  0  0  0  0
   11.7410   15.2020   23.1070 C   0  0  0  0  0  0  0  0  0  0  0  0
   11.7900   15.7370   21.6750 C   0  0  0  0  0  0  0  0  0  0  0  0
    9.3240   15.1960   21.4210 C   0  0  0  0  0  0  0  0  0  0  0  0
   10.7250   15.0270   20.8210 C   0  0  1  0  0  0  0  0  0  0  0  0
   10.7220   15.5460   19.3950 C   0  0  0  0  0  0  0  0  0  0  0  0
   10.3960   16.7070   19.1390 O   0  0  0  0  0  0  0  0  0  0  0  0
   11.0310   14.6660   18.4530 N   0  0  0  0  0  0  0  0  0  0  0  0
 21 19  1  0
 20 19  2  0
 18 19  1  6
 18 16  1  0
 16 15  1  0
 15 14  1  0
 14 13  1  0
 13 11  1  0
 12 11  2  0
 10 11  1  6
 10  9  1  0
  9  8  1  0
  8  7  1  0
  7  5  1  0
  5  4  2  0
  4  3  1  0
  3  2  2  0
  2  1  1  0
  6  2  1  0
  7  6  2  0
 10  6  1  0
 17 13  1  0
 18 17  1  0
M  END
>  <id>  (280) 
280

>  <inchikey>  (280) 
AXUVEMNCADPROP-RYUDHWBXSA-N

>  <alias>  (280) 
A4202a

>  <smiles>  (280) 
NC(=O)[C@H]1CCCN(C(=O)[C@H]2CCc3cccc(Br)c32)C1

>  <path>  (280) 
/opt/xchem-fragalysis-2/maxwin/BulkDock/TARGETS/A71EV2A/aligned_files/A4202a/A4202a_hippo.pdb

>  <distance_score>  (280) 
None

>  <energy_score>  (280) 
None

>  <compound>  (280) 
AXUVEMNCADPROP-UHFFFAOYSA-N

>  <compound_id>  (280) 
215

>  <target>  (280) 
A71EV2A

>  <tags>  (280) 
['GOOD count', 'MEDIOCRE count', '[Other] S1 site', 'hits', '[Other] S2 site', '[Other] P3 compound design', '[Other] upload_2 2024-12-12', 'Main status', '[Series] Piperidine series', 'BAD count']

>  <inspirations>  (280) 
None

>  <subsites>  (280) 
None

>  <reference>  (280) 


>  <observation_longname>  (280) 
A71EV2A-x4202_A_201_v1

>  <ConformerSites alias>  (280) 
1b - A0911/A/147

>  <CanonSites alias>  (280) 
1 - Active Site

>  <CrystalformSites alias>  (280) 
F7j - A3509/A/201

>  <Quatassemblies alias>  (280) 
A1 - monomer

>  <Crystalforms alias>  (280) 
F7 - A712A_x4207_8.1_refmac1_1st_ref

>  <ConformerSites upload name>  (280) 
1b - A71EV2A-x0911/A/147

>  <CanonSites upload name>  (280) 
1 - A71EV2A-x0911/A/147/1

>  <CrystalformSites upload name>  (280) 
F7j - A71EV2A-x3509/A/201/1

>  <Quatassemblies upload name>  (280) 
A1 - monomer

>  <Crystalforms upload name>  (280) 
F7 - A712A_x4207_8.1_refmac1_1st_ref

>  <ConformerSites short tag>  (280) 
1b - A0911/A/147

>  <CanonSites short tag>  (280) 
1 - A0911/A/147/1

>  <CrystalformSites short tag>  (280) 
F7j - A3509/A/201

>  <Quatassemblies short tag>  (280) 
A1 - monomer

>  <Crystalforms short tag>  (280) 
F7 - A712A_x4207_8.1_refmac1_1st_ref

>  <Centroid res>  (280) 
A71EV2A-x0911/A/133/A_v1

>  <Experiment code>  (280) 
A71EV2A-x4202

>  <Pose>  (280) 
A4202a

$$$$
A4202b
     RDKit          3D

 21 23  0  0  0  0  0  0  0  0999 V2000
    9.7760   10.3580   23.6870 Br  0  0  0  0  0  0  0  0  0  0  0  0
    8.2790   10.8380   24.7600 C   0  0  0  0  0  0  0  0  0  0  0  0
    7.4490    9.8220   25.2150 C   0  0  0  0  0  0  0  0  0  0  0  0
    6.4100   10.1330   26.0780 C   0  0  0  0  0  0  0  0  0  0  0  0
    6.1970   11.4450   26.4620 C   0  0  0  0  0  0  0  0  0  0  0  0
    8.0770   12.1590   25.1330 C   0  0  0  0  0  0  0  0  0  0  0  0
    7.0250   12.4620   25.9900 C   0  0  0  0  0  0  0  0  0  0  0  0
    6.9560   13.9470   26.2680 C   0  0  0  0  0  0  0  0  0  0  0  0
    8.3080   14.4610   25.7960 C   0  0  0  0  0  0  0  0  0  0  0  0
    8.9200   13.3760   24.8220 C   0  0  2  0  0  0  0  0  0  0  0  0
    8.7900   13.7700   23.3520 C   0  0  0  0  0  0  0  0  0  0  0  0
    7.9170   13.2790   22.6410 O   0  0  0  0  0  0  0  0  0  0  0  0
    9.6320   14.7200   22.8790 N   0  0  0  0  0  0  0  0  0  0  0  0
   10.6540   15.4120   23.6890 C   0  0  0  0  0  0  0  0  0  0  0  0
   12.0250   15.3120   23.0690 C   0  0  0  0  0  0  0  0  0  0  0  0
   11.9820   15.8220   21.6250 C   0  0  0  0  0  0  0  0  0  0  0  0
    9.5470   15.1860   21.4930 C   0  0  0  0  0  0  0  0  0  0  0  0
   10.9190   15.0520   20.8260 C   0  0  1  0  0  0  0  0  0  0  0  0
   10.8240   15.5540   19.3980 C   0  0  0  0  0  0  0  0  0  0  0  0
   10.4890   16.7200   19.1500 O   0  0  0  0  0  0  0  0  0  0  0  0
   11.0720   14.6540   18.4460 N   0  0  0  0  0  0  0  0  0  0  0  0
 21 19  1  0
 20 19  2  0
 18 19  1  6
 18 16  1  0
 16 15  1  0
 15 14  1  0
 14 13  1  0
 13 11  1  0
 12 11  2  0
 10 11  1  6
 10  9  1  0
  9  8  1  0
  8  7  1  0
  7  5  1  0
  5  4  2  0
  4  3  1  0
  3  2  2  0
  2  1  1  0
  6  2  1  0
  7  6  2  0
 10  6  1  0
 17 13  1  0
 18 17  1  0
M  END
>  <id>  (281) 
281

>  <inchikey>  (281) 
AXUVEMNCADPROP-RYUDHWBXSA-N

>  <alias>  (281) 
A4202b

>  <smiles>  (281) 
NC(=O)[C@H]1CCCN(C(=O)[C@H]2CCc3cccc(Br)c32)C1

>  <path>  (281) 
/opt/xchem-fragalysis-2/maxwin/BulkDock/TARGETS/A71EV2A/aligned_files/A4202b/A4202b_hippo.pdb

>  <distance_score>  (281) 
None

>  <energy_score>  (281) 
None

>  <compound>  (281) 
AXUVEMNCADPROP-UHFFFAOYSA-N

>  <compound_id>  (281) 
215

>  <target>  (281) 
A71EV2A

>  <tags>  (281) 
['GOOD count', 'MEDIOCRE count', '[Other] S1 site', 'hits', '[Other] S2 site', '[Other] P3 compound design', '[Other] upload_2 2024-12-12', 'Main status', '[Series] Piperidine series', 'BAD count']

>  <inspirations>  (281) 
None

>  <subsites>  (281) 
None

>  <reference>  (281) 


>  <observation_longname>  (281) 
A71EV2A-x4202_C_201_v1

>  <ConformerSites alias>  (281) 
1b - A0911/A/147

>  <CanonSites alias>  (281) 
1 - Active Site

>  <CrystalformSites alias>  (281) 
F7k - A3509/C/201

>  <Quatassemblies alias>  (281) 
A1 - monomer

>  <Crystalforms alias>  (281) 
F7 - A712A_x4207_8.1_refmac1_1st_ref

>  <ConformerSites upload name>  (281) 
1b - A71EV2A-x0911/A/147

>  <CanonSites upload name>  (281) 
1 - A71EV2A-x0911/A/147/1

>  <CrystalformSites upload name>  (281) 
F7k - A71EV2A-x3509/C/201/1

>  <Quatassemblies upload name>  (281) 
A1 - monomer

>  <Crystalforms upload name>  (281) 
F7 - A712A_x4207_8.1_refmac1_1st_ref

>  <ConformerSites short tag>  (281) 
1b - A0911/A/147

>  <CanonSites short tag>  (281) 
1 - A0911/A/147/1

>  <CrystalformSites short tag>  (281) 
F7k - A3509/C/201

>  <Quatassemblies short tag>  (281) 
A1 - monomer

>  <Crystalforms short tag>  (281) 
F7 - A712A_x4207_8.1_refmac1_1st_ref

>  <Centroid res>  (281) 
A71EV2A-x0911/A/133/A_v1

>  <Experiment code>  (281) 
A71EV2A-x4202

>  <Pose>  (281) 
A4202a

$$$$
A4290a
     RDKit          3D

 21 22  0  0  0  0  0  0  0  0999 V2000
   10.3440   16.8840   19.1770 O   0  0  0  0  0  0  0  0  0  0  0  0
   10.6780   15.7210   19.4230 C   0  0  0  0  0  0  0  0  0  0  0  0
   10.9390   14.8250   18.4860 N   0  0  0  0  0  0  0  0  0  0  0  0
   10.8120   15.2320   20.8530 C   0  0  1  0  0  0  0  0  0  0  0  0
   12.0520   15.8270   21.5430 C   0  0  0  0  0  0  0  0  0  0  0  0
   12.1810   15.3510   22.9930 C   0  0  0  0  0  0  0  0  0  0  0  0
   10.8890   15.5800   23.7580 C   0  0  0  0  0  0  0  0  0  0  0  0
    9.5900   15.6090   21.6850 C   0  0  0  0  0  0  0  0  0  0  0  0
    9.7630   15.0090   23.0060 N   0  0  0  0  0  0  0  0  0  0  0  0
    9.0660   13.9080   23.3440 C   0  0  0  0  0  0  0  0  0  0  0  0
    8.0940   13.5280   22.7090 O   0  0  0  0  0  0  0  0  0  0  0  0
    9.5890   13.1230   24.5280 C   0  0  0  0  0  0  0  0  0  0  0  0
    8.6750   11.9560   24.8040 C   0  0  0  0  0  0  0  0  0  0  0  0
    7.5020   12.1000   25.5590 C   0  0  0  0  0  0  0  0  0  0  0  0
    7.0010   13.7600   26.1620 S   0  0  0  0  0  0  0  0  0  0  0  0
    5.6720   14.2100   25.0440 C   0  0  0  0  0  0  0  0  0  0  0  0
    8.9810   10.7030   24.2730 C   0  0  0  0  0  0  0  0  0  0  0  0
    8.1720    9.6120   24.5180 C   0  0  0  0  0  0  0  0  0  0  0  0
    7.0430    9.7480   25.3010 C   0  0  0  0  0  0  0  0  0  0  0  0
    6.7100   10.9920   25.8040 C   0  0  0  0  0  0  0  0  0  0  0  0
    5.1000   11.1080   26.7900 Br  0  0  0  0  0  0  0  0  0  0  0  0
 16 15  1  0
 15 14  1  0
 14 20  2  0
 21 20  1  0
 20 19  1  0
 19 18  2  0
 18 17  1  0
 17 13  2  0
 14 13  1  0
 13 12  1  0
 12 10  1  0
 11 10  2  0
 10  9  1  0
  9  7  1  0
  7  6  1  0
  6  5  1  0
  5  4  1  0
  4  2  1  6
  3  2  1  0
  2  1  2  0
  8  4  1  0
  9  8  1  0
M  END
>  <id>  (282) 
282

>  <inchikey>  (282) 
IQRUJMCPLXCOCF-NSHDSACASA-N

>  <alias>  (282) 
A4290a

>  <smiles>  (282) 
CSc1c(Br)cccc1CC(=O)N1CCC[C@H](C(N)=O)C1

>  <path>  (282) 
/opt/xchem-fragalysis-2/maxwin/BulkDock/TARGETS/A71EV2A/aligned_files/A4290a/A4290a.pdb

>  <distance_score>  (282) 
None

>  <energy_score>  (282) 
None

>  <compound>  (282) 
IQRUJMCPLXCOCF-UHFFFAOYSA-N

>  <compound_id>  (282) 
216

>  <target>  (282) 
A71EV2A

>  <tags>  (282) 
['GOOD count', 'MEDIOCRE count', '[Other] S1 site', 'hits', '[Other] S2 site', '[Other] P3 compound design', '[Series] Piperidine series', 'Main status', '[Other] upload_061224', 'BAD count', '[Other] S3 site']

>  <inspirations>  (282) 
None

>  <subsites>  (282) 
None

>  <reference>  (282) 


>  <observation_longname>  (282) 
A71EV2A-x4290_A_201_v1

>  <ConformerSites alias>  (282) 
1b - A0911/A/147

>  <CanonSites alias>  (282) 
1 - Active Site

>  <CrystalformSites alias>  (282) 
F8h - A0884/A/147

>  <Quatassemblies alias>  (282) 
A1 - monomer

>  <Crystalforms alias>  (282) 
F8 - A712A_x4271_2.1_refmac1_1st_ref

>  <ConformerSites upload name>  (282) 
1b - A71EV2A-x0911/A/147

>  <CanonSites upload name>  (282) 
1 - A71EV2A-x0911/A/147/1

>  <CrystalformSites upload name>  (282) 
F8h - A71EV2A-x0884/A/147/1

>  <Quatassemblies upload name>  (282) 
A1 - monomer

>  <Crystalforms upload name>  (282) 
F8 - A712A_x4271_2.1_refmac1_1st_ref

>  <ConformerSites short tag>  (282) 
1b - A0911/A/147

>  <CanonSites short tag>  (282) 
1 - A0911/A/147/1

>  <CrystalformSites short tag>  (282) 
F8h - A0884/A/147

>  <Quatassemblies short tag>  (282) 
A1 - monomer

>  <Crystalforms short tag>  (282) 
F8 - A712A_x4271_2.1_refmac1_1st_ref

>  <Centroid res>  (282) 
A71EV2A-x0911/A/133/A_v1

>  <Experiment code>  (282) 
A71EV2A-x4290

>  <Pose>  (282) 
A4290a

$$$$
A4291a
     RDKit          3D

 21 22  0  0  0  0  0  0  0  0999 V2000
    8.8440    9.9320   24.1490 O   0  0  0  0  0  0  0  0  0  0  0  0
    7.9980   10.5880   24.7950 C   0  0  0  0  0  0  0  0  0  0  0  0
    6.9160    9.9540   25.3960 N   0  0  0  0  0  0  0  0  0  0  0  0
    5.9510   10.5960   26.1310 C   0  0  0  0  0  0  0  0  0  0  0  0
    4.8240    9.7700   26.6680 C   0  0  0  0  0  0  0  0  0  0  0  0
    8.0560   12.0160   24.9960 C   0  0  0  0  0  0  0  0  0  0  0  0
    7.0870   12.6740   25.7440 C   0  0  0  0  0  0  0  0  0  0  0  0
    7.1120   14.1330   26.0720 C   0  0  0  0  0  0  0  0  0  0  0  0
    6.0390   11.9360   26.2970 C   0  0  0  0  0  0  0  0  0  0  0  0
    9.2260   12.7610   24.4020 C   0  0  0  0  0  0  0  0  0  0  0  0
    8.8540   13.5370   23.1540 C   0  0  0  0  0  0  0  0  0  0  0  0
    7.8910   13.2170   22.4910 O   0  0  0  0  0  0  0  0  0  0  0  0
    9.6400   14.5790   22.8070 N   0  0  0  0  0  0  0  0  0  0  0  0
    9.5030   15.2210   21.4960 C   0  0  0  0  0  0  0  0  0  0  0  0
   10.7810   14.9830   20.6880 C   0  0  1  0  0  0  0  0  0  0  0  0
   10.7120   15.4940   19.2590 C   0  0  0  0  0  0  0  0  0  0  0  0
   10.3370   16.6480   19.0130 O   0  0  0  0  0  0  0  0  0  0  0  0
   11.0370   14.6150   18.3110 N   0  0  0  0  0  0  0  0  0  0  0  0
   11.9660   15.5770   21.4750 C   0  0  0  0  0  0  0  0  0  0  0  0
   12.0650   14.9420   22.8660 C   0  0  0  0  0  0  0  0  0  0  0  0
   10.7520   15.0870   23.6240 C   0  0  0  0  0  0  0  0  0  0  0  0
  5  4  1  0
  4  9  2  0
  9  7  1  0
  8  7  1  0
  7  6  2  0
 10  6  1  0
 11 10  1  0
 12 11  2  0
 13 11  1  0
 13 21  1  0
 21 20  1  0
 20 19  1  0
 19 15  1  0
 15 16  1  6
 18 16  1  0
 17 16  2  0
 15 14  1  0
 14 13  1  0
  6  2  1  0
  2  1  2  0
  3  2  1  0
  4  3  1  0
M  END
>  <id>  (283) 
283

>  <inchikey>  (283) 
BAOPJNLBCKGSSV-NSHDSACASA-N

>  <alias>  (283) 
A4291a

>  <smiles>  (283) 
Cc1cc(C)c(CC(=O)N2CCC[C@H](C(N)=O)C2)c(=O)[nH]1

>  <path>  (283) 
/opt/xchem-fragalysis-2/maxwin/BulkDock/TARGETS/A71EV2A/aligned_files/A4291a/A4291a.pdb

>  <distance_score>  (283) 
None

>  <energy_score>  (283) 
None

>  <compound>  (283) 
BAOPJNLBCKGSSV-UHFFFAOYSA-N

>  <compound_id>  (283) 
217

>  <target>  (283) 
A71EV2A

>  <tags>  (283) 
['GOOD count', 'MEDIOCRE count', '[Other] S1 site', 'hits', '[Other] S2 site', '[Other] P3 compound design', '[Other] upload_2 2024-12-12', 'Main status', '[Series] Piperidine series', 'BAD count']

>  <inspirations>  (283) 
None

>  <subsites>  (283) 
None

>  <reference>  (283) 


>  <observation_longname>  (283) 
A71EV2A-x4291_A_201_v1

>  <ConformerSites alias>  (283) 
1b - A0911/A/147

>  <CanonSites alias>  (283) 
1 - Active Site

>  <CrystalformSites alias>  (283) 
F5i - A3175/A/201

>  <Quatassemblies alias>  (283) 
A1 - monomer

>  <Crystalforms alias>  (283) 
F5 - A71EV2A_x3178_new_long_dials_041024

>  <ConformerSites upload name>  (283) 
1b - A71EV2A-x0911/A/147

>  <CanonSites upload name>  (283) 
1 - A71EV2A-x0911/A/147/1

>  <CrystalformSites upload name>  (283) 
F5i - A71EV2A-x3175/A/201/1

>  <Quatassemblies upload name>  (283) 
A1 - monomer

>  <Crystalforms upload name>  (283) 
F5 - A71EV2A_x3178_new_long_dials_041024

>  <ConformerSites short tag>  (283) 
1b - A0911/A/147

>  <CanonSites short tag>  (283) 
1 - A0911/A/147/1

>  <CrystalformSites short tag>  (283) 
F5i - A3175/A/201

>  <Quatassemblies short tag>  (283) 
A1 - monomer

>  <Crystalforms short tag>  (283) 
F5 - A71EV2A_x3178_new_long_dials_041024

>  <Centroid res>  (283) 
A71EV2A-x0911/A/133/A_v1

>  <Experiment code>  (283) 
A71EV2A-x4291

>  <Pose>  (283) 
A4291a

$$$$
A4292a
     RDKit          3D

 22 23  0  0  0  0  0  0  0  0999 V2000
    9.7760   10.8880   22.9470 F   0  0  0  0  0  0  0  0  0  0  0  0
    9.4540   10.1280   23.9990 C   0  0  0  0  0  0  0  0  0  0  0  0
   10.5310   10.1030   24.7700 F   0  0  0  0  0  0  0  0  0  0  0  0
    9.3200    8.8700   23.5200 F   0  0  0  0  0  0  0  0  0  0  0  0
    8.2330   10.6300   24.7360 C   0  0  0  0  0  0  0  0  0  0  0  0
    7.2600    9.7130   25.1130 C   0  0  0  0  0  0  0  0  0  0  0  0
    6.1660   10.1650   25.8340 C   0  0  0  0  0  0  0  0  0  0  0  0
    5.9730   11.4420   26.1700 N   0  0  0  0  0  0  0  0  0  0  0  0
    6.9060   12.3110   25.7850 C   0  0  0  0  0  0  0  0  0  0  0  0
    8.0450   11.9780   25.0760 C   0  0  0  0  0  0  0  0  0  0  0  0
    9.0750   13.0260   24.7100 C   0  0  0  0  0  0  0  0  0  0  0  0
    8.7970   13.6520   23.3530 C   0  0  0  0  0  0  0  0  0  0  0  0
    7.8530   13.2900   22.6740 O   0  0  0  0  0  0  0  0  0  0  0  0
    9.6220   14.6430   22.9510 N   0  0  0  0  0  0  0  0  0  0  0  0
   10.6740   15.2680   23.7640 C   0  0  0  0  0  0  0  0  0  0  0  0
   12.0340   15.0880   23.1020 C   0  0  0  0  0  0  0  0  0  0  0  0
   12.0130   15.5640   21.6430 C   0  0  0  0  0  0  0  0  0  0  0  0
    9.5220   15.2060   21.6000 C   0  0  0  0  0  0  0  0  0  0  0  0
   10.8320   14.9660   20.8360 C   0  0  1  0  0  0  0  0  0  0  0  0
   10.7520   15.5440   19.4310 C   0  0  0  0  0  0  0  0  0  0  0  0
   10.4080   16.7200   19.2410 O   0  0  0  0  0  0  0  0  0  0  0  0
   11.0050   14.7060   18.4360 N   0  0  0  0  0  0  0  0  0  0  0  0
 22 20  1  0
 21 20  2  0
 19 20  1  6
 19 17  1  0
 17 16  1  0
 16 15  1  0
 15 14  1  0
 14 12  1  0
 13 12  2  0
 12 11  1  0
 11 10  1  0
 10  9  2  0
  9  8  1  0
  8  7  2  0
  7  6  1  0
  6  5  2  0
 10  5  1  0
  5  2  1  0
  3  2  1  0
  4  2  1  0
  2  1  1  0
 18 14  1  0
 19 18  1  0
M  END
>  <id>  (284) 
284

>  <inchikey>  (284) 
YLPGSMZMXYJENJ-VIFPVBQESA-N

>  <alias>  (284) 
A4292a

>  <smiles>  (284) 
NC(=O)[C@H]1CCCN(C(=O)Cc2cnccc2C(F)(F)F)C1

>  <path>  (284) 
/opt/xchem-fragalysis-2/maxwin/BulkDock/TARGETS/A71EV2A/aligned_files/A4292a/A4292a.pdb

>  <distance_score>  (284) 
None

>  <energy_score>  (284) 
None

>  <compound>  (284) 
YLPGSMZMXYJENJ-UHFFFAOYSA-N

>  <compound_id>  (284) 
218

>  <target>  (284) 
A71EV2A

>  <tags>  (284) 
['GOOD count', 'MEDIOCRE count', '[Other] S1 site', 'hits', '[Other] S2 site', '[Other] P3 compound design', '[Other] upload_2 2024-12-12', 'Main status', '[Series] Piperidine series', 'BAD count']

>  <inspirations>  (284) 
None

>  <subsites>  (284) 
None

>  <reference>  (284) 


>  <observation_longname>  (284) 
A71EV2A-x4292_A_201_v1

>  <ConformerSites alias>  (284) 
1b - A0911/A/147

>  <CanonSites alias>  (284) 
1 - Active Site

>  <CrystalformSites alias>  (284) 
F1a - A0375/A/201

>  <Quatassemblies alias>  (284) 
A1 - monomer

>  <Crystalforms alias>  (284) 
F1 - A71_2A_open

>  <ConformerSites upload name>  (284) 
1b - A71EV2A-x0911/A/147

>  <CanonSites upload name>  (284) 
1 - A71EV2A-x0911/A/147/1

>  <CrystalformSites upload name>  (284) 
F1a - A71EV2A-x0375/A/201/1

>  <Quatassemblies upload name>  (284) 
A1 - monomer

>  <Crystalforms upload name>  (284) 
F1 - A71_2A_open

>  <ConformerSites short tag>  (284) 
1b - A0911/A/147

>  <CanonSites short tag>  (284) 
1 - A0911/A/147/1

>  <CrystalformSites short tag>  (284) 
F1a - A0375/A/201

>  <Quatassemblies short tag>  (284) 
A1 - monomer

>  <Crystalforms short tag>  (284) 
F1 - A71_2A_open

>  <Centroid res>  (284) 
A71EV2A-x0911/A/133/A_v1

>  <Experiment code>  (284) 
A71EV2A-x4292

>  <Pose>  (284) 
A4292a

$$$$
A4295a
     RDKit          3D

 20 21  0  0  0  0  0  0  0  0999 V2000
   11.8090   15.3770   24.2670 O   0  0  0  0  0  0  0  0  0  0  0  0
   11.4190   15.0130   23.1700 C   0  0  0  0  0  0  0  0  0  0  0  0
   11.8260   15.5720   21.8310 C   0  0  0  0  0  0  0  0  0  0  0  0
   11.3250   14.5240   20.8390 C   0  0  2  0  0  0  0  0  0  0  0  0
   10.9210   15.0900   19.4890 C   0  0  0  0  0  0  0  0  0  0  0  0
   10.1510   16.0540   19.4040 O   0  0  0  0  0  0  0  0  0  0  0  0
   11.4060   14.4600   18.4320 N   0  0  0  0  0  0  0  0  0  0  0  0
   10.1310   13.8980   21.5560 C   0  0  0  0  0  0  0  0  0  0  0  0
   10.4900   14.0610   22.9650 N   0  0  0  0  0  0  0  0  0  0  0  0
    9.8580   13.2960   24.0400 C   0  0  0  0  0  0  0  0  0  0  0  0
    8.3390   13.3470   23.9280 C   0  0  2  0  0  0  0  0  0  0  0  0
    7.9150   14.6690   24.2690 O   0  0  0  0  0  0  0  0  0  0  0  0
    7.7050   12.3130   24.8380 C   0  0  0  0  0  0  0  0  0  0  0  0
    7.9370   10.9520   24.6500 C   0  0  0  0  0  0  0  0  0  0  0  0
    8.7360   10.6350   23.5800 O   0  0  0  0  0  0  0  0  0  0  0  0
    9.4950    9.4230   23.6350 C   0  0  0  0  0  0  0  0  0  0  0  0
    6.7970   12.6960   25.8210 C   0  0  0  0  0  0  0  0  0  0  0  0
    6.1250   11.7540   26.5770 C   0  0  0  0  0  0  0  0  0  0  0  0
    6.3600   10.4250   26.3780 C   0  0  0  0  0  0  0  0  0  0  0  0
    7.2710   10.0130   25.4200 C   0  0  0  0  0  0  0  0  0  0  0  0
 16 15  1  0
 15 14  1  0
 14 20  2  0
 20 19  1  0
 19 18  2  0
 18 17  1  0
 17 13  2  0
 14 13  1  0
 13 11  1  0
 11 12  1  1
 11 10  1  0
 10  9  1  0
  9  8  1  0
  8  4  1  0
  4  5  1  6
  7  5  1  0
  6  5  2  0
  4  3  1  0
  3  2  1  0
  9  2  1  0
  2  1  2  0
M  END
>  <id>  (285) 
285

>  <inchikey>  (285) 
JFDAVNMAKAEAMC-ONGXEEELSA-N

>  <alias>  (285) 
A4295a

>  <smiles>  (285) 
COc1ccccc1[C@@H](O)CN1C[C@@H](C(N)=O)CC1=O

>  <path>  (285) 
/opt/xchem-fragalysis-2/maxwin/BulkDock/TARGETS/A71EV2A/aligned_files/A4295a/A4295a.pdb

>  <distance_score>  (285) 
None

>  <energy_score>  (285) 
None

>  <compound>  (285) 
JFDAVNMAKAEAMC-UHFFFAOYSA-N

>  <compound_id>  (285) 
219

>  <target>  (285) 
A71EV2A

>  <tags>  (285) 
['GOOD count', 'MEDIOCRE count', '[Other] S1 site', 'hits', '[Other] S2 site', '[Other] Lactam Series', '[Other] P3 compound design', '[Other] upload_1 2025-02-12', 'Main status', 'BAD count']

>  <inspirations>  (285) 
None

>  <subsites>  (285) 
None

>  <reference>  (285) 


>  <observation_longname>  (285) 
A71EV2A-x4295_A_201_v1

>  <ConformerSites alias>  (285) 
1b - A0911/A/147

>  <CanonSites alias>  (285) 
1 - Active Site

>  <CrystalformSites alias>  (285) 
F5i - A3175/A/201

>  <Quatassemblies alias>  (285) 
A1 - monomer

>  <Crystalforms alias>  (285) 
F5 - A71EV2A_x3178_new_long_dials_041024

>  <ConformerSites upload name>  (285) 
1b - A71EV2A-x0911/A/147

>  <CanonSites upload name>  (285) 
1 - A71EV2A-x0911/A/147/1

>  <CrystalformSites upload name>  (285) 
F5i - A71EV2A-x3175/A/201/1

>  <Quatassemblies upload name>  (285) 
A1 - monomer

>  <Crystalforms upload name>  (285) 
F5 - A71EV2A_x3178_new_long_dials_041024

>  <ConformerSites short tag>  (285) 
1b - A0911/A/147

>  <CanonSites short tag>  (285) 
1 - A0911/A/147/1

>  <CrystalformSites short tag>  (285) 
F5i - A3175/A/201

>  <Quatassemblies short tag>  (285) 
A1 - monomer

>  <Crystalforms short tag>  (285) 
F5 - A71EV2A_x3178_new_long_dials_041024

>  <Centroid res>  (285) 
A71EV2A-x0911/A/133/A_v1

>  <Experiment code>  (285) 
A71EV2A-x4295

>  <Pose>  (285) 
A4295a

$$$$
A4303a
     RDKit          3D

 24 25  0  0  0  0  0  0  0  0999 V2000
   10.4080   16.6040   19.1740 O   0  0  0  0  0  0  0  0  0  0  0  0
   10.7940   15.4570   19.4420 C   0  0  0  0  0  0  0  0  0  0  0  0
   11.1860   14.5990   18.5160 N   0  0  0  0  0  0  0  0  0  0  0  0
   10.7640   14.9250   20.8660 C   0  0  1  0  0  0  0  0  0  0  0  0
   11.8490   15.5500   21.7570 C   0  0  0  0  0  0  0  0  0  0  0  0
   11.8170   14.9540   23.1750 C   0  0  0  0  0  0  0  0  0  0  0  0
   10.4120   15.0500   23.7880 C   0  0  0  0  0  0  0  0  0  0  0  0
    9.4120   15.1910   21.5320 C   0  0  0  0  0  0  0  0  0  0  0  0
    9.3740   14.5710   22.8590 N   0  0  0  0  0  0  0  0  0  0  0  0
    8.3780   13.6690   23.1310 C   0  0  0  0  0  0  0  0  0  0  0  0
    7.6260   13.2460   22.2590 O   0  0  0  0  0  0  0  0  0  0  0  0
    8.2410   13.2940   24.4330 N   0  0  0  0  0  0  0  0  0  0  0  0
    7.3000   12.3350   24.8620 C   0  0  0  0  0  0  0  0  0  0  0  0
    7.6100   10.9780   24.6250 C   0  0  0  0  0  0  0  0  0  0  0  0
    8.7240   10.7680   23.8590 O   0  0  0  0  0  0  0  0  0  0  0  0
    9.0720    9.4210   23.5420 C   0  0  0  0  0  0  0  0  0  0  0  0
    6.1530   12.6570   25.5840 C   0  0  0  0  0  0  0  0  0  0  0  0
    5.3620   11.6350   26.0890 C   0  0  0  0  0  0  0  0  0  0  0  0
    3.9220   12.0450   27.0280 S   0  0  0  0  0  0  0  0  0  0  0  0
    2.9750   10.9760   26.8850 O   0  0  0  0  0  0  0  0  0  0  0  0
    3.5050   13.3690   26.6640 O   0  0  0  0  0  0  0  0  0  0  0  0
    4.4920   12.0720   28.6890 C   0  0  0  0  0  0  0  0  0  0  0  0
    5.6790   10.3030   25.8760 C   0  0  0  0  0  0  0  0  0  0  0  0
    6.8010    9.9750   25.1370 C   0  0  0  0  0  0  0  0  0  0  0  0
 16 15  1  0
 15 14  1  0
 14 24  2  0
 24 23  1  0
 23 18  2  0
 19 18  1  0
 22 19  1  0
 20 19  2  0
 21 19  2  0
 18 17  1  0
 17 13  2  0
 14 13  1  0
 13 12  1  0
 12 10  1  0
 11 10  2  0
 10  9  1  0
  9  7  1  0
  7  6  1  0
  6  5  1  0
  5  4  1  0
  4  2  1  6
  3  2  1  0
  2  1  2  0
  8  4  1  0
  9  8  1  0
M  END
>  <id>  (286) 
286

>  <inchikey>  (286) 
YHCYXCZJJIJRCJ-JTQLQIEISA-N

>  <alias>  (286) 
A4303a

>  <smiles>  (286) 
COc1ccc(S(C)(=O)=O)cc1NC(=O)N1CCC[C@H](C(N)=O)C1

>  <path>  (286) 
/opt/xchem-fragalysis-2/maxwin/BulkDock/TARGETS/A71EV2A/aligned_files/A4303a/A4303a_hippo.pdb

>  <distance_score>  (286) 
None

>  <energy_score>  (286) 
None

>  <compound>  (286) 
YHCYXCZJJIJRCJ-UHFFFAOYSA-N

>  <compound_id>  (286) 
220

>  <target>  (286) 
A71EV2A

>  <tags>  (286) 
['GOOD count', 'MEDIOCRE count', '[Other] S1 site', 'hits', '[Other] S2 site', '[Other] P3 compound design', '[Other] upload_1 2025-02-12', 'Main status', '[Series] Piperidine series', 'BAD count']

>  <inspirations>  (286) 
None

>  <subsites>  (286) 
None

>  <reference>  (286) 


>  <observation_longname>  (286) 
A71EV2A-x4303_A_201_v1

>  <ConformerSites alias>  (286) 
1b - A0911/A/147

>  <CanonSites alias>  (286) 
1 - Active Site

>  <CrystalformSites alias>  (286) 
F7q - A4303/A/201

>  <Quatassemblies alias>  (286) 
A1 - monomer

>  <Crystalforms alias>  (286) 
F7 - A712A_x4207_8.1_refmac1_1st_ref

>  <ConformerSites upload name>  (286) 
1b - A71EV2A-x0911/A/147

>  <CanonSites upload name>  (286) 
1 - A71EV2A-x0911/A/147/1

>  <CrystalformSites upload name>  (286) 
F7q - A71EV2A-x4303/A/201/1

>  <Quatassemblies upload name>  (286) 
A1 - monomer

>  <Crystalforms upload name>  (286) 
F7 - A712A_x4207_8.1_refmac1_1st_ref

>  <ConformerSites short tag>  (286) 
1b - A0911/A/147

>  <CanonSites short tag>  (286) 
1 - A0911/A/147/1

>  <CrystalformSites short tag>  (286) 
F7q - A4303/A/201

>  <Quatassemblies short tag>  (286) 
A1 - monomer

>  <Crystalforms short tag>  (286) 
F7 - A712A_x4207_8.1_refmac1_1st_ref

>  <Centroid res>  (286) 
A71EV2A-x0911/A/133/A_v1

>  <Experiment code>  (286) 
A71EV2A-x4303

>  <Pose>  (286) 
A4303a

$$$$
A4303b
     RDKit          3D

 24 25  0  0  0  0  0  0  0  0999 V2000
   10.5480   16.7020   19.2560 O   0  0  0  0  0  0  0  0  0  0  0  0
   10.8630   15.5230   19.4540 C   0  0  0  0  0  0  0  0  0  0  0  0
   11.0810   14.6690   18.4700 N   0  0  0  0  0  0  0  0  0  0  0  0
   10.9600   14.9550   20.8620 C   0  0  1  0  0  0  0  0  0  0  0  0
   12.0720   15.6410   21.6840 C   0  0  0  0  0  0  0  0  0  0  0  0
   12.1530   15.0750   23.1070 C   0  0  0  0  0  0  0  0  0  0  0  0
   10.7920   15.1170   23.8040 C   0  0  0  0  0  0  0  0  0  0  0  0
    9.6370   15.0530   21.6250 C   0  0  0  0  0  0  0  0  0  0  0  0
    9.7590   14.4780   22.9700 N   0  0  0  0  0  0  0  0  0  0  0  0
    8.8390   13.5460   23.3700 C   0  0  0  0  0  0  0  0  0  0  0  0
    7.9930   13.1080   22.6080 O   0  0  0  0  0  0  0  0  0  0  0  0
    8.8880   13.1590   24.6720 N   0  0  0  0  0  0  0  0  0  0  0  0
    8.0240   12.1760   25.2340 C   0  0  0  0  0  0  0  0  0  0  0  0
    8.2010   10.8430   24.8120 C   0  0  0  0  0  0  0  0  0  0  0  0
    9.1590   10.6690   23.8470 O   0  0  0  0  0  0  0  0  0  0  0  0
    9.5360    9.3320   23.5140 C   0  0  0  0  0  0  0  0  0  0  0  0
    7.0440   12.4650   26.1840 C   0  0  0  0  0  0  0  0  0  0  0  0
    6.2660   11.4370   26.7010 C   0  0  0  0  0  0  0  0  0  0  0  0
    4.9980   11.8250   27.8750 S   0  0  0  0  0  0  0  0  0  0  0  0
    4.0190   10.7770   27.8480 O   0  0  0  0  0  0  0  0  0  0  0  0
    4.5520   13.1670   27.6260 O   0  0  0  0  0  0  0  0  0  0  0  0
    5.8120   11.7910   29.4270 C   0  0  0  0  0  0  0  0  0  0  0  0
    6.4430   10.1250   26.2900 C   0  0  0  0  0  0  0  0  0  0  0  0
    7.4110    9.8270   25.3440 C   0  0  0  0  0  0  0  0  0  0  0  0
 16 15  1  0
 15 14  1  0
 14 24  2  0
 24 23  1  0
 23 18  2  0
 19 18  1  0
 22 19  1  0
 20 19  2  0
 21 19  2  0
 18 17  1  0
 17 13  2  0
 14 13  1  0
 13 12  1  0
 12 10  1  0
 11 10  2  0
 10  9  1  0
  9  7  1  0
  7  6  1  0
  6  5  1  0
  5  4  1  0
  4  2  1  6
  3  2  1  0
  2  1  2  0
  8  4  1  0
  9  8  1  0
M  END
>  <id>  (287) 
287

>  <inchikey>  (287) 
YHCYXCZJJIJRCJ-JTQLQIEISA-N

>  <alias>  (287) 
A4303b

>  <smiles>  (287) 
COc1ccc(S(C)(=O)=O)cc1NC(=O)N1CCC[C@H](C(N)=O)C1

>  <path>  (287) 
/opt/xchem-fragalysis-2/maxwin/BulkDock/TARGETS/A71EV2A/aligned_files/A4303b/A4303b_hippo.pdb

>  <distance_score>  (287) 
None

>  <energy_score>  (287) 
None

>  <compound>  (287) 
YHCYXCZJJIJRCJ-UHFFFAOYSA-N

>  <compound_id>  (287) 
220

>  <target>  (287) 
A71EV2A

>  <tags>  (287) 
['GOOD count', 'MEDIOCRE count', '[Other] S1 site', 'hits', '[Other] S2 site', '[Other] P3 compound design', '[Other] upload_1 2025-02-12', 'Main status', '[Series] Piperidine series', 'BAD count']

>  <inspirations>  (287) 
None

>  <subsites>  (287) 
None

>  <reference>  (287) 


>  <observation_longname>  (287) 
A71EV2A-x4303_C_201_v1

>  <ConformerSites alias>  (287) 
1b - A0911/A/147

>  <CanonSites alias>  (287) 
1 - Active Site

>  <CrystalformSites alias>  (287) 
F7r - A4303/C/201

>  <Quatassemblies alias>  (287) 
A1 - monomer

>  <Crystalforms alias>  (287) 
F7 - A712A_x4207_8.1_refmac1_1st_ref

>  <ConformerSites upload name>  (287) 
1b - A71EV2A-x0911/A/147

>  <CanonSites upload name>  (287) 
1 - A71EV2A-x0911/A/147/1

>  <CrystalformSites upload name>  (287) 
F7r - A71EV2A-x4303/C/201/1

>  <Quatassemblies upload name>  (287) 
A1 - monomer

>  <Crystalforms upload name>  (287) 
F7 - A712A_x4207_8.1_refmac1_1st_ref

>  <ConformerSites short tag>  (287) 
1b - A0911/A/147

>  <CanonSites short tag>  (287) 
1 - A0911/A/147/1

>  <CrystalformSites short tag>  (287) 
F7r - A4303/C/201

>  <Quatassemblies short tag>  (287) 
A1 - monomer

>  <Crystalforms short tag>  (287) 
F7 - A712A_x4207_8.1_refmac1_1st_ref

>  <Centroid res>  (287) 
A71EV2A-x0911/A/133/A_v1

>  <Experiment code>  (287) 
A71EV2A-x4303

>  <Pose>  (287) 
A4303a

$$$$
A4304a
     RDKit          3D

 25 26  0  0  0  0  0  0  0  0999 V2000
   10.3540   16.9380   19.3340 O   0  0  0  0  0  0  0  0  0  0  0  0
   10.6070   15.7390   19.4480 C   0  0  0  0  0  0  0  0  0  0  0  0
   10.8480   14.9580   18.4090 N   0  0  0  0  0  0  0  0  0  0  0  0
   10.6570   15.0750   20.8120 C   0  0  1  0  0  0  0  0  0  0  0  0
   11.7240   15.7280   21.7040 C   0  0  0  0  0  0  0  0  0  0  0  0
   11.7430   15.1220   23.1110 C   0  0  0  0  0  0  0  0  0  0  0  0
   10.3610   15.1740   23.7400 C   0  0  0  0  0  0  0  0  0  0  0  0
    9.2990   15.1750   21.5180 C   0  0  0  0  0  0  0  0  0  0  0  0
    9.3600   14.5640   22.8500 N   0  0  0  0  0  0  0  0  0  0  0  0
    8.3850   13.7000   23.2550 C   0  0  0  0  0  0  0  0  0  0  0  0
    7.3930   13.4860   22.5700 O   0  0  0  0  0  0  0  0  0  0  0  0
    8.5630   13.1330   24.4760 N   0  0  0  0  0  0  0  0  0  0  0  0
    7.7410   12.1600   25.0780 C   0  0  0  0  0  0  0  0  0  0  0  0
    7.9660   10.8280   24.7130 C   0  0  0  0  0  0  0  0  0  0  0  0
    8.9080   10.6560   23.7340 O   0  0  0  0  0  0  0  0  0  0  0  0
    9.5130    9.3770   23.6070 C   0  0  0  0  0  0  0  0  0  0  0  0
    6.7630   12.4540   26.0190 C   0  0  0  0  0  0  0  0  0  0  0  0
    6.0140   11.4290   26.5840 C   0  0  0  0  0  0  0  0  0  0  0  0
    6.2670   10.1110   26.2380 C   0  0  0  0  0  0  0  0  0  0  0  0
    7.2320    9.8090   25.2960 C   0  0  0  0  0  0  0  0  0  0  0  0
    4.9140   11.7560   27.4290 N   0  0  0  0  0  0  0  0  0  0  0  0
    4.9090   11.5430   29.0430 S   0  0  0  0  0  0  0  0  0  0  0  0
    5.7050   12.5950   29.5960 O   0  0  0  0  0  0  0  0  0  0  0  0
    5.2860   10.1830   29.2840 O   0  0  0  0  0  0  0  0  0  0  0  0
    3.2490   11.7620   29.5680 C   0  0  0  0  0  0  0  0  0  0  0  0
 16 15  1  0
 15 14  1  0
 14 20  2  0
 20 19  1  0
 19 18  2  0
 21 18  1  0
 22 21  1  0
 25 22  1  0
 23 22  2  0
 24 22  2  0
 18 17  1  0
 17 13  2  0
 14 13  1  0
 13 12  1  0
 12 10  1  0
 11 10  2  0
 10  9  1  0
  9  7  1  0
  7  6  1  0
  6  5  1  0
  5  4  1  0
  4  2  1  6
  3  2  1  0
  2  1  2  0
  8  4  1  0
  9  8  1  0
M  END
>  <id>  (288) 
288

>  <inchikey>  (288) 
SXBSHLKXQZBYPV-JTQLQIEISA-N

>  <alias>  (288) 
A4304a

>  <smiles>  (288) 
COc1ccc(NS(C)(=O)=O)cc1NC(=O)N1CCC[C@H](C(N)=O)C1

>  <path>  (288) 
/opt/xchem-fragalysis-2/maxwin/BulkDock/TARGETS/A71EV2A/aligned_files/A4304a/A4304a.pdb

>  <distance_score>  (288) 
None

>  <energy_score>  (288) 
None

>  <compound>  (288) 
SXBSHLKXQZBYPV-UHFFFAOYSA-N

>  <compound_id>  (288) 
221

>  <target>  (288) 
A71EV2A

>  <tags>  (288) 
['GOOD count', 'MEDIOCRE count', '[Other] S1 site', 'hits', '[Other] S2 site', '[Other] P3 compound design', '[Other] upload_2 2024-12-12', 'Main status', '[Series] Piperidine series', 'BAD count']

>  <inspirations>  (288) 
None

>  <subsites>  (288) 
None

>  <reference>  (288) 


>  <observation_longname>  (288) 
A71EV2A-x4304_A_201_v1

>  <ConformerSites alias>  (288) 
1b - A0911/A/147

>  <CanonSites alias>  (288) 
1 - Active Site

>  <CrystalformSites alias>  (288) 
F8h - A0884/A/147

>  <Quatassemblies alias>  (288) 
A1 - monomer

>  <Crystalforms alias>  (288) 
F8 - A712A_x4271_2.1_refmac1_1st_ref

>  <ConformerSites upload name>  (288) 
1b - A71EV2A-x0911/A/147

>  <CanonSites upload name>  (288) 
1 - A71EV2A-x0911/A/147/1

>  <CrystalformSites upload name>  (288) 
F8h - A71EV2A-x0884/A/147/1

>  <Quatassemblies upload name>  (288) 
A1 - monomer

>  <Crystalforms upload name>  (288) 
F8 - A712A_x4271_2.1_refmac1_1st_ref

>  <ConformerSites short tag>  (288) 
1b - A0911/A/147

>  <CanonSites short tag>  (288) 
1 - A0911/A/147/1

>  <CrystalformSites short tag>  (288) 
F8h - A0884/A/147

>  <Quatassemblies short tag>  (288) 
A1 - monomer

>  <Crystalforms short tag>  (288) 
F8 - A712A_x4271_2.1_refmac1_1st_ref

>  <Centroid res>  (288) 
A71EV2A-x0911/A/133/A_v1

>  <Experiment code>  (288) 
A71EV2A-x4304

>  <Pose>  (288) 
A4304a

$$$$
A4305a
     RDKit          3D

 22 23  0  0  0  0  0  0  0  0999 V2000
   10.1700   16.5100   19.1370 O   0  0  0  0  0  0  0  0  0  0  0  0
   10.6120   15.3820   19.3940 C   0  0  0  0  0  0  0  0  0  0  0  0
   11.1410   14.5830   18.4730 N   0  0  0  0  0  0  0  0  0  0  0  0
   10.5540   14.8180   20.8010 C   0  0  1  0  0  0  0  0  0  0  0  0
   11.6440   15.4140   21.7140 C   0  0  0  0  0  0  0  0  0  0  0  0
   11.5910   14.7820   23.1070 C   0  0  0  0  0  0  0  0  0  0  0  0
   10.1990   14.9270   23.7090 C   0  0  0  0  0  0  0  0  0  0  0  0
    9.1940   15.0510   21.4610 C   0  0  0  0  0  0  0  0  0  0  0  0
    9.1760   14.4130   22.7820 N   0  0  0  0  0  0  0  0  0  0  0  0
    8.1380   13.6130   23.1460 C   0  0  0  0  0  0  0  0  0  0  0  0
    7.3160   13.2380   22.3270 O   0  0  0  0  0  0  0  0  0  0  0  0
    8.0400   13.3270   24.4780 N   0  0  0  0  0  0  0  0  0  0  0  0
    7.0660   12.5430   25.1470 C   0  0  0  0  0  0  0  0  0  0  0  0
    6.1350   13.0920   26.0280 C   0  0  0  0  0  0  0  0  0  0  0  0
    5.3540   12.2550   26.8110 C   0  0  0  0  0  0  0  0  0  0  0  0
    5.4830   10.8790   26.7120 C   0  0  0  0  0  0  0  0  0  0  0  0
    6.3860   10.3190   25.8210 C   0  0  0  0  0  0  0  0  0  0  0  0
    7.1630   11.1480   25.0320 C   0  0  0  0  0  0  0  0  0  0  0  0
    8.0050   10.7070   24.0380 O   0  0  0  0  0  0  0  0  0  0  0  0
    9.1290    9.8570   24.3740 C   0  0  0  0  0  0  0  0  0  0  0  0
    9.4230    8.9160   23.2500 C   0  0  0  0  0  0  0  0  0  0  0  0
   10.2800   10.7490   24.6860 C   0  0  0  0  0  0  0  0  0  0  0  0
 22 20  1  0
 21 20  1  0
 20 19  1  0
 19 18  1  0
 18 17  1  0
 17 16  2  0
 16 15  1  0
 15 14  2  0
 14 13  1  0
 18 13  2  0
 13 12  1  0
 12 10  1  0
 11 10  2  0
 10  9  1  0
  9  7  1  0
  7  6  1  0
  6  5  1  0
  5  4  1  0
  4  2  1  6
  3  2  1  0
  2  1  2  0
  8  4  1  0
  9  8  1  0
M  END
>  <id>  (289) 
289

>  <inchikey>  (289) 
LHHFKNNKVNZWBU-LBPRGKRZSA-N

>  <alias>  (289) 
A4305a

>  <smiles>  (289) 
CC(C)Oc1ccccc1NC(=O)N1CCC[C@H](C(N)=O)C1

>  <path>  (289) 
/opt/xchem-fragalysis-2/maxwin/BulkDock/TARGETS/A71EV2A/aligned_files/A4305a/A4305a.pdb

>  <distance_score>  (289) 
None

>  <energy_score>  (289) 
None

>  <compound>  (289) 
LHHFKNNKVNZWBU-UHFFFAOYSA-N

>  <compound_id>  (289) 
222

>  <target>  (289) 
A71EV2A

>  <tags>  (289) 
['GOOD count', 'MEDIOCRE count', '[Other] S1 site', 'hits', '[Other] S2 site', '[Other] P3 compound design', '[Series] Piperidine series', 'Main status', '[Other] upload_061224', 'BAD count']

>  <inspirations>  (289) 
None

>  <subsites>  (289) 
None

>  <reference>  (289) 


>  <observation_longname>  (289) 
A71EV2A-x4305_A_201_v1

>  <ConformerSites alias>  (289) 
1b - A0911/A/147

>  <CanonSites alias>  (289) 
1 - Active Site

>  <CrystalformSites alias>  (289) 
F5i - A3175/A/201

>  <Quatassemblies alias>  (289) 
A1 - monomer

>  <Crystalforms alias>  (289) 
F5 - A71EV2A_x3178_new_long_dials_041024

>  <ConformerSites upload name>  (289) 
1b - A71EV2A-x0911/A/147

>  <CanonSites upload name>  (289) 
1 - A71EV2A-x0911/A/147/1

>  <CrystalformSites upload name>  (289) 
F5i - A71EV2A-x3175/A/201/1

>  <Quatassemblies upload name>  (289) 
A1 - monomer

>  <Crystalforms upload name>  (289) 
F5 - A71EV2A_x3178_new_long_dials_041024

>  <ConformerSites short tag>  (289) 
1b - A0911/A/147

>  <CanonSites short tag>  (289) 
1 - A0911/A/147/1

>  <CrystalformSites short tag>  (289) 
F5i - A3175/A/201

>  <Quatassemblies short tag>  (289) 
A1 - monomer

>  <Crystalforms short tag>  (289) 
F5 - A71EV2A_x3178_new_long_dials_041024

>  <Centroid res>  (289) 
A71EV2A-x0911/A/133/A_v1

>  <Experiment code>  (289) 
A71EV2A-x4305

>  <Pose>  (289) 
A4305a

$$$$
A4306a
     RDKit          3D

 24 25  0  0  0  0  0  0  0  0999 V2000
   10.7870   10.1020   24.3290 F   0  0  0  0  0  0  0  0  0  0  0  0
    9.9400    9.4670   23.5460 C   0  0  0  0  0  0  0  0  0  0  0  0
   10.0390   10.0460   22.3550 F   0  0  0  0  0  0  0  0  0  0  0  0
   10.3930    8.2270   23.4020 F   0  0  0  0  0  0  0  0  0  0  0  0
    8.5730    9.5120   24.0980 C   0  0  0  0  0  0  0  0  0  0  0  0
    8.2230   10.9010   24.2310 O   0  0  0  0  0  0  0  0  0  0  0  0
    7.1080   11.2470   24.9520 C   0  0  0  0  0  0  0  0  0  0  0  0
    6.1910   10.3510   25.4850 C   0  0  0  0  0  0  0  0  0  0  0  0
    5.0980   10.8350   26.1840 C   0  0  0  0  0  0  0  0  0  0  0  0
    4.9270   12.1950   26.3620 C   0  0  0  0  0  0  0  0  0  0  0  0
    5.8410   13.0950   25.8330 C   0  0  0  0  0  0  0  0  0  0  0  0
    6.9410   12.6230   25.1160 C   0  0  0  0  0  0  0  0  0  0  0  0
    7.9540   13.4480   24.5670 N   0  0  0  0  0  0  0  0  0  0  0  0
    8.1680   13.6520   23.2270 C   0  0  0  0  0  0  0  0  0  0  0  0
    7.4040   13.2390   22.3710 O   0  0  0  0  0  0  0  0  0  0  0  0
    9.2520   14.4100   22.8970 N   0  0  0  0  0  0  0  0  0  0  0  0
   10.2870   14.8490   23.8490 C   0  0  0  0  0  0  0  0  0  0  0  0
   11.6870   14.7200   23.2540 C   0  0  0  0  0  0  0  0  0  0  0  0
   11.7500   15.3660   21.8710 C   0  0  0  0  0  0  0  0  0  0  0  0
    9.3200   15.0500   21.5780 C   0  0  0  0  0  0  0  0  0  0  0  0
   10.6820   14.7710   20.9310 C   0  0  1  0  0  0  0  0  0  0  0  0
   10.7850   15.3590   19.5330 C   0  0  0  0  0  0  0  0  0  0  0  0
   10.3560   16.4910   19.2850 O   0  0  0  0  0  0  0  0  0  0  0  0
   11.3460   14.5850   18.6140 N   0  0  0  0  0  0  0  0  0  0  0  0
 24 22  1  0
 23 22  2  0
 21 22  1  6
 21 19  1  0
 19 18  1  0
 18 17  1  0
 17 16  1  0
 16 14  1  0
 15 14  2  0
 14 13  1  0
 13 12  1  0
 12 11  2  0
 11 10  1  0
 10  9  2  0
  9  8  1  0
  8  7  2  0
 12  7  1  0
  7  6  1  0
  6  5  1  0
  5  2  1  0
  3  2  1  0
  4  2  1  0
  2  1  1  0
 20 16  1  0
 21 20  1  0
M  END
>  <id>  (290) 
290

>  <inchikey>  (290) 
XHGBHCKDUHPBTE-JTQLQIEISA-N

>  <alias>  (290) 
A4306a

>  <smiles>  (290) 
NC(=O)[C@H]1CCCN(C(=O)Nc2ccccc2OCC(F)(F)F)C1

>  <path>  (290) 
/opt/xchem-fragalysis-2/maxwin/BulkDock/TARGETS/A71EV2A/aligned_files/A4306a/A4306a.pdb

>  <distance_score>  (290) 
None

>  <energy_score>  (290) 
None

>  <compound>  (290) 
XHGBHCKDUHPBTE-UHFFFAOYSA-N

>  <compound_id>  (290) 
223

>  <target>  (290) 
A71EV2A

>  <tags>  (290) 
['GOOD count', 'MEDIOCRE count', '[Other] S1 site', 'hits', '[Other] S2 site', '[Other] P3 compound design', '[Other] upload_2 2024-12-12', 'Main status', '[Series] Piperidine series', 'BAD count']

>  <inspirations>  (290) 
None

>  <subsites>  (290) 
None

>  <reference>  (290) 


>  <observation_longname>  (290) 
A71EV2A-x4306_A_201_v1

>  <ConformerSites alias>  (290) 
1b - A0911/A/147

>  <CanonSites alias>  (290) 
1 - Active Site

>  <CrystalformSites alias>  (290) 
F1a - A0375/A/201

>  <Quatassemblies alias>  (290) 
A1 - monomer

>  <Crystalforms alias>  (290) 
F1 - A71_2A_open

>  <ConformerSites upload name>  (290) 
1b - A71EV2A-x0911/A/147

>  <CanonSites upload name>  (290) 
1 - A71EV2A-x0911/A/147/1

>  <CrystalformSites upload name>  (290) 
F1a - A71EV2A-x0375/A/201/1

>  <Quatassemblies upload name>  (290) 
A1 - monomer

>  <Crystalforms upload name>  (290) 
F1 - A71_2A_open

>  <ConformerSites short tag>  (290) 
1b - A0911/A/147

>  <CanonSites short tag>  (290) 
1 - A0911/A/147/1

>  <CrystalformSites short tag>  (290) 
F1a - A0375/A/201

>  <Quatassemblies short tag>  (290) 
A1 - monomer

>  <Crystalforms short tag>  (290) 
F1 - A71_2A_open

>  <Centroid res>  (290) 
A71EV2A-x0911/A/133/A_v1

>  <Experiment code>  (290) 
A71EV2A-x4306

>  <Pose>  (290) 
A4306a

$$$$
A4308a
     RDKit          3D

 22 24  0  0  0  0  0  0  0  0999 V2000
    8.7460   10.4500   24.2910 Cl  0  0  0  0  0  0  0  0  0  0  0  0
    7.5610   11.2360   25.2900 C   0  0  0  0  0  0  0  0  0  0  0  0
    6.7000   10.4420   26.0240 C   0  0  0  0  0  0  0  0  0  0  0  0
    5.8260   11.0690   26.8750 C   0  0  0  0  0  0  0  0  0  0  0  0
    4.9460   10.5020   27.7670 O   0  0  0  0  0  0  0  0  0  0  0  0
    4.5800   11.5690   28.6430 C   0  0  0  0  0  0  0  0  0  0  0  0
    4.9220   12.7940   27.9940 O   0  0  0  0  0  0  0  0  0  0  0  0
    5.7830   12.4320   26.9830 C   0  0  0  0  0  0  0  0  0  0  0  0
    6.6030   13.2440   26.2250 C   0  0  0  0  0  0  0  0  0  0  0  0
    7.5290   12.6400   25.3720 C   0  0  0  0  0  0  0  0  0  0  0  0
    8.4780   13.4060   24.6630 N   0  0  0  0  0  0  0  0  0  0  0  0
    8.5070   13.6200   23.3180 C   0  0  0  0  0  0  0  0  0  0  0  0
    7.6250   13.2110   22.5700 O   0  0  0  0  0  0  0  0  0  0  0  0
    9.5480   14.3730   22.8520 N   0  0  0  0  0  0  0  0  0  0  0  0
   10.5290   15.0300   23.7320 C   0  0  0  0  0  0  0  0  0  0  0  0
   11.9060   15.0750   23.0870 C   0  0  0  0  0  0  0  0  0  0  0  0
   11.8340   15.6600   21.6720 C   0  0  0  0  0  0  0  0  0  0  0  0
    9.4490   14.9730   21.5180 C   0  0  0  0  0  0  0  0  0  0  0  0
   10.8030   14.9130   20.8110 C   0  0  1  0  0  0  0  0  0  0  0  0
   10.7520   15.4440   19.3870 C   0  0  0  0  0  0  0  0  0  0  0  0
   10.4470   16.6160   19.1540 O   0  0  0  0  0  0  0  0  0  0  0  0
   10.9920   14.5650   18.4320 N   0  0  0  0  0  0  0  0  0  0  0  0
 22 20  1  0
 21 20  2  0
 19 20  1  6
 19 17  1  0
 17 16  1  0
 16 15  1  0
 15 14  1  0
 14 12  1  0
 13 12  2  0
 12 11  1  0
 11 10  1  0
 10  9  2  0
  9  8  1  0
  8  4  2  0
  4  3  1  0
  3  2  2  0
 10  2  1  0
  2  1  1  0
  5  4  1  0
  6  5  1  0
  7  6  1  0
  8  7  1  0
 18 14  1  0
 19 18  1  0
M  END
>  <id>  (291) 
291

>  <inchikey>  (291) 
HMYUUXJXRPXXLY-QMMMGPOBSA-N

>  <alias>  (291) 
A4308a

>  <smiles>  (291) 
NC(=O)[C@H]1CCCN(C(=O)Nc2cc3c(cc2Cl)OCO3)C1

>  <path>  (291) 
/opt/xchem-fragalysis-2/maxwin/BulkDock/TARGETS/A71EV2A/aligned_files/A4308a/A4308a.pdb

>  <distance_score>  (291) 
None

>  <energy_score>  (291) 
None

>  <compound>  (291) 
HMYUUXJXRPXXLY-UHFFFAOYSA-N

>  <compound_id>  (291) 
224

>  <target>  (291) 
A71EV2A

>  <tags>  (291) 
['GOOD count', 'MEDIOCRE count', '[Other] S1 site', 'hits', '[Other] S2 site', '[Other] P3 compound design', '[Other] upload_1 2025-02-12', 'Main status', '[Series] Piperidine series', 'BAD count']

>  <inspirations>  (291) 
None

>  <subsites>  (291) 
None

>  <reference>  (291) 


>  <observation_longname>  (291) 
A71EV2A-x4308_A_201_v1

>  <ConformerSites alias>  (291) 
1b - A0911/A/147

>  <CanonSites alias>  (291) 
1 - Active Site

>  <CrystalformSites alias>  (291) 
F8h - A0884/A/147

>  <Quatassemblies alias>  (291) 
A1 - monomer

>  <Crystalforms alias>  (291) 
F8 - A712A_x4271_2.1_refmac1_1st_ref

>  <ConformerSites upload name>  (291) 
1b - A71EV2A-x0911/A/147

>  <CanonSites upload name>  (291) 
1 - A71EV2A-x0911/A/147/1

>  <CrystalformSites upload name>  (291) 
F8h - A71EV2A-x0884/A/147/1

>  <Quatassemblies upload name>  (291) 
A1 - monomer

>  <Crystalforms upload name>  (291) 
F8 - A712A_x4271_2.1_refmac1_1st_ref

>  <ConformerSites short tag>  (291) 
1b - A0911/A/147

>  <CanonSites short tag>  (291) 
1 - A0911/A/147/1

>  <CrystalformSites short tag>  (291) 
F8h - A0884/A/147

>  <Quatassemblies short tag>  (291) 
A1 - monomer

>  <Crystalforms short tag>  (291) 
F8 - A712A_x4271_2.1_refmac1_1st_ref

>  <Centroid res>  (291) 
A71EV2A-x0911/A/133/A_v1

>  <Experiment code>  (291) 
A71EV2A-x4308

>  <Pose>  (291) 
A4308a

$$$$
A4309a
     RDKit          3D

 25 26  0  0  0  0  0  0  0  0999 V2000
   10.4830   16.6390   19.2290 O   0  0  0  0  0  0  0  0  0  0  0  0
   10.8380   15.4760   19.4550 C   0  0  0  0  0  0  0  0  0  0  0  0
   11.2050   14.6330   18.5010 N   0  0  0  0  0  0  0  0  0  0  0  0
   10.8140   14.9080   20.8630 C   0  0  1  0  0  0  0  0  0  0  0  0
   11.8750   15.5650   21.7600 C   0  0  0  0  0  0  0  0  0  0  0  0
   11.8160   14.9450   23.1560 C   0  0  0  0  0  0  0  0  0  0  0  0
   10.4090   15.0730   23.7450 C   0  0  0  0  0  0  0  0  0  0  0  0
    9.4280   15.1220   21.4810 C   0  0  0  0  0  0  0  0  0  0  0  0
    9.3770   14.5550   22.8300 N   0  0  0  0  0  0  0  0  0  0  0  0
    8.3950   13.6480   23.1340 C   0  0  0  0  0  0  0  0  0  0  0  0
    7.6150   13.2280   22.2890 O   0  0  0  0  0  0  0  0  0  0  0  0
    8.3020   13.2690   24.4380 N   0  0  0  0  0  0  0  0  0  0  0  0
    7.3940   12.2860   24.8980 C   0  0  0  0  0  0  0  0  0  0  0  0
    7.6780   10.9420   24.5660 C   0  0  0  0  0  0  0  0  0  0  0  0
    8.7890   10.7680   23.7850 O   0  0  0  0  0  0  0  0  0  0  0  0
    9.1030    9.4400   23.3500 C   0  0  0  0  0  0  0  0  0  0  0  0
    6.8750    9.9140   25.0490 C   0  0  0  0  0  0  0  0  0  0  0  0
    5.7950   10.2030   25.8590 C   0  0  0  0  0  0  0  0  0  0  0  0
    6.2890   12.5670   25.6990 C   0  0  0  0  0  0  0  0  0  0  0  0
    5.4990   11.5220   26.1630 C   0  0  0  0  0  0  0  0  0  0  0  0
    4.0380   11.8890   27.0810 S   0  0  0  0  0  0  0  0  0  0  0  0
    3.1330   10.7700   26.9710 O   0  0  0  0  0  0  0  0  0  0  0  0
    3.5590   13.1840   26.6830 O   0  0  0  0  0  0  0  0  0  0  0  0
    4.6130   11.9880   28.7610 C   0  0  0  0  0  0  0  0  0  0  0  0
    3.5410   12.4320   29.7320 C   0  0  0  0  0  0  0  0  0  0  0  0
 25 24  1  0
 24 21  1  0
 22 21  2  0
 23 21  2  0
 21 20  1  0
 20 18  2  0
 18 17  1  0
 17 14  2  0
 15 14  1  0
 16 15  1  0
 14 13  1  0
 13 12  1  0
 12 10  1  0
 11 10  2  0
 10  9  1  0
  9  7  1  0
  7  6  1  0
  6  5  1  0
  5  4  1  0
  4  2  1  6
  3  2  1  0
  2  1  2  0
  8  4  1  0
  9  8  1  0
 19 13  2  0
 20 19  1  0
M  END
>  <id>  (292) 
292

>  <inchikey>  (292) 
WBSLTZMNEYEYKV-NSHDSACASA-N

>  <alias>  (292) 
A4309a

>  <smiles>  (292) 
CCS(=O)(=O)c1ccc(OC)c(NC(=O)N2CCC[C@H](C(N)=O)C2)c1

>  <path>  (292) 
/opt/xchem-fragalysis-2/maxwin/BulkDock/TARGETS/A71EV2A/aligned_files/A4309a/A4309a_hippo.pdb

>  <distance_score>  (292) 
None

>  <energy_score>  (292) 
None

>  <compound>  (292) 
WBSLTZMNEYEYKV-UHFFFAOYSA-N

>  <compound_id>  (292) 
225

>  <target>  (292) 
A71EV2A

>  <tags>  (292) 
['GOOD count', 'MEDIOCRE count', '[Other] S1 site', 'hits', '[Other] S2 site', '[Other] P3 compound design', '[Other] upload_2 2024-12-12', 'Main status', '[Series] Piperidine series', 'BAD count']

>  <inspirations>  (292) 
None

>  <subsites>  (292) 
None

>  <reference>  (292) 


>  <observation_longname>  (292) 
A71EV2A-x4309_A_201_v1

>  <ConformerSites alias>  (292) 
1b - A0911/A/147

>  <CanonSites alias>  (292) 
1 - Active Site

>  <CrystalformSites alias>  (292) 
F7q - A4303/A/201

>  <Quatassemblies alias>  (292) 
A1 - monomer

>  <Crystalforms alias>  (292) 
F7 - A712A_x4207_8.1_refmac1_1st_ref

>  <ConformerSites upload name>  (292) 
1b - A71EV2A-x0911/A/147

>  <CanonSites upload name>  (292) 
1 - A71EV2A-x0911/A/147/1

>  <CrystalformSites upload name>  (292) 
F7q - A71EV2A-x4303/A/201/1

>  <Quatassemblies upload name>  (292) 
A1 - monomer

>  <Crystalforms upload name>  (292) 
F7 - A712A_x4207_8.1_refmac1_1st_ref

>  <ConformerSites short tag>  (292) 
1b - A0911/A/147

>  <CanonSites short tag>  (292) 
1 - A0911/A/147/1

>  <CrystalformSites short tag>  (292) 
F7q - A4303/A/201

>  <Quatassemblies short tag>  (292) 
A1 - monomer

>  <Crystalforms short tag>  (292) 
F7 - A712A_x4207_8.1_refmac1_1st_ref

>  <Centroid res>  (292) 
A71EV2A-x0911/A/133/A_v1

>  <Experiment code>  (292) 
A71EV2A-x4309

>  <Pose>  (292) 
A4309a

$$$$
A4309b
     RDKit          3D

 25 26  0  0  0  0  0  0  0  0999 V2000
   10.5030   16.6330   19.2990 O   0  0  0  0  0  0  0  0  0  0  0  0
   10.8970   15.4830   19.5130 C   0  0  0  0  0  0  0  0  0  0  0  0
   11.1920   14.6340   18.5370 N   0  0  0  0  0  0  0  0  0  0  0  0
   10.9610   14.9230   20.9240 C   0  0  1  0  0  0  0  0  0  0  0  0
   12.0390   15.6160   21.7800 C   0  0  0  0  0  0  0  0  0  0  0  0
   12.0970   15.0150   23.1900 C   0  0  0  0  0  0  0  0  0  0  0  0
   10.7350   15.0980   23.8740 C   0  0  0  0  0  0  0  0  0  0  0  0
    9.6230   15.0990   21.6450 C   0  0  0  0  0  0  0  0  0  0  0  0
    9.6990   14.5310   22.9960 N   0  0  0  0  0  0  0  0  0  0  0  0
    8.7650   13.6170   23.3830 C   0  0  0  0  0  0  0  0  0  0  0  0
    7.9150   13.2020   22.6070 O   0  0  0  0  0  0  0  0  0  0  0  0
    8.7970   13.2340   24.6920 N   0  0  0  0  0  0  0  0  0  0  0  0
    7.9210   12.2560   25.2300 C   0  0  0  0  0  0  0  0  0  0  0  0
    8.1390   10.9180   24.8190 C   0  0  0  0  0  0  0  0  0  0  0  0
    9.1860   10.7450   23.9490 O   0  0  0  0  0  0  0  0  0  0  0  0
    9.4670    9.4210   23.4910 C   0  0  0  0  0  0  0  0  0  0  0  0
    7.3450    9.8970   25.3210 C   0  0  0  0  0  0  0  0  0  0  0  0
    6.3470   10.1840   26.2380 C   0  0  0  0  0  0  0  0  0  0  0  0
    6.9140   12.5320   26.1570 C   0  0  0  0  0  0  0  0  0  0  0  0
    6.1480   11.4890   26.6560 C   0  0  0  0  0  0  0  0  0  0  0  0
    4.8880   11.8270   27.8400 S   0  0  0  0  0  0  0  0  0  0  0  0
    3.8710   10.8210   27.7050 O   0  0  0  0  0  0  0  0  0  0  0  0
    4.4910   13.2010   27.6840 O   0  0  0  0  0  0  0  0  0  0  0  0
    5.6110   11.6600   29.4460 C   0  0  0  0  0  0  0  0  0  0  0  0
    4.6040   11.7820   30.5610 C   0  0  0  0  0  0  0  0  0  0  0  0
 25 24  1  0
 24 21  1  0
 22 21  2  0
 23 21  2  0
 21 20  1  0
 20 18  2  0
 18 17  1  0
 17 14  2  0
 15 14  1  0
 16 15  1  0
 14 13  1  0
 13 12  1  0
 12 10  1  0
 11 10  2  0
 10  9  1  0
  9  7  1  0
  7  6  1  0
  6  5  1  0
  5  4  1  0
  4  2  1  6
  3  2  1  0
  2  1  2  0
  8  4  1  0
  9  8  1  0
 19 13  2  0
 20 19  1  0
M  END
>  <id>  (293) 
293

>  <inchikey>  (293) 
WBSLTZMNEYEYKV-NSHDSACASA-N

>  <alias>  (293) 
A4309b

>  <smiles>  (293) 
CCS(=O)(=O)c1ccc(OC)c(NC(=O)N2CCC[C@H](C(N)=O)C2)c1

>  <path>  (293) 
/opt/xchem-fragalysis-2/maxwin/BulkDock/TARGETS/A71EV2A/aligned_files/A4309b/A4309b_hippo.pdb

>  <distance_score>  (293) 
None

>  <energy_score>  (293) 
None

>  <compound>  (293) 
WBSLTZMNEYEYKV-UHFFFAOYSA-N

>  <compound_id>  (293) 
225

>  <target>  (293) 
A71EV2A

>  <tags>  (293) 
['GOOD count', 'MEDIOCRE count', '[Other] S1 site', 'hits', '[Other] S2 site', '[Other] P3 compound design', '[Other] upload_2 2024-12-12', 'Main status', '[Series] Piperidine series', 'BAD count']

>  <inspirations>  (293) 
None

>  <subsites>  (293) 
None

>  <reference>  (293) 


>  <observation_longname>  (293) 
A71EV2A-x4309_C_201_v1

>  <ConformerSites alias>  (293) 
1b - A0911/A/147

>  <CanonSites alias>  (293) 
1 - Active Site

>  <CrystalformSites alias>  (293) 
F7r - A4303/C/201

>  <Quatassemblies alias>  (293) 
A1 - monomer

>  <Crystalforms alias>  (293) 
F7 - A712A_x4207_8.1_refmac1_1st_ref

>  <ConformerSites upload name>  (293) 
1b - A71EV2A-x0911/A/147

>  <CanonSites upload name>  (293) 
1 - A71EV2A-x0911/A/147/1

>  <CrystalformSites upload name>  (293) 
F7r - A71EV2A-x4303/C/201/1

>  <Quatassemblies upload name>  (293) 
A1 - monomer

>  <Crystalforms upload name>  (293) 
F7 - A712A_x4207_8.1_refmac1_1st_ref

>  <ConformerSites short tag>  (293) 
1b - A0911/A/147

>  <CanonSites short tag>  (293) 
1 - A0911/A/147/1

>  <CrystalformSites short tag>  (293) 
F7r - A4303/C/201

>  <Quatassemblies short tag>  (293) 
A1 - monomer

>  <Crystalforms short tag>  (293) 
F7 - A712A_x4207_8.1_refmac1_1st_ref

>  <Centroid res>  (293) 
A71EV2A-x0911/A/133/A_v1

>  <Experiment code>  (293) 
A71EV2A-x4309

>  <Pose>  (293) 
A4309a

$$$$
A4310a
     RDKit          3D

 24 25  0  0  0  0  0  0  0  0999 V2000
    5.5720   11.8560   28.5990 F   0  0  0  0  0  0  0  0  0  0  0  0
    5.0530   11.4250   27.4590 C   0  0  0  0  0  0  0  0  0  0  0  0
    4.4480   10.2500   27.7120 F   0  0  0  0  0  0  0  0  0  0  0  0
    4.0840   12.2510   27.1300 F   0  0  0  0  0  0  0  0  0  0  0  0
    6.0930   11.3120   26.3880 C   0  0  0  0  0  0  0  0  0  0  0  0
    6.7930   12.4070   25.8720 C   0  0  0  0  0  0  0  0  0  0  0  0
    6.4680   13.6760   26.3120 O   0  0  0  0  0  0  0  0  0  0  0  0
    5.6560   14.4620   25.4330 C   0  0  0  0  0  0  0  0  0  0  0  0
    6.4390   10.0490   25.9310 C   0  0  0  0  0  0  0  0  0  0  0  0
    7.4570    9.8720   25.0100 C   0  0  0  0  0  0  0  0  0  0  0  0
    8.1610   10.9590   24.5190 C   0  0  0  0  0  0  0  0  0  0  0  0
    7.8310   12.2380   24.9500 C   0  0  0  0  0  0  0  0  0  0  0  0
    8.5650   13.3690   24.5180 N   0  0  0  0  0  0  0  0  0  0  0  0
    8.5340   13.7740   23.2260 C   0  0  0  0  0  0  0  0  0  0  0  0
    7.7730   13.2750   22.4140 O   0  0  0  0  0  0  0  0  0  0  0  0
    9.3220   14.8430   22.9070 N   0  0  0  0  0  0  0  0  0  0  0  0
    9.3140   15.3710   21.5400 C   0  0  0  0  0  0  0  0  0  0  0  0
   10.6440   15.0460   20.8580 C   0  0  1  0  0  0  0  0  0  0  0  0
   10.6510   15.5470   19.4240 C   0  0  0  0  0  0  0  0  0  0  0  0
   10.3340   16.7110   19.1500 O   0  0  0  0  0  0  0  0  0  0  0  0
   10.9710   14.6480   18.5000 N   0  0  0  0  0  0  0  0  0  0  0  0
   11.8010   15.6360   21.6750 C   0  0  0  0  0  0  0  0  0  0  0  0
   11.7790   15.1160   23.1150 C   0  0  0  0  0  0  0  0  0  0  0  0
   10.4160   15.3330   23.7620 C   0  0  0  0  0  0  0  0  0  0  0  0
  8  7  1  0
  7  6  1  0
  6 12  2  0
 13 12  1  0
 14 13  1  0
 15 14  2  0
 16 14  1  0
 16 24  1  0
 24 23  1  0
 23 22  1  0
 22 18  1  0
 18 19  1  6
 21 19  1  0
 20 19  2  0
 18 17  1  0
 17 16  1  0
 12 11  1  0
 11 10  2  0
 10  9  1  0
  9  5  2  0
  6  5  1  0
  5  2  1  0
  3  2  1  0
  4  2  1  0
  2  1  1  0
M  END
>  <id>  (294) 
294

>  <inchikey>  (294) 
WZNDKOZCMMEGCM-VIFPVBQESA-N

>  <alias>  (294) 
A4310a

>  <smiles>  (294) 
COc1c(NC(=O)N2CCC[C@H](C(N)=O)C2)cccc1C(F)(F)F

>  <path>  (294) 
/opt/xchem-fragalysis-2/maxwin/BulkDock/TARGETS/A71EV2A/aligned_files/A4310a/A4310a_hippo.pdb

>  <distance_score>  (294) 
None

>  <energy_score>  (294) 
None

>  <compound>  (294) 
WZNDKOZCMMEGCM-UHFFFAOYSA-N

>  <compound_id>  (294) 
226

>  <target>  (294) 
A71EV2A

>  <tags>  (294) 
['GOOD count', 'MEDIOCRE count', '[Other] S1 site', 'hits', '[Other] S2 site', '[Other] P3 compound design', '[Other] upload_1 2025-02-12', 'Main status', '[Series] Piperidine series', 'BAD count']

>  <inspirations>  (294) 
None

>  <subsites>  (294) 
None

>  <reference>  (294) 


>  <observation_longname>  (294) 
A71EV2A-x4310_A_201_v1

>  <ConformerSites alias>  (294) 
1b - A0911/A/147

>  <CanonSites alias>  (294) 
1 - Active Site

>  <CrystalformSites alias>  (294) 
F7q - A4303/A/201

>  <Quatassemblies alias>  (294) 
A1 - monomer

>  <Crystalforms alias>  (294) 
F7 - A712A_x4207_8.1_refmac1_1st_ref

>  <ConformerSites upload name>  (294) 
1b - A71EV2A-x0911/A/147

>  <CanonSites upload name>  (294) 
1 - A71EV2A-x0911/A/147/1

>  <CrystalformSites upload name>  (294) 
F7q - A71EV2A-x4303/A/201/1

>  <Quatassemblies upload name>  (294) 
A1 - monomer

>  <Crystalforms upload name>  (294) 
F7 - A712A_x4207_8.1_refmac1_1st_ref

>  <ConformerSites short tag>  (294) 
1b - A0911/A/147

>  <CanonSites short tag>  (294) 
1 - A0911/A/147/1

>  <CrystalformSites short tag>  (294) 
F7q - A4303/A/201

>  <Quatassemblies short tag>  (294) 
A1 - monomer

>  <Crystalforms short tag>  (294) 
F7 - A712A_x4207_8.1_refmac1_1st_ref

>  <Centroid res>  (294) 
A71EV2A-x0911/A/133/A_v1

>  <Experiment code>  (294) 
A71EV2A-x4310

>  <Pose>  (294) 
A4310a

$$$$
A4310b
     RDKit          3D

 24 25  0  0  0  0  0  0  0  0999 V2000
    4.9360   10.4040   28.2670 F   0  0  0  0  0  0  0  0  0  0  0  0
    5.3630   11.5590   27.7610 C   0  0  0  0  0  0  0  0  0  0  0  0
    4.2640   12.1970   27.3240 F   0  0  0  0  0  0  0  0  0  0  0  0
    5.8030   12.2680   28.8150 F   0  0  0  0  0  0  0  0  0  0  0  0
    6.4100   11.3950   26.6890 C   0  0  0  0  0  0  0  0  0  0  0  0
    7.1310   12.4720   26.1420 C   0  0  0  0  0  0  0  0  0  0  0  0
    6.8840   13.7560   26.5940 O   0  0  0  0  0  0  0  0  0  0  0  0
    6.0040   14.5530   25.7890 C   0  0  0  0  0  0  0  0  0  0  0  0
    6.7100   10.1230   26.2200 C   0  0  0  0  0  0  0  0  0  0  0  0
    7.6910    9.9210   25.2570 C   0  0  0  0  0  0  0  0  0  0  0  0
    8.4050   10.9870   24.7300 C   0  0  0  0  0  0  0  0  0  0  0  0
    8.1240   12.2730   25.1730 C   0  0  0  0  0  0  0  0  0  0  0  0
    8.8380   13.3900   24.6780 N   0  0  0  0  0  0  0  0  0  0  0  0
    8.7350   13.7790   23.3750 C   0  0  0  0  0  0  0  0  0  0  0  0
    7.9180   13.2650   22.6050 O   0  0  0  0  0  0  0  0  0  0  0  0
    9.5040   14.8500   23.0080 N   0  0  0  0  0  0  0  0  0  0  0  0
    9.4240   15.3380   21.6290 C   0  0  0  0  0  0  0  0  0  0  0  0
   10.7440   15.0750   20.9020 C   0  0  1  0  0  0  0  0  0  0  0  0
   10.6800   15.5620   19.4660 C   0  0  0  0  0  0  0  0  0  0  0  0
   10.3420   16.7300   19.2070 O   0  0  0  0  0  0  0  0  0  0  0  0
   10.9550   14.6550   18.5290 N   0  0  0  0  0  0  0  0  0  0  0  0
   11.8870   15.7600   21.6780 C   0  0  0  0  0  0  0  0  0  0  0  0
   11.9310   15.2840   23.1320 C   0  0  0  0  0  0  0  0  0  0  0  0
   10.5790   15.4660   23.8120 C   0  0  0  0  0  0  0  0  0  0  0  0
  8  7  1  0
  7  6  1  0
  6 12  2  0
 13 12  1  0
 14 13  1  0
 15 14  2  0
 16 14  1  0
 16 24  1  0
 24 23  1  0
 23 22  1  0
 22 18  1  0
 18 19  1  6
 21 19  1  0
 20 19  2  0
 18 17  1  0
 17 16  1  0
 12 11  1  0
 11 10  2  0
 10  9  1  0
  9  5  2  0
  6  5  1  0
  5  2  1  0
  3  2  1  0
  4  2  1  0
  2  1  1  0
M  END
>  <id>  (295) 
295

>  <inchikey>  (295) 
WZNDKOZCMMEGCM-VIFPVBQESA-N

>  <alias>  (295) 
A4310b

>  <smiles>  (295) 
COc1c(NC(=O)N2CCC[C@H](C(N)=O)C2)cccc1C(F)(F)F

>  <path>  (295) 
/opt/xchem-fragalysis-2/maxwin/BulkDock/TARGETS/A71EV2A/aligned_files/A4310b/A4310b_hippo.pdb

>  <distance_score>  (295) 
None

>  <energy_score>  (295) 
None

>  <compound>  (295) 
WZNDKOZCMMEGCM-UHFFFAOYSA-N

>  <compound_id>  (295) 
226

>  <target>  (295) 
A71EV2A

>  <tags>  (295) 
['GOOD count', 'MEDIOCRE count', '[Other] S1 site', 'hits', '[Other] S2 site', '[Other] P3 compound design', '[Other] upload_1 2025-02-12', 'Main status', '[Series] Piperidine series', 'BAD count']

>  <inspirations>  (295) 
None

>  <subsites>  (295) 
None

>  <reference>  (295) 


>  <observation_longname>  (295) 
A71EV2A-x4310_C_201_v1

>  <ConformerSites alias>  (295) 
1b - A0911/A/147

>  <CanonSites alias>  (295) 
1 - Active Site

>  <CrystalformSites alias>  (295) 
F7r - A4303/C/201

>  <Quatassemblies alias>  (295) 
A1 - monomer

>  <Crystalforms alias>  (295) 
F7 - A712A_x4207_8.1_refmac1_1st_ref

>  <ConformerSites upload name>  (295) 
1b - A71EV2A-x0911/A/147

>  <CanonSites upload name>  (295) 
1 - A71EV2A-x0911/A/147/1

>  <CrystalformSites upload name>  (295) 
F7r - A71EV2A-x4303/C/201/1

>  <Quatassemblies upload name>  (295) 
A1 - monomer

>  <Crystalforms upload name>  (295) 
F7 - A712A_x4207_8.1_refmac1_1st_ref

>  <ConformerSites short tag>  (295) 
1b - A0911/A/147

>  <CanonSites short tag>  (295) 
1 - A0911/A/147/1

>  <CrystalformSites short tag>  (295) 
F7r - A4303/C/201

>  <Quatassemblies short tag>  (295) 
A1 - monomer

>  <Crystalforms short tag>  (295) 
F7 - A712A_x4207_8.1_refmac1_1st_ref

>  <Centroid res>  (295) 
A71EV2A-x0911/A/133/A_v1

>  <Experiment code>  (295) 
A71EV2A-x4310

>  <Pose>  (295) 
A4310a

$$$$
A4311a
     RDKit          3D

 22 23  0  0  0  0  0  0  0  0999 V2000
   10.0180   16.5670   18.8870 O   0  0  0  0  0  0  0  0  0  0  0  0
   10.3430   15.4250   19.2240 C   0  0  0  0  0  0  0  0  0  0  0  0
   10.8120   14.5250   18.3820 N   0  0  0  0  0  0  0  0  0  0  0  0
   10.3040   15.0040   20.6820 C   0  0  1  0  0  0  0  0  0  0  0  0
   11.4680   15.6500   21.4510 C   0  0  0  0  0  0  0  0  0  0  0  0
   11.4180   15.2670   22.9220 C   0  0  0  0  0  0  0  0  0  0  0  0
   10.0360   15.5900   23.5020 C   0  0  0  0  0  0  0  0  0  0  0  0
    8.9710   15.3710   21.3230 C   0  0  0  0  0  0  0  0  0  0  0  0
    8.9710   14.9360   22.7220 N   0  0  0  0  0  0  0  0  0  0  0  0
    8.3260   13.7880   23.0810 C   0  0  0  0  0  0  0  0  0  0  0  0
    7.4560   13.2950   22.3930 O   0  0  0  0  0  0  0  0  0  0  0  0
    8.6440   13.2670   24.2910 N   0  0  0  0  0  0  0  0  0  0  0  0
    8.0450   12.0960   24.8110 C   0  0  0  0  0  0  0  0  0  0  0  0
    6.9960   12.1790   25.7410 C   0  0  0  0  0  0  0  0  0  0  0  0
    6.3720   13.5050   26.2460 C   0  0  0  0  0  0  0  0  0  0  0  0
    5.3220   13.2650   27.3490 C   0  0  0  0  0  0  0  0  0  0  0  0
    5.6340   14.2630   25.1250 C   0  0  0  0  0  0  0  0  0  0  0  0
    7.4460   14.4100   26.8550 C   0  0  0  0  0  0  0  0  0  0  0  0
    8.5360   10.8600   24.4130 C   0  0  0  0  0  0  0  0  0  0  0  0
    7.9860    9.7040   24.9300 C   0  0  0  0  0  0  0  0  0  0  0  0
    6.9800    9.7710   25.8510 C   0  0  0  0  0  0  0  0  0  0  0  0
    6.4890   10.9950   26.2650 C   0  0  0  0  0  0  0  0  0  0  0  0
 18 15  1  0
 17 15  1  0
 16 15  1  0
 15 14  1  0
 14 22  2  0
 22 21  1  0
 21 20  2  0
 20 19  1  0
 19 13  2  0
 14 13  1  0
 13 12  1  0
 12 10  1  0
 11 10  2  0
 10  9  1  0
  9  7  1  0
  7  6  1  0
  6  5  1  0
  5  4  1  0
  4  2  1  6
  3  2  1  0
  2  1  2  0
  8  4  1  0
  9  8  1  0
M  END
>  <id>  (296) 
296

>  <inchikey>  (296) 
NNZDJLYJDJZVJG-LBPRGKRZSA-N

>  <alias>  (296) 
A4311a

>  <smiles>  (296) 
CC(C)(C)c1ccccc1NC(=O)N1CCC[C@H](C(N)=O)C1

>  <path>  (296) 
/opt/xchem-fragalysis-2/maxwin/BulkDock/TARGETS/A71EV2A/aligned_files/A4311a/A4311a.pdb

>  <distance_score>  (296) 
None

>  <energy_score>  (296) 
None

>  <compound>  (296) 
NNZDJLYJDJZVJG-UHFFFAOYSA-N

>  <compound_id>  (296) 
227

>  <target>  (296) 
A71EV2A

>  <tags>  (296) 
['GOOD count', 'MEDIOCRE count', '[Other] S1 site', 'hits', '[Other] S2 site', '[Other] P3 compound design', '[Other] upload_1 2025-02-12', 'Main status', '[Series] Piperidine series', 'BAD count']

>  <inspirations>  (296) 
None

>  <subsites>  (296) 
None

>  <reference>  (296) 


>  <observation_longname>  (296) 
A71EV2A-x4311_A_201_v1

>  <ConformerSites alias>  (296) 
1b - A0911/A/147

>  <CanonSites alias>  (296) 
1 - Active Site

>  <CrystalformSites alias>  (296) 
F5i - A3175/A/201

>  <Quatassemblies alias>  (296) 
A1 - monomer

>  <Crystalforms alias>  (296) 
F5 - A71EV2A_x3178_new_long_dials_041024

>  <ConformerSites upload name>  (296) 
1b - A71EV2A-x0911/A/147

>  <CanonSites upload name>  (296) 
1 - A71EV2A-x0911/A/147/1

>  <CrystalformSites upload name>  (296) 
F5i - A71EV2A-x3175/A/201/1

>  <Quatassemblies upload name>  (296) 
A1 - monomer

>  <Crystalforms upload name>  (296) 
F5 - A71EV2A_x3178_new_long_dials_041024

>  <ConformerSites short tag>  (296) 
1b - A0911/A/147

>  <CanonSites short tag>  (296) 
1 - A0911/A/147/1

>  <CrystalformSites short tag>  (296) 
F5i - A3175/A/201

>  <Quatassemblies short tag>  (296) 
A1 - monomer

>  <Crystalforms short tag>  (296) 
F5 - A71EV2A_x3178_new_long_dials_041024

>  <Centroid res>  (296) 
A71EV2A-x0911/A/133/A_v1

>  <Experiment code>  (296) 
A71EV2A-x4311

>  <Pose>  (296) 
A4311a

$$$$
A4312a
     RDKit          3D

 19 21  0  0  0  0  0  0  0  0999 V2000
   11.8630   15.3530   24.1690 O   0  0  0  0  0  0  0  0  0  0  0  0
   11.3020   15.1820   23.0930 C   0  0  0  0  0  0  0  0  0  0  0  0
   11.8280   15.5340   21.7260 C   0  0  0  0  0  0  0  0  0  0  0  0
   10.0550   14.6890   22.9470 N   0  0  0  0  0  0  0  0  0  0  0  0
    9.6100   14.6540   21.5510 C   0  0  0  0  0  0  0  0  0  0  0  0
   10.9460   14.6920   20.8010 C   0  0  1  0  0  0  0  0  0  0  0  0
   10.8110   15.2370   19.3890 C   0  0  0  0  0  0  0  0  0  0  0  0
   10.3070   16.3450   19.1770 O   0  0  0  0  0  0  0  0  0  0  0  0
   11.1800   14.4190   18.4190 N   0  0  0  0  0  0  0  0  0  0  0  0
    9.1820   14.3290   24.0640 C   0  0  0  0  0  0  0  0  0  0  0  0
    8.8670   12.8540   24.1590 C   0  0  0  0  0  0  0  0  0  0  0  0
    7.8220   12.4210   24.9780 C   0  0  0  0  0  0  0  0  0  0  0  0
    6.9460   13.2390   25.6570 O   0  0  0  0  0  0  0  0  0  0  0  0
    5.9990   12.3680   26.3460 C   0  0  0  0  0  0  0  0  0  0  0  0
    6.4860   10.9290   26.1900 C   0  0  0  0  0  0  0  0  0  0  0  0
    7.5800   11.0730   25.1640 C   0  0  0  0  0  0  0  0  0  0  0  0
    8.3500   10.1300   24.4910 C   0  0  0  0  0  0  0  0  0  0  0  0
    9.3750   10.5410   23.6580 C   0  0  0  0  0  0  0  0  0  0  0  0
    9.6350   11.8930   23.5000 C   0  0  0  0  0  0  0  0  0  0  0  0
  9  7  1  0
  8  7  2  0
  6  7  1  6
  6  3  1  0
  3  2  1  0
  2  1  2  0
  4  2  1  0
 10  4  1  0
 11 10  1  0
 11 19  2  0
 19 18  1  0
 18 17  2  0
 17 16  1  0
 16 12  2  0
 12 11  1  0
 13 12  1  0
 14 13  1  0
 15 14  1  0
 16 15  1  0
  5  4  1  0
  6  5  1  0
M  END
>  <id>  (297) 
297

>  <inchikey>  (297) 
GEUCKEBNKVUUPC-NSHDSACASA-N

>  <alias>  (297) 
A4312a

>  <smiles>  (297) 
NC(=O)[C@H]1CC(=O)N(Cc2cccc3c2OCC3)C1

>  <path>  (297) 
/opt/xchem-fragalysis-2/maxwin/BulkDock/TARGETS/A71EV2A/aligned_files/A4312a/A4312a.pdb

>  <distance_score>  (297) 
None

>  <energy_score>  (297) 
None

>  <compound>  (297) 
GEUCKEBNKVUUPC-UHFFFAOYSA-N

>  <compound_id>  (297) 
228

>  <target>  (297) 
A71EV2A

>  <tags>  (297) 
['GOOD count', 'MEDIOCRE count', '[Other] S1 site', 'hits', '[Other] S2 site', '[Other] Lactam Series', '[Other] P3 compound design', 'Main status', '[Other] upload_061224', 'BAD count']

>  <inspirations>  (297) 
None

>  <subsites>  (297) 
None

>  <reference>  (297) 


>  <observation_longname>  (297) 
A71EV2A-x4312_A_201_v1

>  <ConformerSites alias>  (297) 
1b - A0911/A/147

>  <CanonSites alias>  (297) 
1 - Active Site

>  <CrystalformSites alias>  (297) 
F5i - A3175/A/201

>  <Quatassemblies alias>  (297) 
A1 - monomer

>  <Crystalforms alias>  (297) 
F5 - A71EV2A_x3178_new_long_dials_041024

>  <ConformerSites upload name>  (297) 
1b - A71EV2A-x0911/A/147

>  <CanonSites upload name>  (297) 
1 - A71EV2A-x0911/A/147/1

>  <CrystalformSites upload name>  (297) 
F5i - A71EV2A-x3175/A/201/1

>  <Quatassemblies upload name>  (297) 
A1 - monomer

>  <Crystalforms upload name>  (297) 
F5 - A71EV2A_x3178_new_long_dials_041024

>  <ConformerSites short tag>  (297) 
1b - A0911/A/147

>  <CanonSites short tag>  (297) 
1 - A0911/A/147/1

>  <CrystalformSites short tag>  (297) 
F5i - A3175/A/201

>  <Quatassemblies short tag>  (297) 
A1 - monomer

>  <Crystalforms short tag>  (297) 
F5 - A71EV2A_x3178_new_long_dials_041024

>  <Centroid res>  (297) 
A71EV2A-x0911/A/133/A_v1

>  <Experiment code>  (297) 
A71EV2A-x4312

>  <Pose>  (297) 
A4312a

$$$$
A4313a
     RDKit          3D

 20 21  0  0  0  0  0  0  0  0999 V2000
   11.5500   15.8050   23.9700 O   0  0  0  0  0  0  0  0  0  0  0  0
   11.1030   15.5060   22.8690 C   0  0  0  0  0  0  0  0  0  0  0  0
   11.7460   15.7370   21.5320 C   0  0  0  0  0  0  0  0  0  0  0  0
   10.8990   14.8560   20.6000 C   0  0  2  0  0  0  0  0  0  0  0  0
   10.8750   15.3010   19.1490 C   0  0  0  0  0  0  0  0  0  0  0  0
   10.3900   16.3910   18.8220 O   0  0  0  0  0  0  0  0  0  0  0  0
   11.3270   14.4250   18.2790 N   0  0  0  0  0  0  0  0  0  0  0  0
    9.5210   14.9020   21.2440 C   0  0  0  0  0  0  0  0  0  0  0  0
    9.8970   14.9400   22.6580 N   0  0  0  0  0  0  0  0  0  0  0  0
    9.1090   14.3000   23.7100 C   0  0  0  0  0  0  0  0  0  0  0  0
    9.3530   12.7940   23.7850 C   0  0  1  0  0  0  0  0  0  0  0  0
   10.7580   12.5240   24.3070 C   0  0  0  0  0  0  0  0  0  0  0  0
    8.2980   12.0470   24.5820 C   0  0  0  0  0  0  0  0  0  0  0  0
    8.1890   10.6670   24.4320 C   0  0  0  0  0  0  0  0  0  0  0  0
    8.8970   10.1390   23.3880 O   0  0  0  0  0  0  0  0  0  0  0  0
    9.6070    8.9350   23.6120 C   0  0  0  0  0  0  0  0  0  0  0  0
    7.4590   12.6770   25.4940 C   0  0  0  0  0  0  0  0  0  0  0  0
    6.5860   11.9420   26.2750 C   0  0  0  0  0  0  0  0  0  0  0  0
    6.5350   10.5790   26.1580 C   0  0  0  0  0  0  0  0  0  0  0  0
    7.3250    9.9300   25.2250 C   0  0  0  0  0  0  0  0  0  0  0  0
 16 15  1  0
 15 14  1  0
 14 20  2  0
 20 19  1  0
 19 18  2  0
 18 17  1  0
 17 13  2  0
 14 13  1  0
 13 11  1  0
 11 12  1  1
 11 10  1  0
 10  9  1  0
  9  8  1  0
  8  4  1  0
  4  5  1  6
  7  5  1  0
  6  5  2  0
  4  3  1  0
  3  2  1  0
  9  2  1  0
  2  1  2  0
M  END
>  <id>  (298) 
298

>  <inchikey>  (298) 
ASBZZTIQOPLUGG-MNOVXSKESA-N

>  <alias>  (298) 
A4313a

>  <smiles>  (298) 
COc1ccccc1[C@H](C)CN1C[C@@H](C(N)=O)CC1=O

>  <path>  (298) 
/opt/xchem-fragalysis-2/maxwin/BulkDock/TARGETS/A71EV2A/aligned_files/A4313a/A4313a.pdb

>  <distance_score>  (298) 
None

>  <energy_score>  (298) 
None

>  <compound>  (298) 
ASBZZTIQOPLUGG-UHFFFAOYSA-N

>  <compound_id>  (298) 
229

>  <target>  (298) 
A71EV2A

>  <tags>  (298) 
['GOOD count', "[Other] S1' site", 'MEDIOCRE count', '[Other] S1 site', 'hits', '[Other] S2 site', '[Other] Lactam Series', '[Other] P3 compound design', '[Other] upload_1 2025-02-12', 'Main status', 'BAD count']

>  <inspirations>  (298) 
None

>  <subsites>  (298) 
None

>  <reference>  (298) 


>  <observation_longname>  (298) 
A71EV2A-x4313_A_201_v1

>  <ConformerSites alias>  (298) 
1b - A0911/A/147

>  <CanonSites alias>  (298) 
1 - Active Site

>  <CrystalformSites alias>  (298) 
F5i - A3175/A/201

>  <Quatassemblies alias>  (298) 
A1 - monomer

>  <Crystalforms alias>  (298) 
F5 - A71EV2A_x3178_new_long_dials_041024

>  <ConformerSites upload name>  (298) 
1b - A71EV2A-x0911/A/147

>  <CanonSites upload name>  (298) 
1 - A71EV2A-x0911/A/147/1

>  <CrystalformSites upload name>  (298) 
F5i - A71EV2A-x3175/A/201/1

>  <Quatassemblies upload name>  (298) 
A1 - monomer

>  <Crystalforms upload name>  (298) 
F5 - A71EV2A_x3178_new_long_dials_041024

>  <ConformerSites short tag>  (298) 
1b - A0911/A/147

>  <CanonSites short tag>  (298) 
1 - A0911/A/147/1

>  <CrystalformSites short tag>  (298) 
F5i - A3175/A/201

>  <Quatassemblies short tag>  (298) 
A1 - monomer

>  <Crystalforms short tag>  (298) 
F5 - A71EV2A_x3178_new_long_dials_041024

>  <Centroid res>  (298) 
A71EV2A-x0911/A/133/A_v1

>  <Experiment code>  (298) 
A71EV2A-x4313

>  <Pose>  (298) 
A4313a

$$$$
A4315a
     RDKit          3D

 20 22  0  0  0  0  0  0  0  0999 V2000
   11.5520   14.6700   24.8850 O   0  0  0  0  0  0  0  0  0  0  0  0
   11.4420   14.8010   23.6730 C   0  0  0  0  0  0  0  0  0  0  0  0
   12.6300   15.2250   22.8480 C   0  0  0  0  0  0  0  0  0  0  0  0
   12.3380   15.6920   21.4150 C   0  0  0  0  0  0  0  0  0  0  0  0
   10.2610   14.6340   23.0310 N   0  0  0  0  0  0  0  0  0  0  0  0
    9.9790   14.8850   21.6110 C   0  0  0  0  0  0  0  0  0  0  0  0
   11.2570   14.8150   20.7680 C   0  0  1  0  0  0  0  0  0  0  0  0
   10.8970   15.2850   19.3670 C   0  0  0  0  0  0  0  0  0  0  0  0
   10.3230   16.3640   19.1810 O   0  0  0  0  0  0  0  0  0  0  0  0
   11.1950   14.4550   18.3860 N   0  0  0  0  0  0  0  0  0  0  0  0
    9.0680   14.2880   23.8040 C   0  0  0  0  0  0  0  0  0  0  0  0
    8.8170   12.8020   23.9300 C   0  0  0  0  0  0  0  0  0  0  0  0
    7.8020   12.3380   24.7640 C   0  0  0  0  0  0  0  0  0  0  0  0
    6.9970   13.0790   25.5990 O   0  0  0  0  0  0  0  0  0  0  0  0
    6.2090   12.1140   26.3150 C   0  0  0  0  0  0  0  0  0  0  0  0
    6.6380   10.7980   25.9300 O   0  0  0  0  0  0  0  0  0  0  0  0
    7.6280   10.9910   24.9880 C   0  0  0  0  0  0  0  0  0  0  0  0
    8.4100   10.0430   24.3540 C   0  0  0  0  0  0  0  0  0  0  0  0
    9.3990   10.4860   23.4860 C   0  0  0  0  0  0  0  0  0  0  0  0
    9.6100   11.8490   23.2890 C   0  0  0  0  0  0  0  0  0  0  0  0
 10  8  1  0
  9  8  2  0
  7  8  1  6
  7  4  1  0
  4  3  1  0
  3  2  1  0
  2  1  2  0
  5  2  1  0
 11  5  1  0
 12 11  1  0
 12 20  2  0
 20 19  1  0
 19 18  2  0
 18 17  1  0
 17 13  2  0
 13 12  1  0
 14 13  1  0
 15 14  1  0
 16 15  1  0
 17 16  1  0
  6  5  1  0
  7  6  1  0
M  END
>  <id>  (299) 
299

>  <inchikey>  (299) 
UTPQMVYOLBXEQO-JTQLQIEISA-N

>  <alias>  (299) 
A4315a

>  <smiles>  (299) 
NC(=O)[C@H]1CCC(=O)N(Cc2cccc3c2OCO3)C1

>  <path>  (299) 
/opt/xchem-fragalysis-2/maxwin/BulkDock/TARGETS/A71EV2A/aligned_files/A4315a/A4315a.pdb

>  <distance_score>  (299) 
None

>  <energy_score>  (299) 
None

>  <compound>  (299) 
UTPQMVYOLBXEQO-UHFFFAOYSA-N

>  <compound_id>  (299) 
230

>  <target>  (299) 
A71EV2A

>  <tags>  (299) 
['GOOD count', 'MEDIOCRE count', '[Other] S1 site', 'hits', '[Other] S2 site', '[Other] Lactam Series', '[Other] P3 compound design', 'Main status', '[Other] upload_061224', 'BAD count']

>  <inspirations>  (299) 
None

>  <subsites>  (299) 
None

>  <reference>  (299) 


>  <observation_longname>  (299) 
A71EV2A-x4315_A_201_v1

>  <ConformerSites alias>  (299) 
1b - A0911/A/147

>  <CanonSites alias>  (299) 
1 - Active Site

>  <CrystalformSites alias>  (299) 
F1a - A0375/A/201

>  <Quatassemblies alias>  (299) 
A1 - monomer

>  <Crystalforms alias>  (299) 
F1 - A71_2A_open

>  <ConformerSites upload name>  (299) 
1b - A71EV2A-x0911/A/147

>  <CanonSites upload name>  (299) 
1 - A71EV2A-x0911/A/147/1

>  <CrystalformSites upload name>  (299) 
F1a - A71EV2A-x0375/A/201/1

>  <Quatassemblies upload name>  (299) 
A1 - monomer

>  <Crystalforms upload name>  (299) 
F1 - A71_2A_open

>  <ConformerSites short tag>  (299) 
1b - A0911/A/147

>  <CanonSites short tag>  (299) 
1 - A0911/A/147/1

>  <CrystalformSites short tag>  (299) 
F1a - A0375/A/201

>  <Quatassemblies short tag>  (299) 
A1 - monomer

>  <Crystalforms short tag>  (299) 
F1 - A71_2A_open

>  <Centroid res>  (299) 
A71EV2A-x0911/A/133/A_v1

>  <Experiment code>  (299) 
A71EV2A-x4315

>  <Pose>  (299) 
A4315a

$$$$
A4316a
     RDKit          3D

 21 23  0  0  0  0  0  0  0  0999 V2000
    7.3470   16.1450   26.9860 O   0  0  0  0  0  0  0  0  0  0  0  0
    6.6850   15.8410   26.0000 C   0  0  0  0  0  0  0  0  0  0  0  0
    5.4590   16.6430   25.6450 C   0  0  0  0  0  0  0  0  0  0  0  0
    4.6730   16.2140   24.4020 C   0  0  0  0  0  0  0  0  0  0  0  0
    5.4780   15.4500   23.3270 C   0  0  2  0  0  0  0  0  0  0  0  0
    4.5490   14.6050   22.4690 C   0  0  0  0  0  0  0  0  0  0  0  0
    3.3790   14.4030   22.8060 O   0  0  0  0  0  0  0  0  0  0  0  0
    5.0860   14.0450   21.3890 N   0  0  0  0  0  0  0  0  0  0  0  0
    6.2780   14.3460   24.0190 C   0  0  0  0  0  0  0  0  0  0  0  0
    7.0320   14.8060   25.1900 N   0  0  0  0  0  0  0  0  0  0  0  0
    8.2210   14.0100   25.5300 C   0  0  1  0  0  0  0  0  0  0  0  0
    7.9430   12.5280   25.4700 C   0  0  0  0  0  0  0  0  0  0  0  0
    7.0220   11.8040   26.2160 C   0  0  0  0  0  0  0  0  0  0  0  0
    6.9200   10.4370   26.0260 C   0  0  0  0  0  0  0  0  0  0  0  0
    7.7250    9.7860   25.0950 C   0  0  0  0  0  0  0  0  0  0  0  0
    9.4290   14.1840   24.5950 C   0  0  0  0  0  0  0  0  0  0  0  0
    9.6420   12.8670   23.8230 C   0  0  0  0  0  0  0  0  0  0  0  0
    8.7630   11.8890   24.5520 C   0  0  0  0  0  0  0  0  0  0  0  0
    8.6750   10.5050   24.3760 C   0  0  0  0  0  0  0  0  0  0  0  0
    9.6390    9.9510   23.5720 O   0  0  0  0  0  0  0  0  0  0  0  0
    9.5400    8.5680   23.2750 C   0  0  0  0  0  0  0  0  0  0  0  0
 21 20  1  0
 20 19  1  0
 19 15  2  0
 15 14  1  0
 14 13  2  0
 13 12  1  0
 12 18  2  0
 19 18  1  0
 18 17  1  0
 17 16  1  0
 16 11  1  0
 12 11  1  0
 11 10  1  6
 10  9  1  0
  9  5  1  0
  5  6  1  6
  8  6  1  0
  7  6  2  0
  5  4  1  0
  4  3  1  0
  3  2  1  0
 10  2  1  0
  2  1  2  0
M  END
>  <id>  (300) 
300

>  <inchikey>  (300) 
YWUUMOAJEOWLGU-GXFFZTMASA-N

>  <alias>  (300) 
A4316a

>  <smiles>  (300) 
COc1cccc2c1CC[C@H]2N1C[C@@H](C(N)=O)CCC1=O

>  <path>  (300) 
/opt/xchem-fragalysis-2/maxwin/BulkDock/TARGETS/A71EV2A/aligned_files/A4316a/A4316a.pdb

>  <distance_score>  (300) 
None

>  <energy_score>  (300) 
None

>  <compound>  (300) 
YWUUMOAJEOWLGU-UHFFFAOYSA-N

>  <compound_id>  (300) 
231

>  <target>  (300) 
A71EV2A

>  <tags>  (300) 
['GOOD count', 'MEDIOCRE count', '[Other] S1 site', 'hits', '[Other] Lactam Series', '[Other] P3 compound design', '[Other] upload_1 2025-02-12', 'Main status', 'BAD count', '[Other] S3 site']

>  <inspirations>  (300) 
None

>  <subsites>  (300) 
None

>  <reference>  (300) 


>  <observation_longname>  (300) 
A71EV2A-x4316_A_201_v1

>  <ConformerSites alias>  (300) 
1b - A0911/A/147

>  <CanonSites alias>  (300) 
1 - Active Site

>  <CrystalformSites alias>  (300) 
F5i - A3175/A/201

>  <Quatassemblies alias>  (300) 
A1 - monomer

>  <Crystalforms alias>  (300) 
F5 - A71EV2A_x3178_new_long_dials_041024

>  <ConformerSites upload name>  (300) 
1b - A71EV2A-x0911/A/147

>  <CanonSites upload name>  (300) 
1 - A71EV2A-x0911/A/147/1

>  <CrystalformSites upload name>  (300) 
F5i - A71EV2A-x3175/A/201/1

>  <Quatassemblies upload name>  (300) 
A1 - monomer

>  <Crystalforms upload name>  (300) 
F5 - A71EV2A_x3178_new_long_dials_041024

>  <ConformerSites short tag>  (300) 
1b - A0911/A/147

>  <CanonSites short tag>  (300) 
1 - A0911/A/147/1

>  <CrystalformSites short tag>  (300) 
F5i - A3175/A/201

>  <Quatassemblies short tag>  (300) 
A1 - monomer

>  <Crystalforms short tag>  (300) 
F5 - A71EV2A_x3178_new_long_dials_041024

>  <Centroid res>  (300) 
A71EV2A-x0911/A/133/A_v1

>  <Experiment code>  (300) 
A71EV2A-x4316

>  <Pose>  (300) 
A4316a

$$$$
A4317a
     RDKit          3D

 21 23  0  0  0  0  0  0  0  0999 V2000
   10.3940   16.5480   19.2530 O   0  0  0  0  0  0  0  0  0  0  0  0
   10.8390   15.4100   19.4510 C   0  0  0  0  0  0  0  0  0  0  0  0
   11.1610   14.5880   18.4590 N   0  0  0  0  0  0  0  0  0  0  0  0
   10.9680   14.8440   20.8570 C   0  0  2  0  0  0  0  0  0  0  0  0
    9.6080   14.6330   21.5280 C   0  0  0  0  0  0  0  0  0  0  0  0
   11.7260   15.7050   21.8820 C   0  0  0  0  0  0  0  0  0  0  0  0
   11.3010   15.0300   23.2090 C   0  0  0  0  0  0  0  0  0  0  0  0
   11.6480   15.6390   24.5300 C   0  0  0  0  0  0  0  0  0  0  0  0
   12.2610   14.3270   24.1140 C   0  0  0  0  0  0  0  0  0  0  0  0
    9.9570   14.4810   22.9490 N   0  0  0  0  0  0  0  0  0  0  0  0
    9.1360   13.9960   23.9150 C   0  0  0  0  0  0  0  0  0  0  0  0
    9.4460   13.9480   25.0960 O   0  0  0  0  0  0  0  0  0  0  0  0
    7.7760   13.4990   23.4690 C   0  0  0  0  0  0  0  0  0  0  0  0
    7.2460   12.4610   24.4320 C   0  0  0  0  0  0  0  0  0  0  0  0
    7.6360   11.1280   24.3070 C   0  0  0  0  0  0  0  0  0  0  0  0
    8.6070   10.8980   23.3720 O   0  0  0  0  0  0  0  0  0  0  0  0
    9.1190    9.5620   23.2500 C   0  0  0  0  0  0  0  0  0  0  0  0
    6.3050   12.7820   25.4050 C   0  0  0  0  0  0  0  0  0  0  0  0
    5.7340   11.7980   26.2010 C   0  0  0  0  0  0  0  0  0  0  0  0
    6.1030   10.4800   26.0390 C   0  0  0  0  0  0  0  0  0  0  0  0
    7.0460   10.1350   25.0830 C   0  0  0  0  0  0  0  0  0  0  0  0
 17 16  1  0
 16 15  1  0
 15 21  2  0
 21 20  1  0
 20 19  2  0
 19 18  1  0
 18 14  2  0
 15 14  1  0
 14 13  1  0
 13 11  1  0
 12 11  2  0
 11 10  1  0
 10  5  1  0
  5  4  1  0
  4  2  1  6
  3  2  1  0
  2  1  2  0
  6  4  1  0
  7  6  1  0
 10  7  1  0
  7  9  1  0
  9  8  1  0
  8  7  1  0
M  END
>  <id>  (301) 
301

>  <inchikey>  (301) 
APDQHJBCMAYJOC-LBPRGKRZSA-N

>  <alias>  (301) 
A4317a

>  <smiles>  (301) 
COc1ccccc1CC(=O)N1C[C@@H](C(N)=O)CC12CC2

>  <path>  (301) 
/opt/xchem-fragalysis-2/maxwin/BulkDock/TARGETS/A71EV2A/aligned_files/A4317a/A4317a.pdb

>  <distance_score>  (301) 
None

>  <energy_score>  (301) 
None

>  <compound>  (301) 
APDQHJBCMAYJOC-UHFFFAOYSA-N

>  <compound_id>  (301) 
232

>  <target>  (301) 
A71EV2A

>  <tags>  (301) 
['GOOD count', "[Other] S1' site", 'MEDIOCRE count', '[Other] S1 site', 'hits', '[Other] S2 site', '[Other] P3 compound design', '[Series] Piperidine series', 'Main status', '[Other] upload_061224', 'BAD count', '[Other] cyclopropane']

>  <inspirations>  (301) 
None

>  <subsites>  (301) 
None

>  <reference>  (301) 


>  <observation_longname>  (301) 
A71EV2A-x4317_A_201_v1

>  <ConformerSites alias>  (301) 
1b - A0911/A/147

>  <CanonSites alias>  (301) 
1 - Active Site

>  <CrystalformSites alias>  (301) 
F5i - A3175/A/201

>  <Quatassemblies alias>  (301) 
A1 - monomer

>  <Crystalforms alias>  (301) 
F5 - A71EV2A_x3178_new_long_dials_041024

>  <ConformerSites upload name>  (301) 
1b - A71EV2A-x0911/A/147

>  <CanonSites upload name>  (301) 
1 - A71EV2A-x0911/A/147/1

>  <CrystalformSites upload name>  (301) 
F5i - A71EV2A-x3175/A/201/1

>  <Quatassemblies upload name>  (301) 
A1 - monomer

>  <Crystalforms upload name>  (301) 
F5 - A71EV2A_x3178_new_long_dials_041024

>  <ConformerSites short tag>  (301) 
1b - A0911/A/147

>  <CanonSites short tag>  (301) 
1 - A0911/A/147/1

>  <CrystalformSites short tag>  (301) 
F5i - A3175/A/201

>  <Quatassemblies short tag>  (301) 
A1 - monomer

>  <Crystalforms short tag>  (301) 
F5 - A71EV2A_x3178_new_long_dials_041024

>  <Centroid res>  (301) 
A71EV2A-x0911/A/133/A_v1

>  <Experiment code>  (301) 
A71EV2A-x4317

>  <Pose>  (301) 
A4317a

$$$$
A4319a
     RDKit          3D

 22 23  0  0  0  0  0  0  0  0999 V2000
    9.1060    8.5700   23.4950 F   0  0  0  0  0  0  0  0  0  0  0  0
    9.7320    9.6860   23.8570 C   0  0  0  0  0  0  0  0  0  0  0  0
   10.2080    9.8060   22.6100 F   0  0  0  0  0  0  0  0  0  0  0  0
    8.8780   10.7190   23.8350 O   0  0  0  0  0  0  0  0  0  0  0  0
    7.8570   10.9260   24.7310 C   0  0  0  0  0  0  0  0  0  0  0  0
    7.0060    9.9290   25.1800 C   0  0  0  0  0  0  0  0  0  0  0  0
    5.9530   10.2590   26.0190 C   0  0  0  0  0  0  0  0  0  0  0  0
    5.7620   11.5610   26.4130 C   0  0  0  0  0  0  0  0  0  0  0  0
    6.6200   12.5520   25.9740 C   0  0  0  0  0  0  0  0  0  0  0  0
    7.6800   12.2550   25.1230 C   0  0  0  0  0  0  0  0  0  0  0  0
    8.6580   13.3250   24.6960 C   0  0  0  0  0  0  0  0  0  0  0  0
    8.4720   13.7780   23.2560 C   0  0  0  0  0  0  0  0  0  0  0  0
    7.6100   13.2970   22.5360 O   0  0  0  0  0  0  0  0  0  0  0  0
    9.2910   14.7630   22.8320 N   0  0  0  0  0  0  0  0  0  0  0  0
   10.2960   15.4420   23.6660 C   0  0  0  0  0  0  0  0  0  0  0  0
   11.6750   15.3680   23.0380 C   0  0  0  0  0  0  0  0  0  0  0  0
   11.6440   15.8440   21.5800 C   0  0  0  0  0  0  0  0  0  0  0  0
    9.2060   15.2780   21.4610 C   0  0  0  0  0  0  0  0  0  0  0  0
   10.5600   15.1150   20.7690 C   0  0  1  0  0  0  0  0  0  0  0  0
   10.5280   15.5820   19.3240 C   0  0  0  0  0  0  0  0  0  0  0  0
   10.8010   14.8070   18.4030 O   0  0  0  0  0  0  0  0  0  0  0  0
   10.1890   16.8470   19.1230 N   0  0  0  0  0  0  0  0  0  0  0  0
 22 20  1  0
 21 20  2  0
 19 20  1  6
 19 17  1  0
 17 16  1  0
 16 15  1  0
 15 14  1  0
 14 12  1  0
 13 12  2  0
 12 11  1  0
 11 10  1  0
 10  9  2  0
  9  8  1  0
  8  7  2  0
  7  6  1  0
  6  5  2  0
 10  5  1  0
  5  4  1  0
  4  2  1  0
  3  2  1  0
  2  1  1  0
 18 14  1  0
 19 18  1  0
M  END
>  <id>  (302) 
302

>  <inchikey>  (302) 
CNHPUFFRJJADDP-NSHDSACASA-N

>  <alias>  (302) 
A4319a

>  <smiles>  (302) 
NC(=O)[C@H]1CCCN(C(=O)Cc2ccccc2OC(F)F)C1

>  <path>  (302) 
/opt/xchem-fragalysis-2/maxwin/BulkDock/TARGETS/A71EV2A/aligned_files/A4319a/A4319a.pdb

>  <distance_score>  (302) 
None

>  <energy_score>  (302) 
None

>  <compound>  (302) 
CNHPUFFRJJADDP-UHFFFAOYSA-N

>  <compound_id>  (302) 
233

>  <target>  (302) 
A71EV2A

>  <tags>  (302) 
['GOOD count', 'MEDIOCRE count', '[Other] S1 site', 'hits', '[Other] S2 site', '[Other] P3 compound design', '[Other] upload_2 2024-12-12', 'Main status', '[Series] Piperidine series', 'BAD count']

>  <inspirations>  (302) 
None

>  <subsites>  (302) 
None

>  <reference>  (302) 


>  <observation_longname>  (302) 
A71EV2A-x4319_A_201_v1

>  <ConformerSites alias>  (302) 
1b - A0911/A/147

>  <CanonSites alias>  (302) 
1 - Active Site

>  <CrystalformSites alias>  (302) 
F8h - A0884/A/147

>  <Quatassemblies alias>  (302) 
A1 - monomer

>  <Crystalforms alias>  (302) 
F8 - A712A_x4271_2.1_refmac1_1st_ref

>  <ConformerSites upload name>  (302) 
1b - A71EV2A-x0911/A/147

>  <CanonSites upload name>  (302) 
1 - A71EV2A-x0911/A/147/1

>  <CrystalformSites upload name>  (302) 
F8h - A71EV2A-x0884/A/147/1

>  <Quatassemblies upload name>  (302) 
A1 - monomer

>  <Crystalforms upload name>  (302) 
F8 - A712A_x4271_2.1_refmac1_1st_ref

>  <ConformerSites short tag>  (302) 
1b - A0911/A/147

>  <CanonSites short tag>  (302) 
1 - A0911/A/147/1

>  <CrystalformSites short tag>  (302) 
F8h - A0884/A/147

>  <Quatassemblies short tag>  (302) 
A1 - monomer

>  <Crystalforms short tag>  (302) 
F8 - A712A_x4271_2.1_refmac1_1st_ref

>  <Centroid res>  (302) 
A71EV2A-x0911/A/133/A_v1

>  <Experiment code>  (302) 
A71EV2A-x4319

>  <Pose>  (302) 
A4319a

$$$$
A4320a
     RDKit          3D

 23 25  0  0  0  0  0  0  0  0999 V2000
    2.7550   12.4380   28.9830 O   0  0  0  0  0  0  0  0  0  0  0  0
    3.5940   12.6200   28.1000 C   0  0  0  0  0  0  0  0  0  0  0  0
    4.6610   11.8060   27.9660 N   0  0  0  0  0  0  0  0  0  0  0  0
    5.6700   11.9610   27.0140 C   0  0  0  0  0  0  0  0  0  0  0  0
    6.5210   10.9040   26.6950 C   0  0  0  0  0  0  0  0  0  0  0  0
    7.5190   11.0780   25.7550 C   0  0  0  0  0  0  0  0  0  0  0  0
    3.4920   13.7570   27.1210 C   0  0  0  0  0  0  0  0  0  0  0  0
    4.8410   14.3070   26.6740 C   0  0  0  0  0  0  0  0  0  0  0  0
    5.8160   13.1960   26.3670 C   0  0  0  0  0  0  0  0  0  0  0  0
    6.8330   13.3410   25.4230 C   0  0  0  0  0  0  0  0  0  0  0  0
    7.6950   12.2940   25.1070 C   0  0  0  0  0  0  0  0  0  0  0  0
    8.8250   12.4920   24.1140 C   0  0  0  0  0  0  0  0  0  0  0  0
    8.4650   13.4330   22.9760 C   0  0  0  0  0  0  0  0  0  0  0  0
    7.4490   13.2710   22.3400 O   0  0  0  0  0  0  0  0  0  0  0  0
    9.3410   14.4060   22.6580 N   0  0  0  0  0  0  0  0  0  0  0  0
   10.5410   14.7400   23.4400 C   0  0  0  0  0  0  0  0  0  0  0  0
   11.6470   15.4080   22.5870 C   0  0  0  0  0  0  0  0  0  0  0  0
   11.7710   14.7720   21.2110 C   0  0  0  0  0  0  0  0  0  0  0  0
    9.2410   15.0830   21.3630 C   0  0  0  0  0  0  0  0  0  0  0  0
   10.4110   14.5950   20.5270 C   0  0  1  0  0  0  0  0  0  0  0  0
   10.4880   15.1340   19.1140 C   0  0  0  0  0  0  0  0  0  0  0  0
    9.9460   16.1970   18.8030 O   0  0  0  0  0  0  0  0  0  0  0  0
   11.2470   14.4360   18.2990 N   0  0  0  0  0  0  0  0  0  0  0  0
 23 21  1  0
 22 21  2  0
 20 21  1  6
 20 18  1  0
 18 17  1  0
 17 16  1  0
 16 15  1  0
 15 13  1  0
 14 13  2  0
 13 12  1  0
 12 11  1  0
 11  6  2  0
  6  5  1  0
  5  4  2  0
  4  9  1  0
 10  9  2  0
 11 10  1  0
  9  8  1  0
  8  7  1  0
  7  2  1  0
  2  1  2  0
  3  2  1  0
  4  3  1  0
 19 15  1  0
 20 19  1  0
M  END
>  <id>  (303) 
303

>  <inchikey>  (303) 
HFCZUIHMPUCWLX-ZDUSSCGKSA-N

>  <alias>  (303) 
A4320a

>  <smiles>  (303) 
NC(=O)[C@H]1CCCN(C(=O)Cc2ccc3c(c2)CCC(=O)N3)C1

>  <path>  (303) 
/opt/xchem-fragalysis-2/maxwin/BulkDock/TARGETS/A71EV2A/aligned_files/A4320a/A4320a.pdb

>  <distance_score>  (303) 
None

>  <energy_score>  (303) 
None

>  <compound>  (303) 
HFCZUIHMPUCWLX-UHFFFAOYSA-N

>  <compound_id>  (303) 
234

>  <target>  (303) 
A71EV2A

>  <tags>  (303) 
['GOOD count', 'MEDIOCRE count', '[Other] S1 site', 'hits', '[Other] S2 site', '[Other] P3 compound design', '[Other] upload_1 2025-02-12', 'Main status', '[Series] Piperidine series', 'BAD count']

>  <inspirations>  (303) 
None

>  <subsites>  (303) 
None

>  <reference>  (303) 


>  <observation_longname>  (303) 
A71EV2A-x4320_A_201_v1

>  <ConformerSites alias>  (303) 
1b - A0911/A/147

>  <CanonSites alias>  (303) 
1 - Active Site

>  <CrystalformSites alias>  (303) 
F5i - A3175/A/201

>  <Quatassemblies alias>  (303) 
A1 - monomer

>  <Crystalforms alias>  (303) 
F5 - A71EV2A_x3178_new_long_dials_041024

>  <ConformerSites upload name>  (303) 
1b - A71EV2A-x0911/A/147

>  <CanonSites upload name>  (303) 
1 - A71EV2A-x0911/A/147/1

>  <CrystalformSites upload name>  (303) 
F5i - A71EV2A-x3175/A/201/1

>  <Quatassemblies upload name>  (303) 
A1 - monomer

>  <Crystalforms upload name>  (303) 
F5 - A71EV2A_x3178_new_long_dials_041024

>  <ConformerSites short tag>  (303) 
1b - A0911/A/147

>  <CanonSites short tag>  (303) 
1 - A0911/A/147/1

>  <CrystalformSites short tag>  (303) 
F5i - A3175/A/201

>  <Quatassemblies short tag>  (303) 
A1 - monomer

>  <Crystalforms short tag>  (303) 
F5 - A71EV2A_x3178_new_long_dials_041024

>  <Centroid res>  (303) 
A71EV2A-x0911/A/133/A_v1

>  <Experiment code>  (303) 
A71EV2A-x4320

>  <Pose>  (303) 
A4320a

$$$$
A4321a
     RDKit          3D

 21 22  0  0  0  0  0  0  0  0999 V2000
   10.3900   16.7560   19.1480 O   0  0  0  0  0  0  0  0  0  0  0  0
   10.7140   15.5890   19.3960 C   0  0  0  0  0  0  0  0  0  0  0  0
   10.9730   14.6950   18.4470 N   0  0  0  0  0  0  0  0  0  0  0  0
   10.7750   15.0810   20.8260 C   0  0  1  0  0  0  0  0  0  0  0  0
   11.9240   15.7330   21.6150 C   0  0  0  0  0  0  0  0  0  0  0  0
   11.9380   15.2400   23.0670 C   0  0  0  0  0  0  0  0  0  0  0  0
   10.5670   15.4220   23.7190 C   0  0  0  0  0  0  0  0  0  0  0  0
    9.4290   15.2930   21.5260 C   0  0  0  0  0  0  0  0  0  0  0  0
    9.5040   14.8050   22.9060 N   0  0  0  0  0  0  0  0  0  0  0  0
    8.6480   13.8520   23.3380 C   0  0  0  0  0  0  0  0  0  0  0  0
    7.8090   13.3550   22.6050 O   0  0  0  0  0  0  0  0  0  0  0  0
    8.7570   13.4470   24.7970 C   0  0  0  0  0  0  0  0  0  0  0  0
    7.8190   12.3150   25.1570 C   0  0  0  0  0  0  0  0  0  0  0  0
    8.0840   10.9860   24.7970 C   0  0  0  0  0  0  0  0  0  0  0  0
    9.3430   10.6160   24.0330 C   0  0  0  0  0  0  0  0  0  0  0  0
    9.4560    9.1810   23.7870 C   0  0  0  0  0  0  0  0  0  0  0  0
    9.5270    8.0680   23.5790 N   0  0  0  0  0  0  0  0  0  0  0  0
    6.6880   12.5930   25.9210 C   0  0  0  0  0  0  0  0  0  0  0  0
    5.8430   11.5800   26.3440 C   0  0  0  0  0  0  0  0  0  0  0  0
    6.1020   10.2840   25.9890 C   0  0  0  0  0  0  0  0  0  0  0  0
    7.2070    9.9860   25.2040 C   0  0  0  0  0  0  0  0  0  0  0  0
 17 16  3  0
 16 15  1  0
 15 14  1  0
 14 21  2  0
 21 20  1  0
 20 19  2  0
 19 18  1  0
 18 13  2  0
 14 13  1  0
 13 12  1  0
 12 10  1  0
 11 10  2  0
 10  9  1  0
  9  7  1  0
  7  6  1  0
  6  5  1  0
  5  4  1  0
  4  2  1  6
  3  2  1  0
  2  1  2  0
  8  4  1  0
  9  8  1  0
M  END
>  <id>  (304) 
304

>  <inchikey>  (304) 
SPTOPDLRNCGQBI-AWEZNQCLSA-N

>  <alias>  (304) 
A4321a

>  <smiles>  (304) 
N#CCc1ccccc1CC(=O)N1CCC[C@H](C(N)=O)C1

>  <path>  (304) 
/opt/xchem-fragalysis-2/maxwin/BulkDock/TARGETS/A71EV2A/aligned_files/A4321a/A4321a_hippo.pdb

>  <distance_score>  (304) 
None

>  <energy_score>  (304) 
None

>  <compound>  (304) 
SPTOPDLRNCGQBI-UHFFFAOYSA-N

>  <compound_id>  (304) 
235

>  <target>  (304) 
A71EV2A

>  <tags>  (304) 
['GOOD count', 'MEDIOCRE count', '[Other] S1 site', 'hits', '[Other] S2 site', '[Other] P3 compound design', '[Other] upload_2 2024-12-12', 'Main status', '[Series] Piperidine series', 'BAD count']

>  <inspirations>  (304) 
None

>  <subsites>  (304) 
None

>  <reference>  (304) 


>  <observation_longname>  (304) 
A71EV2A-x4321_A_201_v1

>  <ConformerSites alias>  (304) 
1b - A0911/A/147

>  <CanonSites alias>  (304) 
1 - Active Site

>  <CrystalformSites alias>  (304) 
F7q - A4303/A/201

>  <Quatassemblies alias>  (304) 
A1 - monomer

>  <Crystalforms alias>  (304) 
F7 - A712A_x4207_8.1_refmac1_1st_ref

>  <ConformerSites upload name>  (304) 
1b - A71EV2A-x0911/A/147

>  <CanonSites upload name>  (304) 
1 - A71EV2A-x0911/A/147/1

>  <CrystalformSites upload name>  (304) 
F7q - A71EV2A-x4303/A/201/1

>  <Quatassemblies upload name>  (304) 
A1 - monomer

>  <Crystalforms upload name>  (304) 
F7 - A712A_x4207_8.1_refmac1_1st_ref

>  <ConformerSites short tag>  (304) 
1b - A0911/A/147

>  <CanonSites short tag>  (304) 
1 - A0911/A/147/1

>  <CrystalformSites short tag>  (304) 
F7q - A4303/A/201

>  <Quatassemblies short tag>  (304) 
A1 - monomer

>  <Crystalforms short tag>  (304) 
F7 - A712A_x4207_8.1_refmac1_1st_ref

>  <Centroid res>  (304) 
A71EV2A-x0911/A/133/A_v1

>  <Experiment code>  (304) 
A71EV2A-x4321

>  <Pose>  (304) 
A4321a

$$$$
A4321b
     RDKit          3D

 21 22  0  0  0  0  0  0  0  0999 V2000
   10.4320   16.7650   19.1570 O   0  0  0  0  0  0  0  0  0  0  0  0
   10.7760   15.5980   19.3930 C   0  0  0  0  0  0  0  0  0  0  0  0
   11.0030   14.7010   18.4370 N   0  0  0  0  0  0  0  0  0  0  0  0
   10.9010   15.0950   20.8220 C   0  0  1  0  0  0  0  0  0  0  0  0
   12.0500   15.7970   21.5660 C   0  0  0  0  0  0  0  0  0  0  0  0
   12.1110   15.3520   23.0310 C   0  0  0  0  0  0  0  0  0  0  0  0
   10.7440   15.5140   23.7200 C   0  0  0  0  0  0  0  0  0  0  0  0
    9.5780   15.2810   21.5630 C   0  0  0  0  0  0  0  0  0  0  0  0
    9.6920   14.8270   22.9530 N   0  0  0  0  0  0  0  0  0  0  0  0
    8.8810   13.8470   23.4200 C   0  0  0  0  0  0  0  0  0  0  0  0
    8.0210   13.3210   22.7170 O   0  0  0  0  0  0  0  0  0  0  0  0
    9.0740   13.4330   24.8710 C   0  0  0  0  0  0  0  0  0  0  0  0
    8.1580   12.2940   25.2780 C   0  0  0  0  0  0  0  0  0  0  0  0
    8.3980   10.9670   24.8850 C   0  0  0  0  0  0  0  0  0  0  0  0
    9.6270   10.5990   24.0780 C   0  0  0  0  0  0  0  0  0  0  0  0
    9.7220    9.1660   23.8080 C   0  0  0  0  0  0  0  0  0  0  0  0
    9.7820    8.0570   23.5800 N   0  0  0  0  0  0  0  0  0  0  0  0
    7.0650   12.5660   26.0970 C   0  0  0  0  0  0  0  0  0  0  0  0
    6.2210   11.5520   26.5190 C   0  0  0  0  0  0  0  0  0  0  0  0
    6.4490   10.2560   26.1230 C   0  0  0  0  0  0  0  0  0  0  0  0
    7.5250    9.9630   25.3030 C   0  0  0  0  0  0  0  0  0  0  0  0
 17 16  3  0
 16 15  1  0
 15 14  1  0
 14 21  2  0
 21 20  1  0
 20 19  2  0
 19 18  1  0
 18 13  2  0
 14 13  1  0
 13 12  1  0
 12 10  1  0
 11 10  2  0
 10  9  1  0
  9  7  1  0
  7  6  1  0
  6  5  1  0
  5  4  1  0
  4  2  1  6
  3  2  1  0
  2  1  2  0
  8  4  1  0
  9  8  1  0
M  END
>  <id>  (305) 
305

>  <inchikey>  (305) 
SPTOPDLRNCGQBI-AWEZNQCLSA-N

>  <alias>  (305) 
A4321b

>  <smiles>  (305) 
N#CCc1ccccc1CC(=O)N1CCC[C@H](C(N)=O)C1

>  <path>  (305) 
/opt/xchem-fragalysis-2/maxwin/BulkDock/TARGETS/A71EV2A/aligned_files/A4321b/A4321b_hippo.pdb

>  <distance_score>  (305) 
None

>  <energy_score>  (305) 
None

>  <compound>  (305) 
SPTOPDLRNCGQBI-UHFFFAOYSA-N

>  <compound_id>  (305) 
235

>  <target>  (305) 
A71EV2A

>  <tags>  (305) 
['GOOD count', 'MEDIOCRE count', '[Other] S1 site', 'hits', '[Other] S2 site', '[Other] P3 compound design', '[Other] upload_2 2024-12-12', 'Main status', '[Series] Piperidine series', 'BAD count']

>  <inspirations>  (305) 
None

>  <subsites>  (305) 
None

>  <reference>  (305) 


>  <observation_longname>  (305) 
A71EV2A-x4321_C_201_v1

>  <ConformerSites alias>  (305) 
1b - A0911/A/147

>  <CanonSites alias>  (305) 
1 - Active Site

>  <CrystalformSites alias>  (305) 
F7r - A4303/C/201

>  <Quatassemblies alias>  (305) 
A1 - monomer

>  <Crystalforms alias>  (305) 
F7 - A712A_x4207_8.1_refmac1_1st_ref

>  <ConformerSites upload name>  (305) 
1b - A71EV2A-x0911/A/147

>  <CanonSites upload name>  (305) 
1 - A71EV2A-x0911/A/147/1

>  <CrystalformSites upload name>  (305) 
F7r - A71EV2A-x4303/C/201/1

>  <Quatassemblies upload name>  (305) 
A1 - monomer

>  <Crystalforms upload name>  (305) 
F7 - A712A_x4207_8.1_refmac1_1st_ref

>  <ConformerSites short tag>  (305) 
1b - A0911/A/147

>  <CanonSites short tag>  (305) 
1 - A0911/A/147/1

>  <CrystalformSites short tag>  (305) 
F7r - A4303/C/201

>  <Quatassemblies short tag>  (305) 
A1 - monomer

>  <Crystalforms short tag>  (305) 
F7 - A712A_x4207_8.1_refmac1_1st_ref

>  <Centroid res>  (305) 
A71EV2A-x0911/A/133/A_v1

>  <Experiment code>  (305) 
A71EV2A-x4321

>  <Pose>  (305) 
A4321a

$$$$
A4322a
     RDKit          3D

 22 23  0  0  0  0  0  0  0  0999 V2000
   10.2430   16.5710   18.7840 O   0  0  0  0  0  0  0  0  0  0  0  0
   10.6470   15.4610   19.1510 C   0  0  0  0  0  0  0  0  0  0  0  0
   11.1500   14.5600   18.3170 N   0  0  0  0  0  0  0  0  0  0  0  0
   10.5000   15.0190   20.5950 C   0  0  1  0  0  0  0  0  0  0  0  0
   11.7140   15.4090   21.4670 C   0  0  0  0  0  0  0  0  0  0  0  0
   11.6100   14.7520   22.8470 C   0  0  0  0  0  0  0  0  0  0  0  0
   10.2540   15.0360   23.5010 C   0  0  0  0  0  0  0  0  0  0  0  0
    9.2240   15.4630   21.2940 C   0  0  0  0  0  0  0  0  0  0  0  0
    9.1370   14.7660   22.5800 N   0  0  0  0  0  0  0  0  0  0  0  0
    8.1150   13.9200   22.8240 C   0  0  0  0  0  0  0  0  0  0  0  0
    7.2690   13.6650   21.9820 O   0  0  0  0  0  0  0  0  0  0  0  0
    7.9870   13.4060   24.2450 C   0  0  0  0  0  0  0  0  0  0  0  0
    8.3860   11.9520   24.3450 C   0  0  0  0  0  0  0  0  0  0  0  0
    9.4330   11.4660   23.5650 C   0  0  0  0  0  0  0  0  0  0  0  0
    9.6720   10.1040   23.4660 C   0  0  0  0  0  0  0  0  0  0  0  0
    8.8590    9.2170   24.1190 C   0  0  0  0  0  0  0  0  0  0  0  0
    7.8430    9.6740   24.9440 C   0  0  0  0  0  0  0  0  0  0  0  0
    7.6260   11.0400   25.0880 C   0  0  0  0  0  0  0  0  0  0  0  0
    6.6870   11.5480   26.0210 N   0  0  0  0  0  0  0  0  0  0  0  0
    5.4550   11.0590   26.3390 C   0  0  0  0  0  0  0  0  0  0  0  0
    5.0130   10.0030   25.8760 O   0  0  0  0  0  0  0  0  0  0  0  0
    4.6410   11.9330   27.2540 C   0  0  0  0  0  0  0  0  0  0  0  0
 22 20  1  0
 21 20  2  0
 20 19  1  0
 19 18  1  0
 18 17  1  0
 17 16  2  0
 16 15  1  0
 15 14  2  0
 14 13  1  0
 18 13  2  0
 13 12  1  0
 12 10  1  0
 11 10  2  0
 10  9  1  0
  9  7  1  0
  7  6  1  0
  6  5  1  0
  5  4  1  0
  4  2  1  6
  3  2  1  0
  2  1  2  0
  8  4  1  0
  9  8  1  0
M  END
>  <id>  (306) 
306

>  <inchikey>  (306) 
CQOBSIHMSYPJCZ-ZDUSSCGKSA-N

>  <alias>  (306) 
A4322a

>  <smiles>  (306) 
CC(=O)Nc1ccccc1CC(=O)N1CCC[C@H](C(N)=O)C1

>  <path>  (306) 
/opt/xchem-fragalysis-2/maxwin/BulkDock/TARGETS/A71EV2A/aligned_files/A4322a/A4322a.pdb

>  <distance_score>  (306) 
None

>  <energy_score>  (306) 
None

>  <compound>  (306) 
CQOBSIHMSYPJCZ-UHFFFAOYSA-N

>  <compound_id>  (306) 
236

>  <target>  (306) 
A71EV2A

>  <tags>  (306) 
['GOOD count', 'MEDIOCRE count', '[Other] S1 site', 'hits', '[Other] S2 site', '[Other] P3 compound design', '[Other] upload_1 2025-02-12', 'Main status', '[Series] Piperidine series', 'BAD count']

>  <inspirations>  (306) 
None

>  <subsites>  (306) 
None

>  <reference>  (306) 


>  <observation_longname>  (306) 
A71EV2A-x4322_A_201_v1

>  <ConformerSites alias>  (306) 
1b - A0911/A/147

>  <CanonSites alias>  (306) 
1 - Active Site

>  <CrystalformSites alias>  (306) 
F5i - A3175/A/201

>  <Quatassemblies alias>  (306) 
A1 - monomer

>  <Crystalforms alias>  (306) 
F5 - A71EV2A_x3178_new_long_dials_041024

>  <ConformerSites upload name>  (306) 
1b - A71EV2A-x0911/A/147

>  <CanonSites upload name>  (306) 
1 - A71EV2A-x0911/A/147/1

>  <CrystalformSites upload name>  (306) 
F5i - A71EV2A-x3175/A/201/1

>  <Quatassemblies upload name>  (306) 
A1 - monomer

>  <Crystalforms upload name>  (306) 
F5 - A71EV2A_x3178_new_long_dials_041024

>  <ConformerSites short tag>  (306) 
1b - A0911/A/147

>  <CanonSites short tag>  (306) 
1 - A0911/A/147/1

>  <CrystalformSites short tag>  (306) 
F5i - A3175/A/201

>  <Quatassemblies short tag>  (306) 
A1 - monomer

>  <Crystalforms short tag>  (306) 
F5 - A71EV2A_x3178_new_long_dials_041024

>  <Centroid res>  (306) 
A71EV2A-x0911/A/133/A_v1

>  <Experiment code>  (306) 
A71EV2A-x4322

>  <Pose>  (306) 
A4322a

$$$$
A4324a
     RDKit          3D

 20 22  0  0  0  0  0  0  0  0999 V2000
   11.6820   14.6640   24.9090 O   0  0  0  0  0  0  0  0  0  0  0  0
   11.5450   14.7550   23.6900 C   0  0  0  0  0  0  0  0  0  0  0  0
   12.7140   15.1440   22.8220 C   0  0  0  0  0  0  0  0  0  0  0  0
   12.3750   15.6640   21.4190 C   0  0  0  0  0  0  0  0  0  0  0  0
   10.3370   14.6180   23.0850 N   0  0  0  0  0  0  0  0  0  0  0  0
   10.0060   14.8770   21.6760 C   0  0  0  0  0  0  0  0  0  0  0  0
   11.2510   14.8370   20.7850 C   0  0  1  0  0  0  0  0  0  0  0  0
   10.9210   15.2980   19.3740 C   0  0  0  0  0  0  0  0  0  0  0  0
   10.3510   16.3810   19.1690 O   0  0  0  0  0  0  0  0  0  0  0  0
   11.2030   14.4380   18.4070 N   0  0  0  0  0  0  0  0  0  0  0  0
    9.1630   14.3020   23.8990 C   0  0  0  0  0  0  0  0  0  0  0  0
    8.9010   12.8250   24.0810 C   0  0  0  0  0  0  0  0  0  0  0  0
    7.8750   12.4180   24.9380 C   0  0  0  0  0  0  0  0  0  0  0  0
    7.0230   13.2630   25.6120 O   0  0  0  0  0  0  0  0  0  0  0  0
    6.0840   12.4160   26.3560 C   0  0  0  0  0  0  0  0  0  0  0  0
    6.5310   10.9550   26.1890 C   0  0  0  0  0  0  0  0  0  0  0  0
    7.6460   11.0770   25.1820 C   0  0  0  0  0  0  0  0  0  0  0  0
    8.4260   10.1120   24.5530 C   0  0  0  0  0  0  0  0  0  0  0  0
    9.4090   10.4930   23.6630 C   0  0  0  0  0  0  0  0  0  0  0  0
    9.6550   11.8400   23.4390 C   0  0  0  0  0  0  0  0  0  0  0  0
 10  8  1  0
  9  8  2  0
  7  8  1  6
  7  4  1  0
  4  3  1  0
  3  2  1  0
  2  1  2  0
  5  2  1  0
 11  5  1  0
 12 11  1  0
 12 20  2  0
 20 19  1  0
 19 18  2  0
 18 17  1  0
 17 13  2  0
 13 12  1  0
 14 13  1  0
 15 14  1  0
 16 15  1  0
 17 16  1  0
  6  5  1  0
  7  6  1  0
M  END
>  <id>  (307) 
307

>  <inchikey>  (307) 
AFDMLMKWXCGILH-LBPRGKRZSA-N

>  <alias>  (307) 
A4324a

>  <smiles>  (307) 
NC(=O)[C@H]1CCC(=O)N(Cc2cccc3c2OCC3)C1

>  <path>  (307) 
/opt/xchem-fragalysis-2/maxwin/BulkDock/TARGETS/A71EV2A/aligned_files/A4324a/A4324a.pdb

>  <distance_score>  (307) 
None

>  <energy_score>  (307) 
None

>  <compound>  (307) 
AFDMLMKWXCGILH-UHFFFAOYSA-N

>  <compound_id>  (307) 
237

>  <target>  (307) 
A71EV2A

>  <tags>  (307) 
['GOOD count', 'MEDIOCRE count', '[Other] S1 site', 'hits', '[Other] S2 site', '[Other] Lactam Series', '[Other] P3 compound design', '[Other] upload_2 2024-12-12', 'Main status', 'BAD count']

>  <inspirations>  (307) 
None

>  <subsites>  (307) 
None

>  <reference>  (307) 


>  <observation_longname>  (307) 
A71EV2A-x4324_A_201_v1

>  <ConformerSites alias>  (307) 
1b - A0911/A/147

>  <CanonSites alias>  (307) 
1 - Active Site

>  <CrystalformSites alias>  (307) 
F1a - A0375/A/201

>  <Quatassemblies alias>  (307) 
A1 - monomer

>  <Crystalforms alias>  (307) 
F1 - A71_2A_open

>  <ConformerSites upload name>  (307) 
1b - A71EV2A-x0911/A/147

>  <CanonSites upload name>  (307) 
1 - A71EV2A-x0911/A/147/1

>  <CrystalformSites upload name>  (307) 
F1a - A71EV2A-x0375/A/201/1

>  <Quatassemblies upload name>  (307) 
A1 - monomer

>  <Crystalforms upload name>  (307) 
F1 - A71_2A_open

>  <ConformerSites short tag>  (307) 
1b - A0911/A/147

>  <CanonSites short tag>  (307) 
1 - A0911/A/147/1

>  <CrystalformSites short tag>  (307) 
F1a - A0375/A/201

>  <Quatassemblies short tag>  (307) 
A1 - monomer

>  <Crystalforms short tag>  (307) 
F1 - A71_2A_open

>  <Centroid res>  (307) 
A71EV2A-x0911/A/133/A_v1

>  <Experiment code>  (307) 
A71EV2A-x4324

>  <Pose>  (307) 
A4324a

$$$$
A4331a
     RDKit          3D

 20 21  0  0  0  0  0  0  0  0999 V2000
   10.3900   16.6700   19.1820 O   0  0  0  0  0  0  0  0  0  0  0  0
   10.7360   15.5110   19.4360 C   0  0  0  0  0  0  0  0  0  0  0  0
   11.0280   14.6230   18.4940 N   0  0  0  0  0  0  0  0  0  0  0  0
   10.7800   15.0020   20.8680 C   0  0  1  0  0  0  0  0  0  0  0  0
   11.8980   15.6810   21.6880 C   0  0  0  0  0  0  0  0  0  0  0  0
   11.9190   15.1450   23.1250 C   0  0  0  0  0  0  0  0  0  0  0  0
   10.5450   15.2800   23.7800 C   0  0  0  0  0  0  0  0  0  0  0  0
    9.4340   15.2130   21.5770 C   0  0  0  0  0  0  0  0  0  0  0  0
    9.4880   14.6820   22.9410 N   0  0  0  0  0  0  0  0  0  0  0  0
    8.6260   13.7250   23.3540 C   0  0  0  0  0  0  0  0  0  0  0  0
    7.7820   13.2410   22.6090 O   0  0  0  0  0  0  0  0  0  0  0  0
    8.7500   13.2780   24.8000 C   0  0  0  0  0  0  0  0  0  0  0  0
    7.7870   12.1660   25.1510 C   0  0  0  0  0  0  0  0  0  0  0  0
    8.0110   10.8310   24.7630 C   0  0  0  0  0  0  0  0  0  0  0  0
    9.2700   10.4120   24.0200 C   0  0  0  0  0  0  0  0  0  0  0  0
    9.3670    8.9500   23.6050 C   0  0  0  0  0  0  0  0  0  0  0  0
    6.6710   12.4690   25.9320 C   0  0  0  0  0  0  0  0  0  0  0  0
    5.7840   11.4780   26.3240 C   0  0  0  0  0  0  0  0  0  0  0  0
    5.9880   10.1810   25.9220 C   0  0  0  0  0  0  0  0  0  0  0  0
    7.0890    9.8580   25.1420 C   0  0  0  0  0  0  0  0  0  0  0  0
 16 15  1  0
 15 14  1  0
 14 20  2  0
 20 19  1  0
 19 18  2  0
 18 17  1  0
 17 13  2  0
 14 13  1  0
 13 12  1  0
 12 10  1  0
 11 10  2  0
 10  9  1  0
  9  7  1  0
  7  6  1  0
  6  5  1  0
  5  4  1  0
  4  2  1  6
  3  2  1  0
  2  1  2  0
  8  4  1  0
  9  8  1  0
M  END
>  <id>  (308) 
308

>  <inchikey>  (308) 
IFJNGSWSPUXOCR-AWEZNQCLSA-N

>  <alias>  (308) 
A4331a

>  <smiles>  (308) 
CCc1ccccc1CC(=O)N1CCC[C@H](C(N)=O)C1

>  <path>  (308) 
/opt/xchem-fragalysis-2/maxwin/BulkDock/TARGETS/A71EV2A/aligned_files/A4331a/A4331a_hippo.pdb

>  <distance_score>  (308) 
None

>  <energy_score>  (308) 
None

>  <compound>  (308) 
IFJNGSWSPUXOCR-UHFFFAOYSA-N

>  <compound_id>  (308) 
238

>  <target>  (308) 
A71EV2A

>  <tags>  (308) 
['GOOD count', 'MEDIOCRE count', '[Other] S1 site', 'hits', '[Other] S2 site', '[Other] P3 compound design', '[Other] upload_2 2024-12-12', 'Main status', '[Series] Piperidine series', 'BAD count']

>  <inspirations>  (308) 
None

>  <subsites>  (308) 
None

>  <reference>  (308) 


>  <observation_longname>  (308) 
A71EV2A-x4331_A_201_v1

>  <ConformerSites alias>  (308) 
1b - A0911/A/147

>  <CanonSites alias>  (308) 
1 - Active Site

>  <CrystalformSites alias>  (308) 
F7q - A4303/A/201

>  <Quatassemblies alias>  (308) 
A1 - monomer

>  <Crystalforms alias>  (308) 
F7 - A712A_x4207_8.1_refmac1_1st_ref

>  <ConformerSites upload name>  (308) 
1b - A71EV2A-x0911/A/147

>  <CanonSites upload name>  (308) 
1 - A71EV2A-x0911/A/147/1

>  <CrystalformSites upload name>  (308) 
F7q - A71EV2A-x4303/A/201/1

>  <Quatassemblies upload name>  (308) 
A1 - monomer

>  <Crystalforms upload name>  (308) 
F7 - A712A_x4207_8.1_refmac1_1st_ref

>  <ConformerSites short tag>  (308) 
1b - A0911/A/147

>  <CanonSites short tag>  (308) 
1 - A0911/A/147/1

>  <CrystalformSites short tag>  (308) 
F7q - A4303/A/201

>  <Quatassemblies short tag>  (308) 
A1 - monomer

>  <Crystalforms short tag>  (308) 
F7 - A712A_x4207_8.1_refmac1_1st_ref

>  <Centroid res>  (308) 
A71EV2A-x0911/A/133/A_v1

>  <Experiment code>  (308) 
A71EV2A-x4331

>  <Pose>  (308) 
A4331a

$$$$
A4331b
     RDKit          3D

 20 21  0  0  0  0  0  0  0  0999 V2000
   10.5010   16.7820   19.1570 O   0  0  0  0  0  0  0  0  0  0  0  0
   10.8430   15.6100   19.3500 C   0  0  0  0  0  0  0  0  0  0  0  0
   11.1290   14.7650   18.3680 N   0  0  0  0  0  0  0  0  0  0  0  0
   10.9630   15.0490   20.7570 C   0  0  1  0  0  0  0  0  0  0  0  0
   12.0890   15.7410   21.5510 C   0  0  0  0  0  0  0  0  0  0  0  0
   12.1000   15.3240   23.0280 C   0  0  0  0  0  0  0  0  0  0  0  0
   10.7070   15.4390   23.6540 C   0  0  0  0  0  0  0  0  0  0  0  0
    9.6180   15.2500   21.4620 C   0  0  0  0  0  0  0  0  0  0  0  0
    9.6980   14.7480   22.8350 N   0  0  0  0  0  0  0  0  0  0  0  0
    8.8530   13.7910   23.2880 C   0  0  0  0  0  0  0  0  0  0  0  0
    7.9670   13.3230   22.5880 O   0  0  0  0  0  0  0  0  0  0  0  0
    9.0270   13.3440   24.7300 C   0  0  0  0  0  0  0  0  0  0  0  0
    8.0470   12.2550   25.1210 C   0  0  0  0  0  0  0  0  0  0  0  0
    8.2190   10.9160   24.7240 C   0  0  0  0  0  0  0  0  0  0  0  0
    9.4040   10.4840   23.8790 C   0  0  0  0  0  0  0  0  0  0  0  0
    9.5350    9.0120   23.5310 C   0  0  0  0  0  0  0  0  0  0  0  0
    6.9840   12.5790   25.9620 C   0  0  0  0  0  0  0  0  0  0  0  0
    6.1020   11.6090   26.4070 C   0  0  0  0  0  0  0  0  0  0  0  0
    6.2610   10.3010   26.0080 C   0  0  0  0  0  0  0  0  0  0  0  0
    7.3090    9.9550   25.1690 C   0  0  0  0  0  0  0  0  0  0  0  0
 16 15  1  0
 15 14  1  0
 14 20  2  0
 20 19  1  0
 19 18  2  0
 18 17  1  0
 17 13  2  0
 14 13  1  0
 13 12  1  0
 12 10  1  0
 11 10  2  0
 10  9  1  0
  9  7  1  0
  7  6  1  0
  6  5  1  0
  5  4  1  0
  4  2  1  6
  3  2  1  0
  2  1  2  0
  8  4  1  0
  9  8  1  0
M  END
>  <id>  (309) 
309

>  <inchikey>  (309) 
IFJNGSWSPUXOCR-AWEZNQCLSA-N

>  <alias>  (309) 
A4331b

>  <smiles>  (309) 
CCc1ccccc1CC(=O)N1CCC[C@H](C(N)=O)C1

>  <path>  (309) 
/opt/xchem-fragalysis-2/maxwin/BulkDock/TARGETS/A71EV2A/aligned_files/A4331b/A4331b_hippo.pdb

>  <distance_score>  (309) 
None

>  <energy_score>  (309) 
None

>  <compound>  (309) 
IFJNGSWSPUXOCR-UHFFFAOYSA-N

>  <compound_id>  (309) 
238

>  <target>  (309) 
A71EV2A

>  <tags>  (309) 
['GOOD count', 'MEDIOCRE count', '[Other] S1 site', 'hits', '[Other] S2 site', '[Other] P3 compound design', '[Other] upload_2 2024-12-12', 'Main status', '[Series] Piperidine series', 'BAD count']

>  <inspirations>  (309) 
None

>  <subsites>  (309) 
None

>  <reference>  (309) 


>  <observation_longname>  (309) 
A71EV2A-x4331_C_201_v1

>  <ConformerSites alias>  (309) 
1b - A0911/A/147

>  <CanonSites alias>  (309) 
1 - Active Site

>  <CrystalformSites alias>  (309) 
F7r - A4303/C/201

>  <Quatassemblies alias>  (309) 
A1 - monomer

>  <Crystalforms alias>  (309) 
F7 - A712A_x4207_8.1_refmac1_1st_ref

>  <ConformerSites upload name>  (309) 
1b - A71EV2A-x0911/A/147

>  <CanonSites upload name>  (309) 
1 - A71EV2A-x0911/A/147/1

>  <CrystalformSites upload name>  (309) 
F7r - A71EV2A-x4303/C/201/1

>  <Quatassemblies upload name>  (309) 
A1 - monomer

>  <Crystalforms upload name>  (309) 
F7 - A712A_x4207_8.1_refmac1_1st_ref

>  <ConformerSites short tag>  (309) 
1b - A0911/A/147

>  <CanonSites short tag>  (309) 
1 - A0911/A/147/1

>  <CrystalformSites short tag>  (309) 
F7r - A4303/C/201

>  <Quatassemblies short tag>  (309) 
A1 - monomer

>  <Crystalforms short tag>  (309) 
F7 - A712A_x4207_8.1_refmac1_1st_ref

>  <Centroid res>  (309) 
A71EV2A-x0911/A/133/A_v1

>  <Experiment code>  (309) 
A71EV2A-x4331

>  <Pose>  (309) 
A4331a

$$$$
A4333a
     RDKit          3D

 19 20  0  0  0  0  0  0  0  0999 V2000
   10.4020   16.4890   19.3720 O   0  0  0  0  0  0  0  0  0  0  0  0
   10.8400   15.3530   19.5610 C   0  0  0  0  0  0  0  0  0  0  0  0
   11.2500   14.5750   18.5740 N   0  0  0  0  0  0  0  0  0  0  0  0
   10.9310   14.7680   20.9610 C   0  0  1  0  0  0  0  0  0  0  0  0
   12.0970   15.3750   21.7550 C   0  0  0  0  0  0  0  0  0  0  0  0
   12.1820   14.7930   23.1690 C   0  0  0  0  0  0  0  0  0  0  0  0
   10.8420   14.9010   23.8960 C   0  0  0  0  0  0  0  0  0  0  0  0
    9.6290   14.9380   21.7510 C   0  0  0  0  0  0  0  0  0  0  0  0
    9.7570   14.3340   23.0800 N   0  0  0  0  0  0  0  0  0  0  0  0
    8.9680   13.3030   23.4470 C   0  0  0  0  0  0  0  0  0  0  0  0
    8.0220   12.9410   22.7610 O   0  0  0  0  0  0  0  0  0  0  0  0
    9.3460   12.5890   24.7360 C   0  0  0  0  0  0  0  0  0  0  0  0
    8.3050   11.5840   25.1910 C   0  0  0  0  0  0  0  0  0  0  0  0
    8.2960   10.2430   24.7220 C   0  0  0  0  0  0  0  0  0  0  0  0
    9.3150    9.7400   23.7420 C   0  0  0  0  0  0  0  0  0  0  0  0
    7.3180   11.9500   26.1010 C   0  0  0  0  0  0  0  0  0  0  0  0
    6.3700   11.0290   26.5050 C   0  0  0  0  0  0  0  0  0  0  0  0
    6.4360    9.7530   25.9930 C   0  0  0  0  0  0  0  0  0  0  0  0
    7.3770    9.3520   25.1240 N   0  0  0  0  0  0  0  0  0  0  0  0
 15 14  1  0
 14 19  2  0
 19 18  1  0
 18 17  2  0
 17 16  1  0
 16 13  2  0
 14 13  1  0
 13 12  1  0
 12 10  1  0
 11 10  2  0
 10  9  1  0
  9  7  1  0
  7  6  1  0
  6  5  1  0
  5  4  1  0
  4  2  1  6
  3  2  1  0
  2  1  2  0
  8  4  1  0
  9  8  1  0
M  END
>  <id>  (310) 
310

>  <inchikey>  (310) 
JMAAQTAWUKUKJY-LBPRGKRZSA-N

>  <alias>  (310) 
A4333a

>  <smiles>  (310) 
Cc1ncccc1CC(=O)N1CCC[C@H](C(N)=O)C1

>  <path>  (310) 
/opt/xchem-fragalysis-2/maxwin/BulkDock/TARGETS/A71EV2A/aligned_files/A4333a/A4333a.pdb

>  <distance_score>  (310) 
None

>  <energy_score>  (310) 
None

>  <compound>  (310) 
JMAAQTAWUKUKJY-UHFFFAOYSA-N

>  <compound_id>  (310) 
239

>  <target>  (310) 
A71EV2A

>  <tags>  (310) 
['GOOD count', 'MEDIOCRE count', '[Other] S1 site', 'hits', '[Other] S2 site', '[Other] P3 compound design', '[Other] upload_2 2024-12-12', 'Main status', '[Series] Piperidine series', 'BAD count']

>  <inspirations>  (310) 
None

>  <subsites>  (310) 
None

>  <reference>  (310) 


>  <observation_longname>  (310) 
A71EV2A-x4333_A_201_v1

>  <ConformerSites alias>  (310) 
1b - A0911/A/147

>  <CanonSites alias>  (310) 
1 - Active Site

>  <CrystalformSites alias>  (310) 
F8h - A0884/A/147

>  <Quatassemblies alias>  (310) 
A1 - monomer

>  <Crystalforms alias>  (310) 
F8 - A712A_x4271_2.1_refmac1_1st_ref

>  <ConformerSites upload name>  (310) 
1b - A71EV2A-x0911/A/147

>  <CanonSites upload name>  (310) 
1 - A71EV2A-x0911/A/147/1

>  <CrystalformSites upload name>  (310) 
F8h - A71EV2A-x0884/A/147/1

>  <Quatassemblies upload name>  (310) 
A1 - monomer

>  <Crystalforms upload name>  (310) 
F8 - A712A_x4271_2.1_refmac1_1st_ref

>  <ConformerSites short tag>  (310) 
1b - A0911/A/147

>  <CanonSites short tag>  (310) 
1 - A0911/A/147/1

>  <CrystalformSites short tag>  (310) 
F8h - A0884/A/147

>  <Quatassemblies short tag>  (310) 
A1 - monomer

>  <Crystalforms short tag>  (310) 
F8 - A712A_x4271_2.1_refmac1_1st_ref

>  <Centroid res>  (310) 
A71EV2A-x0911/A/133/A_v1

>  <Experiment code>  (310) 
A71EV2A-x4333

>  <Pose>  (310) 
A4333a

$$$$
A4334a
     RDKit          3D

 20 21  0  0  0  0  0  0  0  0999 V2000
   10.3740   16.7780   19.0450 O   0  0  0  0  0  0  0  0  0  0  0  0
   10.7000   15.6120   19.3160 C   0  0  0  0  0  0  0  0  0  0  0  0
   10.9520   14.6900   18.4000 N   0  0  0  0  0  0  0  0  0  0  0  0
   10.7790   15.1330   20.7530 C   0  0  1  0  0  0  0  0  0  0  0  0
   11.9820   15.7310   21.4930 C   0  0  0  0  0  0  0  0  0  0  0  0
   12.0130   15.2700   22.9510 C   0  0  0  0  0  0  0  0  0  0  0  0
   10.6710   15.5240   23.6300 C   0  0  0  0  0  0  0  0  0  0  0  0
    9.4800   15.4860   21.4710 C   0  0  0  0  0  0  0  0  0  0  0  0
    9.5660   14.9640   22.8340 N   0  0  0  0  0  0  0  0  0  0  0  0
    8.7930   13.9260   23.2040 C   0  0  0  0  0  0  0  0  0  0  0  0
    7.8790   13.4920   22.5070 O   0  0  0  0  0  0  0  0  0  0  0  0
    9.1580   13.2950   24.5300 C   0  0  0  0  0  0  0  0  0  0  0  0
    8.5020   11.9530   24.6460 C   0  0  0  0  0  0  0  0  0  0  0  0
    8.9980   10.8610   23.9520 C   0  0  0  0  0  0  0  0  0  0  0  0
    8.4270    9.6190   24.1090 C   0  0  0  0  0  0  0  0  0  0  0  0
    7.3480    9.4530   24.9570 C   0  0  0  0  0  0  0  0  0  0  0  0
    7.4220   11.7820   25.4980 C   0  0  0  0  0  0  0  0  0  0  0  0
    6.8510   10.5370   25.6650 C   0  0  0  0  0  0  0  0  0  0  0  0
    5.5410   10.3320   26.8230 S   0  0  0  0  0  0  0  0  0  0  0  0
    5.1880   11.9900   27.4050 C   0  0  0  0  0  0  0  0  0  0  0  0
 20 19  1  0
 19 18  1  0
 18 16  2  0
 16 15  1  0
 15 14  2  0
 14 13  1  0
 13 12  1  0
 12 10  1  0
 11 10  2  0
 10  9  1  0
  9  7  1  0
  7  6  1  0
  6  5  1  0
  5  4  1  0
  4  2  1  6
  3  2  1  0
  2  1  2  0
  8  4  1  0
  9  8  1  0
 17 13  2  0
 18 17  1  0
M  END
>  <id>  (311) 
311

>  <inchikey>  (311) 
YEEQWHOUTZRGAB-LBPRGKRZSA-N

>  <alias>  (311) 
A4334a

>  <smiles>  (311) 
CSc1cccc(CC(=O)N2CCC[C@H](C(N)=O)C2)c1

>  <path>  (311) 
/opt/xchem-fragalysis-2/maxwin/BulkDock/TARGETS/A71EV2A/aligned_files/A4334a/A4334a_hippo.pdb

>  <distance_score>  (311) 
None

>  <energy_score>  (311) 
None

>  <compound>  (311) 
YEEQWHOUTZRGAB-UHFFFAOYSA-N

>  <compound_id>  (311) 
240

>  <target>  (311) 
A71EV2A

>  <tags>  (311) 
['GOOD count', 'MEDIOCRE count', '[Other] S1 site', 'hits', '[Other] S2 site', '[Other] P3 compound design', '[Other] upload_2 2024-12-12', 'Main status', '[Series] Piperidine series', 'BAD count']

>  <inspirations>  (311) 
None

>  <subsites>  (311) 
None

>  <reference>  (311) 


>  <observation_longname>  (311) 
A71EV2A-x4334_A_201_v1

>  <ConformerSites alias>  (311) 
1b - A0911/A/147

>  <CanonSites alias>  (311) 
1 - Active Site

>  <CrystalformSites alias>  (311) 
F7q - A4303/A/201

>  <Quatassemblies alias>  (311) 
A1 - monomer

>  <Crystalforms alias>  (311) 
F7 - A712A_x4207_8.1_refmac1_1st_ref

>  <ConformerSites upload name>  (311) 
1b - A71EV2A-x0911/A/147

>  <CanonSites upload name>  (311) 
1 - A71EV2A-x0911/A/147/1

>  <CrystalformSites upload name>  (311) 
F7q - A71EV2A-x4303/A/201/1

>  <Quatassemblies upload name>  (311) 
A1 - monomer

>  <Crystalforms upload name>  (311) 
F7 - A712A_x4207_8.1_refmac1_1st_ref

>  <ConformerSites short tag>  (311) 
1b - A0911/A/147

>  <CanonSites short tag>  (311) 
1 - A0911/A/147/1

>  <CrystalformSites short tag>  (311) 
F7q - A4303/A/201

>  <Quatassemblies short tag>  (311) 
A1 - monomer

>  <Crystalforms short tag>  (311) 
F7 - A712A_x4207_8.1_refmac1_1st_ref

>  <Centroid res>  (311) 
A71EV2A-x0911/A/133/A_v1

>  <Experiment code>  (311) 
A71EV2A-x4334

>  <Pose>  (311) 
A4334a

$$$$
A4334b
     RDKit          3D

 20 21  0  0  0  0  0  0  0  0999 V2000
   10.4160   16.8520   19.0590 O   0  0  0  0  0  0  0  0  0  0  0  0
   10.7550   15.6870   19.3220 C   0  0  0  0  0  0  0  0  0  0  0  0
   10.9920   14.7630   18.3980 N   0  0  0  0  0  0  0  0  0  0  0  0
   10.8720   15.2200   20.7600 C   0  0  1  0  0  0  0  0  0  0  0  0
   12.0560   15.8990   21.4770 C   0  0  0  0  0  0  0  0  0  0  0  0
   12.1300   15.4630   22.9430 C   0  0  0  0  0  0  0  0  0  0  0  0
   10.7890   15.6580   23.6440 C   0  0  0  0  0  0  0  0  0  0  0  0
    9.5760   15.5320   21.5070 C   0  0  0  0  0  0  0  0  0  0  0  0
    9.7020   15.0290   22.8730 N   0  0  0  0  0  0  0  0  0  0  0  0
    8.9530   13.9700   23.2580 C   0  0  0  0  0  0  0  0  0  0  0  0
    8.0230   13.5310   22.5740 O   0  0  0  0  0  0  0  0  0  0  0  0
    9.3310   13.3360   24.5830 C   0  0  0  0  0  0  0  0  0  0  0  0
    8.6910   11.9730   24.6990 C   0  0  0  0  0  0  0  0  0  0  0  0
    9.1920   10.8860   23.9900 C   0  0  0  0  0  0  0  0  0  0  0  0
    8.6290    9.6300   24.1360 C   0  0  0  0  0  0  0  0  0  0  0  0
    7.5510    9.4460   24.9800 C   0  0  0  0  0  0  0  0  0  0  0  0
    7.6040   11.7800   25.5420 C   0  0  0  0  0  0  0  0  0  0  0  0
    7.0400   10.5190   25.6920 C   0  0  0  0  0  0  0  0  0  0  0  0
    5.6970   10.2340   26.7930 S   0  0  0  0  0  0  0  0  0  0  0  0
    5.3260   11.8630   27.4590 C   0  0  0  0  0  0  0  0  0  0  0  0
 20 19  1  0
 19 18  1  0
 18 16  2  0
 16 15  1  0
 15 14  2  0
 14 13  1  0
 13 12  1  0
 12 10  1  0
 11 10  2  0
 10  9  1  0
  9  7  1  0
  7  6  1  0
  6  5  1  0
  5  4  1  0
  4  2  1  6
  3  2  1  0
  2  1  2  0
  8  4  1  0
  9  8  1  0
 17 13  2  0
 18 17  1  0
M  END
>  <id>  (312) 
312

>  <inchikey>  (312) 
YEEQWHOUTZRGAB-LBPRGKRZSA-N

>  <alias>  (312) 
A4334b

>  <smiles>  (312) 
CSc1cccc(CC(=O)N2CCC[C@H](C(N)=O)C2)c1

>  <path>  (312) 
/opt/xchem-fragalysis-2/maxwin/BulkDock/TARGETS/A71EV2A/aligned_files/A4334b/A4334b_hippo.pdb

>  <distance_score>  (312) 
None

>  <energy_score>  (312) 
None

>  <compound>  (312) 
YEEQWHOUTZRGAB-UHFFFAOYSA-N

>  <compound_id>  (312) 
240

>  <target>  (312) 
A71EV2A

>  <tags>  (312) 
['GOOD count', 'MEDIOCRE count', '[Other] S1 site', 'hits', '[Other] S2 site', '[Other] P3 compound design', '[Other] upload_2 2024-12-12', 'Main status', '[Series] Piperidine series', 'BAD count']

>  <inspirations>  (312) 
None

>  <subsites>  (312) 
None

>  <reference>  (312) 


>  <observation_longname>  (312) 
A71EV2A-x4334_C_201_v1

>  <ConformerSites alias>  (312) 
1b - A0911/A/147

>  <CanonSites alias>  (312) 
1 - Active Site

>  <CrystalformSites alias>  (312) 
F7r - A4303/C/201

>  <Quatassemblies alias>  (312) 
A1 - monomer

>  <Crystalforms alias>  (312) 
F7 - A712A_x4207_8.1_refmac1_1st_ref

>  <ConformerSites upload name>  (312) 
1b - A71EV2A-x0911/A/147

>  <CanonSites upload name>  (312) 
1 - A71EV2A-x0911/A/147/1

>  <CrystalformSites upload name>  (312) 
F7r - A71EV2A-x4303/C/201/1

>  <Quatassemblies upload name>  (312) 
A1 - monomer

>  <Crystalforms upload name>  (312) 
F7 - A712A_x4207_8.1_refmac1_1st_ref

>  <ConformerSites short tag>  (312) 
1b - A0911/A/147

>  <CanonSites short tag>  (312) 
1 - A0911/A/147/1

>  <CrystalformSites short tag>  (312) 
F7r - A4303/C/201

>  <Quatassemblies short tag>  (312) 
A1 - monomer

>  <Crystalforms short tag>  (312) 
F7 - A712A_x4207_8.1_refmac1_1st_ref

>  <Centroid res>  (312) 
A71EV2A-x0911/A/133/A_v1

>  <Experiment code>  (312) 
A71EV2A-x4334

>  <Pose>  (312) 
A4334a

$$$$
A4336a
     RDKit          3D

 20 21  0  0  0  0  0  0  0  0999 V2000
   10.4060   11.7370   23.2580 Cl  0  0  0  0  0  0  0  0  0  0  0  0
    9.0220   11.2810   24.1820 C   0  0  0  0  0  0  0  0  0  0  0  0
    8.6250    9.9510   24.2300 C   0  0  0  0  0  0  0  0  0  0  0  0
    9.5370    8.7300   23.4010 Cl  0  0  0  0  0  0  0  0  0  0  0  0
    7.5170    9.5710   24.9640 C   0  0  0  0  0  0  0  0  0  0  0  0
    6.8170   10.5300   25.6770 C   0  0  0  0  0  0  0  0  0  0  0  0
    7.2100   11.8580   25.6370 C   0  0  0  0  0  0  0  0  0  0  0  0
    8.3080   12.2600   24.8780 C   0  0  0  0  0  0  0  0  0  0  0  0
    8.6340   13.7320   24.7600 C   0  0  0  0  0  0  0  0  0  0  0  0
    8.5220   14.2010   23.3220 C   0  0  0  0  0  0  0  0  0  0  0  0
    7.7220   13.6820   22.5540 O   0  0  0  0  0  0  0  0  0  0  0  0
    9.3770   15.1670   22.9220 N   0  0  0  0  0  0  0  0  0  0  0  0
   10.4140   15.7940   23.7580 C   0  0  0  0  0  0  0  0  0  0  0  0
   11.7990   15.5690   23.1610 C   0  0  0  0  0  0  0  0  0  0  0  0
   11.8410   15.9730   21.6810 C   0  0  0  0  0  0  0  0  0  0  0  0
    9.3720   15.6590   21.5420 C   0  0  0  0  0  0  0  0  0  0  0  0
   10.7060   15.3190   20.8740 C   0  0  1  0  0  0  0  0  0  0  0  0
   10.7410   15.7400   19.4130 C   0  0  0  0  0  0  0  0  0  0  0  0
   10.4890   16.9000   19.0780 O   0  0  0  0  0  0  0  0  0  0  0  0
   11.0520   14.7910   18.5450 N   0  0  0  0  0  0  0  0  0  0  0  0
 20 18  1  0
 19 18  2  0
 17 18  1  6
 17 15  1  0
 15 14  1  0
 14 13  1  0
 13 12  1  0
 12 10  1  0
 11 10  2  0
 10  9  1  0
  9  8  1  0
  8  7  2  0
  7  6  1  0
  6  5  2  0
  5  3  1  0
  4  3  1  0
  3  2  2  0
  8  2  1  0
  2  1  1  0
 16 12  1  0
 17 16  1  0
M  END
>  <id>  (313) 
313

>  <inchikey>  (313) 
TXWPVJKFUSGQMQ-JTQLQIEISA-N

>  <alias>  (313) 
A4336a

>  <smiles>  (313) 
NC(=O)[C@H]1CCCN(C(=O)Cc2cccc(Cl)c2Cl)C1

>  <path>  (313) 
/opt/xchem-fragalysis-2/maxwin/BulkDock/TARGETS/A71EV2A/aligned_files/A4336a/A4336a.pdb

>  <distance_score>  (313) 
None

>  <energy_score>  (313) 
None

>  <compound>  (313) 
TXWPVJKFUSGQMQ-UHFFFAOYSA-N

>  <compound_id>  (313) 
241

>  <target>  (313) 
A71EV2A

>  <tags>  (313) 
['GOOD count', 'MEDIOCRE count', '[Other] S1 site', 'hits', '[Other] S2 site', '[Other] P3 compound design', '[Other] upload_2 2024-12-12', 'Main status', '[Series] Piperidine series', 'BAD count']

>  <inspirations>  (313) 
None

>  <subsites>  (313) 
None

>  <reference>  (313) 


>  <observation_longname>  (313) 
A71EV2A-x4336_A_201_v1

>  <ConformerSites alias>  (313) 
1b - A0911/A/147

>  <CanonSites alias>  (313) 
1 - Active Site

>  <CrystalformSites alias>  (313) 
F8h - A0884/A/147

>  <Quatassemblies alias>  (313) 
A1 - monomer

>  <Crystalforms alias>  (313) 
F8 - A712A_x4271_2.1_refmac1_1st_ref

>  <ConformerSites upload name>  (313) 
1b - A71EV2A-x0911/A/147

>  <CanonSites upload name>  (313) 
1 - A71EV2A-x0911/A/147/1

>  <CrystalformSites upload name>  (313) 
F8h - A71EV2A-x0884/A/147/1

>  <Quatassemblies upload name>  (313) 
A1 - monomer

>  <Crystalforms upload name>  (313) 
F8 - A712A_x4271_2.1_refmac1_1st_ref

>  <ConformerSites short tag>  (313) 
1b - A0911/A/147

>  <CanonSites short tag>  (313) 
1 - A0911/A/147/1

>  <CrystalformSites short tag>  (313) 
F8h - A0884/A/147

>  <Quatassemblies short tag>  (313) 
A1 - monomer

>  <Crystalforms short tag>  (313) 
F8 - A712A_x4271_2.1_refmac1_1st_ref

>  <Centroid res>  (313) 
A71EV2A-x0911/A/133/A_v1

>  <Experiment code>  (313) 
A71EV2A-x4336

>  <Pose>  (313) 
A4336a

$$$$
A4341a
     RDKit          3D

 21 23  0  0  0  0  0  0  0  0999 V2000
   10.1040   13.5670   25.1020 O   0  0  0  0  0  0  0  0  0  0  0  0
    9.6420   13.8790   24.0130 C   0  0  0  0  0  0  0  0  0  0  0  0
   10.4250   14.2980   22.9980 N   0  0  0  0  0  0  0  0  0  0  0  0
   11.8770   14.3810   23.2260 C   0  0  0  0  0  0  0  0  0  0  0  0
   12.3950   15.7370   22.8380 C   0  0  0  0  0  0  0  0  0  0  0  0
   11.9610   16.1200   21.4250 C   0  0  0  0  0  0  0  0  0  0  0  0
    9.9540   14.6920   21.6630 C   0  0  0  0  0  0  0  0  0  0  0  0
   11.1370   15.0280   20.7410 C   0  0  1  0  0  0  0  0  0  0  0  0
   10.7980   15.4560   19.3240 C   0  0  0  0  0  0  0  0  0  0  0  0
   10.2380   16.5350   19.1010 O   0  0  0  0  0  0  0  0  0  0  0  0
   11.2210   14.6500   18.3640 N   0  0  0  0  0  0  0  0  0  0  0  0
    8.1710   13.6560   23.7280 C   0  0  0  0  0  0  0  0  0  0  0  0
    7.7760   12.3190   24.3000 C   0  0  0  0  0  0  0  0  0  0  0  0
    8.4400   11.1500   23.8770 C   0  0  0  0  0  0  0  0  0  0  0  0
    9.4730   10.9950   22.8860 C   0  0  0  0  0  0  0  0  0  0  0  0
    9.8800    9.7190   22.7600 C   0  0  0  0  0  0  0  0  0  0  0  0
    9.0550    8.6280   23.8050 S   0  0  0  0  0  0  0  0  0  0  0  0
    8.1080    9.9260   24.4680 C   0  0  0  0  0  0  0  0  0  0  0  0
    7.1310    9.8280   25.4550 C   0  0  0  0  0  0  0  0  0  0  0  0
    6.4930   10.9850   25.8770 C   0  0  0  0  0  0  0  0  0  0  0  0
    6.8150   12.2150   25.3100 C   0  0  0  0  0  0  0  0  0  0  0  0
 11  9  1  0
 10  9  2  0
  8  9  1  6
  8  6  1  0
  6  5  1  0
  5  4  1  0
  4  3  1  0
  3  2  1  0
  2  1  2  0
 12  2  1  0
 13 12  1  0
 13 21  1  0
 21 20  2  0
 20 19  1  0
 19 18  2  0
 18 17  1  0
 17 16  1  0
 16 15  2  0
 15 14  1  0
 14 13  2  0
 18 14  1  0
  7  3  1  0
  8  7  1  0
M  END
>  <id>  (314) 
314

>  <inchikey>  (314) 
HCUJWCCUGKJCFJ-LBPRGKRZSA-N

>  <alias>  (314) 
A4341a

>  <smiles>  (314) 
NC(=O)[C@H]1CCCN(C(=O)Cc2cccc3sccc23)C1

>  <path>  (314) 
/opt/xchem-fragalysis-2/maxwin/BulkDock/TARGETS/A71EV2A/aligned_files/A4341a/A4341a.pdb

>  <distance_score>  (314) 
None

>  <energy_score>  (314) 
None

>  <compound>  (314) 
HCUJWCCUGKJCFJ-UHFFFAOYSA-N

>  <compound_id>  (314) 
242

>  <target>  (314) 
A71EV2A

>  <tags>  (314) 
['GOOD count', 'MEDIOCRE count', '[Other] S1 site', 'hits', '[Other] S2 site', '[Other] P3 compound design', '[Other] upload_1 2025-02-12', 'Main status', '[Series] Piperidine series', 'BAD count']

>  <inspirations>  (314) 
None

>  <subsites>  (314) 
None

>  <reference>  (314) 


>  <observation_longname>  (314) 
A71EV2A-x4341_A_201_v1

>  <ConformerSites alias>  (314) 
1b - A0911/A/147

>  <CanonSites alias>  (314) 
1 - Active Site

>  <CrystalformSites alias>  (314) 
F8h - A0884/A/147

>  <Quatassemblies alias>  (314) 
A1 - monomer

>  <Crystalforms alias>  (314) 
F8 - A712A_x4271_2.1_refmac1_1st_ref

>  <ConformerSites upload name>  (314) 
1b - A71EV2A-x0911/A/147

>  <CanonSites upload name>  (314) 
1 - A71EV2A-x0911/A/147/1

>  <CrystalformSites upload name>  (314) 
F8h - A71EV2A-x0884/A/147/1

>  <Quatassemblies upload name>  (314) 
A1 - monomer

>  <Crystalforms upload name>  (314) 
F8 - A712A_x4271_2.1_refmac1_1st_ref

>  <ConformerSites short tag>  (314) 
1b - A0911/A/147

>  <CanonSites short tag>  (314) 
1 - A0911/A/147/1

>  <CrystalformSites short tag>  (314) 
F8h - A0884/A/147

>  <Quatassemblies short tag>  (314) 
A1 - monomer

>  <Crystalforms short tag>  (314) 
F8 - A712A_x4271_2.1_refmac1_1st_ref

>  <Centroid res>  (314) 
A71EV2A-x0911/A/133/A_v1

>  <Experiment code>  (314) 
A71EV2A-x4341

>  <Pose>  (314) 
A4341a

$$$$
A4342a
     RDKit          3D

 22 23  0  0  0  0  0  0  0  0999 V2000
   10.3040   10.0260   24.3270 F   0  0  0  0  0  0  0  0  0  0  0  0
    9.1530   10.0650   23.6630 C   0  0  0  0  0  0  0  0  0  0  0  0
    8.9280    8.8330   23.2950 F   0  0  0  0  0  0  0  0  0  0  0  0
    9.3340   10.6830   22.5050 F   0  0  0  0  0  0  0  0  0  0  0  0
    8.0240   10.6580   24.4850 C   0  0  0  0  0  0  0  0  0  0  0  0
    7.3360    9.7540   25.1890 N   0  0  0  0  0  0  0  0  0  0  0  0
    6.4560   10.1970   26.1060 C   0  0  0  0  0  0  0  0  0  0  0  0
    6.2310   11.5370   26.3750 C   0  0  0  0  0  0  0  0  0  0  0  0
    6.9100   12.4870   25.6290 C   0  0  0  0  0  0  0  0  0  0  0  0
    7.7910   12.0840   24.6290 C   0  0  0  0  0  0  0  0  0  0  0  0
    8.3180   13.0960   23.6370 C   0  0  0  0  0  0  0  0  0  0  0  0
    9.6950   13.5810   24.0410 C   0  0  0  0  0  0  0  0  0  0  0  0
   10.0660   13.4970   25.2050 O   0  0  0  0  0  0  0  0  0  0  0  0
   10.4890   14.0700   23.0670 N   0  0  0  0  0  0  0  0  0  0  0  0
   11.9300   14.1520   23.3320 C   0  0  0  0  0  0  0  0  0  0  0  0
   12.4460   15.5370   23.0310 C   0  0  0  0  0  0  0  0  0  0  0  0
   12.0040   16.0280   21.6510 C   0  0  0  0  0  0  0  0  0  0  0  0
   10.0330   14.5410   21.7520 C   0  0  0  0  0  0  0  0  0  0  0  0
   11.2170   14.9680   20.8700 C   0  0  1  0  0  0  0  0  0  0  0  0
   10.8630   15.4850   19.4850 C   0  0  0  0  0  0  0  0  0  0  0  0
   10.3770   16.6060   19.3300 O   0  0  0  0  0  0  0  0  0  0  0  0
   11.1890   14.7010   18.4690 N   0  0  0  0  0  0  0  0  0  0  0  0
 22 20  1  0
 21 20  2  0
 19 20  1  6
 19 17  1  0
 17 16  1  0
 16 15  1  0
 15 14  1  0
 14 12  1  0
 13 12  2  0
 12 11  1  0
 11 10  1  0
 10  9  2  0
  9  8  1  0
  8  7  2  0
  7  6  1  0
  6  5  2  0
 10  5  1  0
  5  2  1  0
  3  2  1  0
  4  2  1  0
  2  1  1  0
 18 14  1  0
 19 18  1  0
M  END
>  <id>  (315) 
315

>  <inchikey>  (315) 
JGDJTUIKIOFGTA-JTQLQIEISA-N

>  <alias>  (315) 
A4342a

>  <smiles>  (315) 
NC(=O)[C@H]1CCCN(C(=O)Cc2cccnc2C(F)(F)F)C1

>  <path>  (315) 
/opt/xchem-fragalysis-2/maxwin/BulkDock/TARGETS/A71EV2A/aligned_files/A4342a/A4342a.pdb

>  <distance_score>  (315) 
None

>  <energy_score>  (315) 
None

>  <compound>  (315) 
JGDJTUIKIOFGTA-UHFFFAOYSA-N

>  <compound_id>  (315) 
243

>  <target>  (315) 
A71EV2A

>  <tags>  (315) 
['GOOD count', 'MEDIOCRE count', '[Other] S1 site', 'hits', '[Other] S2 site', '[Other] P3 compound design', '[Other] upload_1 2025-02-12', 'Main status', '[Series] Piperidine series', 'BAD count']

>  <inspirations>  (315) 
None

>  <subsites>  (315) 
None

>  <reference>  (315) 


>  <observation_longname>  (315) 
A71EV2A-x4342_A_201_v1

>  <ConformerSites alias>  (315) 
1b - A0911/A/147

>  <CanonSites alias>  (315) 
1 - Active Site

>  <CrystalformSites alias>  (315) 
F8h - A0884/A/147

>  <Quatassemblies alias>  (315) 
A1 - monomer

>  <Crystalforms alias>  (315) 
F8 - A712A_x4271_2.1_refmac1_1st_ref

>  <ConformerSites upload name>  (315) 
1b - A71EV2A-x0911/A/147

>  <CanonSites upload name>  (315) 
1 - A71EV2A-x0911/A/147/1

>  <CrystalformSites upload name>  (315) 
F8h - A71EV2A-x0884/A/147/1

>  <Quatassemblies upload name>  (315) 
A1 - monomer

>  <Crystalforms upload name>  (315) 
F8 - A712A_x4271_2.1_refmac1_1st_ref

>  <ConformerSites short tag>  (315) 
1b - A0911/A/147

>  <CanonSites short tag>  (315) 
1 - A0911/A/147/1

>  <CrystalformSites short tag>  (315) 
F8h - A0884/A/147

>  <Quatassemblies short tag>  (315) 
A1 - monomer

>  <Crystalforms short tag>  (315) 
F8 - A712A_x4271_2.1_refmac1_1st_ref

>  <Centroid res>  (315) 
A71EV2A-x0911/A/133/A_v1

>  <Experiment code>  (315) 
A71EV2A-x4342

>  <Pose>  (315) 
A4342a

$$$$
A4343a
     RDKit          3D

 20 21  0  0  0  0  0  0  0  0999 V2000
    6.3820   12.8250   26.3430 Br  0  0  0  0  0  0  0  0  0  0  0  0
    7.3580   11.4410   25.4870 C   0  0  0  0  0  0  0  0  0  0  0  0
    6.9750   10.1350   25.5640 C   0  0  0  0  0  0  0  0  0  0  0  0
    5.9720    9.7410   26.2990 O   0  0  0  0  0  0  0  0  0  0  0  0
    7.6260    9.1180   24.8720 N   0  0  0  0  0  0  0  0  0  0  0  0
    8.6730    9.4850   24.1200 C   0  0  0  0  0  0  0  0  0  0  0  0
    9.1160   10.7790   24.0140 C   0  0  0  0  0  0  0  0  0  0  0  0
    8.4570   11.7880   24.7130 C   0  0  0  0  0  0  0  0  0  0  0  0
    8.9270   13.2140   24.6150 C   0  0  0  0  0  0  0  0  0  0  0  0
    8.6280   13.7690   23.2410 C   0  0  0  0  0  0  0  0  0  0  0  0
    7.7530   13.3050   22.5250 O   0  0  0  0  0  0  0  0  0  0  0  0
    9.4080   14.8020   22.8680 N   0  0  0  0  0  0  0  0  0  0  0  0
   10.4550   15.4120   23.7060 C   0  0  0  0  0  0  0  0  0  0  0  0
   11.8240   15.2270   23.0730 C   0  0  0  0  0  0  0  0  0  0  0  0
   11.8150   15.7360   21.6330 C   0  0  0  0  0  0  0  0  0  0  0  0
    9.3390   15.3160   21.5010 C   0  0  0  0  0  0  0  0  0  0  0  0
   10.6880   15.0600   20.8360 C   0  0  1  0  0  0  0  0  0  0  0  0
   10.6850   15.4680   19.3750 C   0  0  0  0  0  0  0  0  0  0  0  0
   10.9470   14.6440   18.4940 O   0  0  0  0  0  0  0  0  0  0  0  0
   10.2580   16.6860   19.1050 N   0  0  0  0  0  0  0  0  0  0  0  0
 20 18  1  0
 19 18  2  0
 17 18  1  6
 17 15  1  0
 15 14  1  0
 14 13  1  0
 13 12  1  0
 12 10  1  0
 11 10  2  0
 10  9  1  0
  9  8  1  0
  8  7  2  0
  7  6  1  0
  6  5  2  0
  5  3  1  0
  4  3  1  0
  3  2  2  0
  8  2  1  0
  2  1  1  0
 16 12  1  0
 17 16  1  0
M  END
>  <id>  (316) 
316

>  <inchikey>  (316) 
FEHFYYIVCWNAFS-VIFPVBQESA-N

>  <alias>  (316) 
A4343a

>  <smiles>  (316) 
NC(=O)[C@H]1CCCN(C(=O)Cc2ccnc(O)c2Br)C1

>  <path>  (316) 
/opt/xchem-fragalysis-2/maxwin/BulkDock/TARGETS/A71EV2A/aligned_files/A4343a/A4343a_hippo.pdb

>  <distance_score>  (316) 
None

>  <energy_score>  (316) 
None

>  <compound>  (316) 
FEHFYYIVCWNAFS-UHFFFAOYSA-N

>  <compound_id>  (316) 
244

>  <target>  (316) 
A71EV2A

>  <tags>  (316) 
['GOOD count', 'MEDIOCRE count', '[Other] S1 site', 'hits', '[Other] S2 site', '[Other] P3 compound design', '[Other] upload_1 2025-02-12', 'Main status', '[Series] Piperidine series', 'BAD count']

>  <inspirations>  (316) 
None

>  <subsites>  (316) 
None

>  <reference>  (316) 


>  <observation_longname>  (316) 
A71EV2A-x4343_A_201_v1

>  <ConformerSites alias>  (316) 
1b - A0911/A/147

>  <CanonSites alias>  (316) 
1 - Active Site

>  <CrystalformSites alias>  (316) 
F7q - A4303/A/201

>  <Quatassemblies alias>  (316) 
A1 - monomer

>  <Crystalforms alias>  (316) 
F7 - A712A_x4207_8.1_refmac1_1st_ref

>  <ConformerSites upload name>  (316) 
1b - A71EV2A-x0911/A/147

>  <CanonSites upload name>  (316) 
1 - A71EV2A-x0911/A/147/1

>  <CrystalformSites upload name>  (316) 
F7q - A71EV2A-x4303/A/201/1

>  <Quatassemblies upload name>  (316) 
A1 - monomer

>  <Crystalforms upload name>  (316) 
F7 - A712A_x4207_8.1_refmac1_1st_ref

>  <ConformerSites short tag>  (316) 
1b - A0911/A/147

>  <CanonSites short tag>  (316) 
1 - A0911/A/147/1

>  <CrystalformSites short tag>  (316) 
F7q - A4303/A/201

>  <Quatassemblies short tag>  (316) 
A1 - monomer

>  <Crystalforms short tag>  (316) 
F7 - A712A_x4207_8.1_refmac1_1st_ref

>  <Centroid res>  (316) 
A71EV2A-x0911/A/133/A_v1

>  <Experiment code>  (316) 
A71EV2A-x4343

>  <Pose>  (316) 
A4343a

$$$$
A4343b
     RDKit          3D

 20 21  0  0  0  0  0  0  0  0999 V2000
    6.6700   12.7330   26.4780 Br  0  0  0  0  0  0  0  0  0  0  0  0
    7.6250   11.3990   25.5560 C   0  0  0  0  0  0  0  0  0  0  0  0
    7.2200   10.0890   25.6240 C   0  0  0  0  0  0  0  0  0  0  0  0
    6.2130    9.6830   26.3610 O   0  0  0  0  0  0  0  0  0  0  0  0
    7.8590    9.0890   24.9110 N   0  0  0  0  0  0  0  0  0  0  0  0
    8.9030    9.4650   24.1540 C   0  0  0  0  0  0  0  0  0  0  0  0
    9.3590   10.7620   24.0600 C   0  0  0  0  0  0  0  0  0  0  0  0
    8.7170   11.7670   24.7790 C   0  0  0  0  0  0  0  0  0  0  0  0
    9.1920   13.1970   24.6810 C   0  0  0  0  0  0  0  0  0  0  0  0
    8.8440   13.7850   23.3250 C   0  0  0  0  0  0  0  0  0  0  0  0
    7.9470   13.3180   22.6280 O   0  0  0  0  0  0  0  0  0  0  0  0
    9.5860   14.8420   22.9340 N   0  0  0  0  0  0  0  0  0  0  0  0
   10.6160   15.5170   23.7400 C   0  0  0  0  0  0  0  0  0  0  0  0
   11.9810   15.3660   23.0770 C   0  0  0  0  0  0  0  0  0  0  0  0
   11.9340   15.8260   21.6170 C   0  0  0  0  0  0  0  0  0  0  0  0
    9.4840   15.3500   21.5650 C   0  0  0  0  0  0  0  0  0  0  0  0
   10.8100   15.1100   20.8430 C   0  0  1  0  0  0  0  0  0  0  0  0
   10.7320   15.5990   19.4090 C   0  0  0  0  0  0  0  0  0  0  0  0
   10.3620   16.7530   19.1520 O   0  0  0  0  0  0  0  0  0  0  0  0
   11.0090   14.6990   18.4800 N   0  0  0  0  0  0  0  0  0  0  0  0
 20 18  1  0
 19 18  2  0
 17 18  1  6
 17 15  1  0
 15 14  1  0
 14 13  1  0
 13 12  1  0
 12 10  1  0
 11 10  2  0
 10  9  1  0
  9  8  1  0
  8  7  2  0
  7  6  1  0
  6  5  2  0
  5  3  1  0
  4  3  1  0
  3  2  2  0
  8  2  1  0
  2  1  1  0
 16 12  1  0
 17 16  1  0
M  END
>  <id>  (317) 
317

>  <inchikey>  (317) 
FEHFYYIVCWNAFS-VIFPVBQESA-N

>  <alias>  (317) 
A4343b

>  <smiles>  (317) 
NC(=O)[C@H]1CCCN(C(=O)Cc2ccnc(O)c2Br)C1

>  <path>  (317) 
/opt/xchem-fragalysis-2/maxwin/BulkDock/TARGETS/A71EV2A/aligned_files/A4343b/A4343b_hippo.pdb

>  <distance_score>  (317) 
None

>  <energy_score>  (317) 
None

>  <compound>  (317) 
FEHFYYIVCWNAFS-UHFFFAOYSA-N

>  <compound_id>  (317) 
244

>  <target>  (317) 
A71EV2A

>  <tags>  (317) 
['GOOD count', 'MEDIOCRE count', '[Other] S1 site', 'hits', '[Other] S2 site', '[Other] P3 compound design', '[Other] upload_1 2025-02-12', 'Main status', '[Series] Piperidine series', 'BAD count']

>  <inspirations>  (317) 
None

>  <subsites>  (317) 
None

>  <reference>  (317) 


>  <observation_longname>  (317) 
A71EV2A-x4343_C_201_v1

>  <ConformerSites alias>  (317) 
1b - A0911/A/147

>  <CanonSites alias>  (317) 
1 - Active Site

>  <CrystalformSites alias>  (317) 
F7r - A4303/C/201

>  <Quatassemblies alias>  (317) 
A1 - monomer

>  <Crystalforms alias>  (317) 
F7 - A712A_x4207_8.1_refmac1_1st_ref

>  <ConformerSites upload name>  (317) 
1b - A71EV2A-x0911/A/147

>  <CanonSites upload name>  (317) 
1 - A71EV2A-x0911/A/147/1

>  <CrystalformSites upload name>  (317) 
F7r - A71EV2A-x4303/C/201/1

>  <Quatassemblies upload name>  (317) 
A1 - monomer

>  <Crystalforms upload name>  (317) 
F7 - A712A_x4207_8.1_refmac1_1st_ref

>  <ConformerSites short tag>  (317) 
1b - A0911/A/147

>  <CanonSites short tag>  (317) 
1 - A0911/A/147/1

>  <CrystalformSites short tag>  (317) 
F7r - A4303/C/201

>  <Quatassemblies short tag>  (317) 
A1 - monomer

>  <Crystalforms short tag>  (317) 
F7 - A712A_x4207_8.1_refmac1_1st_ref

>  <Centroid res>  (317) 
A71EV2A-x0911/A/133/A_v1

>  <Experiment code>  (317) 
A71EV2A-x4343

>  <Pose>  (317) 
A4343a

$$$$
A4344a
     RDKit          3D

 21 23  0  0  0  0  0  0  0  0999 V2000
    9.9410   13.6000   25.0770 O   0  0  0  0  0  0  0  0  0  0  0  0
    9.4670   13.9340   23.9990 C   0  0  0  0  0  0  0  0  0  0  0  0
   10.1270   14.7460   23.1460 N   0  0  0  0  0  0  0  0  0  0  0  0
   11.2200   15.5650   23.6920 C   0  0  0  0  0  0  0  0  0  0  0  0
   12.4350   15.4520   22.8260 C   0  0  0  0  0  0  0  0  0  0  0  0
   12.1010   15.9120   21.4170 C   0  0  0  0  0  0  0  0  0  0  0  0
    9.7550   15.0030   21.7480 C   0  0  0  0  0  0  0  0  0  0  0  0
   10.9780   15.0580   20.8190 C   0  0  1  0  0  0  0  0  0  0  0  0
   10.6590   15.5460   19.4160 C   0  0  0  0  0  0  0  0  0  0  0  0
   10.2520   16.6950   19.2180 O   0  0  0  0  0  0  0  0  0  0  0  0
   10.9520   14.7120   18.4360 N   0  0  0  0  0  0  0  0  0  0  0  0
    8.0830   13.4590   23.6080 C   0  0  0  0  0  0  0  0  0  0  0  0
    7.7430   12.2130   24.3930 C   0  0  0  0  0  0  0  0  0  0  0  0
    8.3790   11.0090   24.0750 C   0  0  0  0  0  0  0  0  0  0  0  0
    9.6210   10.7980   23.2510 C   0  0  0  0  0  0  0  0  0  0  0  0
    9.8970    9.2980   23.3740 C   0  0  0  0  0  0  0  0  0  0  0  0
    8.6600    8.6640   23.9870 C   0  0  0  0  0  0  0  0  0  0  0  0
    7.9470    9.8230   24.6310 C   0  0  0  0  0  0  0  0  0  0  0  0
    6.9340    9.8260   25.5840 C   0  0  0  0  0  0  0  0  0  0  0  0
    6.3570   11.0260   25.9780 C   0  0  0  0  0  0  0  0  0  0  0  0
    6.7530   12.2140   25.3780 C   0  0  0  0  0  0  0  0  0  0  0  0
 11  9  1  0
 10  9  2  0
  8  9  1  6
  8  6  1  0
  6  5  1  0
  5  4  1  0
  4  3  1  0
  3  2  1  0
  2  1  2  0
 12  2  1  0
 13 12  1  0
 13 21  2  0
 21 20  1  0
 20 19  2  0
 19 18  1  0
 18 14  2  0
 14 13  1  0
 15 14  1  0
 16 15  1  0
 17 16  1  0
 18 17  1  0
  7  3  1  0
  8  7  1  0
M  END
>  <id>  (318) 
318

>  <inchikey>  (318) 
HYRQJBRGWDRDDU-AWEZNQCLSA-N

>  <alias>  (318) 
A4344a

>  <smiles>  (318) 
NC(=O)[C@H]1CCCN(C(=O)Cc2cccc3c2CCC3)C1

>  <path>  (318) 
/opt/xchem-fragalysis-2/maxwin/BulkDock/TARGETS/A71EV2A/aligned_files/A4344a/A4344a.pdb

>  <distance_score>  (318) 
None

>  <energy_score>  (318) 
None

>  <compound>  (318) 
HYRQJBRGWDRDDU-UHFFFAOYSA-N

>  <compound_id>  (318) 
245

>  <target>  (318) 
A71EV2A

>  <tags>  (318) 
['GOOD count', 'MEDIOCRE count', '[Other] S1 site', 'hits', '[Other] S2 site', '[Other] P3 compound design', '[Other] upload_1 2025-02-12', 'Main status', '[Series] Piperidine series', 'BAD count']

>  <inspirations>  (318) 
None

>  <subsites>  (318) 
None

>  <reference>  (318) 


>  <observation_longname>  (318) 
A71EV2A-x4344_A_201_v1

>  <ConformerSites alias>  (318) 
1b - A0911/A/147

>  <CanonSites alias>  (318) 
1 - Active Site

>  <CrystalformSites alias>  (318) 
F8h - A0884/A/147

>  <Quatassemblies alias>  (318) 
A1 - monomer

>  <Crystalforms alias>  (318) 
F8 - A712A_x4271_2.1_refmac1_1st_ref

>  <ConformerSites upload name>  (318) 
1b - A71EV2A-x0911/A/147

>  <CanonSites upload name>  (318) 
1 - A71EV2A-x0911/A/147/1

>  <CrystalformSites upload name>  (318) 
F8h - A71EV2A-x0884/A/147/1

>  <Quatassemblies upload name>  (318) 
A1 - monomer

>  <Crystalforms upload name>  (318) 
F8 - A712A_x4271_2.1_refmac1_1st_ref

>  <ConformerSites short tag>  (318) 
1b - A0911/A/147

>  <CanonSites short tag>  (318) 
1 - A0911/A/147/1

>  <CrystalformSites short tag>  (318) 
F8h - A0884/A/147

>  <Quatassemblies short tag>  (318) 
A1 - monomer

>  <Crystalforms short tag>  (318) 
F8 - A712A_x4271_2.1_refmac1_1st_ref

>  <Centroid res>  (318) 
A71EV2A-x0911/A/133/A_v1

>  <Experiment code>  (318) 
A71EV2A-x4344

>  <Pose>  (318) 
A4344a

$$$$
A4346a
     RDKit          3D

 21 23  0  0  0  0  0  0  0  0999 V2000
    7.9920   13.4400   22.6310 O   0  0  0  0  0  0  0  0  0  0  0  0
    8.7960   13.9660   23.3850 C   0  0  0  0  0  0  0  0  0  0  0  0
    9.6170   14.9550   22.9740 N   0  0  0  0  0  0  0  0  0  0  0  0
   10.7100   15.5370   23.7670 C   0  0  0  0  0  0  0  0  0  0  0  0
   12.0350   15.3840   23.0420 C   0  0  0  0  0  0  0  0  0  0  0  0
   11.9420   15.9160   21.6040 C   0  0  0  0  0  0  0  0  0  0  0  0
    9.4890   15.5460   21.6370 C   0  0  0  0  0  0  0  0  0  0  0  0
   10.7690   15.2810   20.8400 C   0  0  1  0  0  0  0  0  0  0  0  0
   10.7240   15.7510   19.3960 C   0  0  0  0  0  0  0  0  0  0  0  0
   10.3510   16.8910   19.1070 O   0  0  0  0  0  0  0  0  0  0  0  0
   11.0840   14.8610   18.4870 N   0  0  0  0  0  0  0  0  0  0  0  0
    8.8990   13.5330   24.8350 C   0  0  0  0  0  0  0  0  0  0  0  0
    8.2260   12.1990   25.0660 C   0  0  0  0  0  0  0  0  0  0  0  0
    8.6950   11.0390   24.4130 C   0  0  0  0  0  0  0  0  0  0  0  0
    9.7480   10.7890   23.5980 N   0  0  0  0  0  0  0  0  0  0  0  0
    9.7220    9.4830   23.2980 O   0  0  0  0  0  0  0  0  0  0  0  0
    8.6830    8.8660   23.8820 N   0  0  0  0  0  0  0  0  0  0  0  0
    8.0020    9.8080   24.6010 C   0  0  0  0  0  0  0  0  0  0  0  0
    6.8670    9.7540   25.4240 C   0  0  0  0  0  0  0  0  0  0  0  0
    6.4390   10.9000   26.0760 C   0  0  0  0  0  0  0  0  0  0  0  0
    7.1100   12.1020   25.8990 C   0  0  0  0  0  0  0  0  0  0  0  0
 11  9  1  0
 10  9  2  0
  8  9  1  6
  8  6  1  0
  6  5  1  0
  5  4  1  0
  4  3  1  0
  3  2  1  0
  2  1  2  0
 12  2  1  0
 13 12  1  0
 13 21  2  0
 21 20  1  0
 20 19  2  0
 19 18  1  0
 18 17  2  0
 17 16  1  0
 16 15  1  0
 15 14  2  0
 14 13  1  0
 18 14  1  0
  7  3  1  0
  8  7  1  0
M  END
>  <id>  (319) 
319

>  <inchikey>  (319) 
MKKBHWGKGOZQED-JTQLQIEISA-N

>  <alias>  (319) 
A4346a

>  <smiles>  (319) 
NC(=O)[C@H]1CCCN(C(=O)Cc2cccc3nonc23)C1

>  <path>  (319) 
/opt/xchem-fragalysis-2/maxwin/BulkDock/TARGETS/A71EV2A/aligned_files/A4346a/A4346a.pdb

>  <distance_score>  (319) 
None

>  <energy_score>  (319) 
None

>  <compound>  (319) 
MKKBHWGKGOZQED-UHFFFAOYSA-N

>  <compound_id>  (319) 
246

>  <target>  (319) 
A71EV2A

>  <tags>  (319) 
['GOOD count', 'MEDIOCRE count', '[Other] S1 site', 'hits', '[Other] S2 site', '[Other] P3 compound design', '[Other] upload_1 2025-02-12', 'Main status', '[Series] Piperidine series', 'BAD count']

>  <inspirations>  (319) 
None

>  <subsites>  (319) 
None

>  <reference>  (319) 


>  <observation_longname>  (319) 
A71EV2A-x4346_A_201_v1

>  <ConformerSites alias>  (319) 
1b - A0911/A/147

>  <CanonSites alias>  (319) 
1 - Active Site

>  <CrystalformSites alias>  (319) 
F8h - A0884/A/147

>  <Quatassemblies alias>  (319) 
A1 - monomer

>  <Crystalforms alias>  (319) 
F8 - A712A_x4271_2.1_refmac1_1st_ref

>  <ConformerSites upload name>  (319) 
1b - A71EV2A-x0911/A/147

>  <CanonSites upload name>  (319) 
1 - A71EV2A-x0911/A/147/1

>  <CrystalformSites upload name>  (319) 
F8h - A71EV2A-x0884/A/147/1

>  <Quatassemblies upload name>  (319) 
A1 - monomer

>  <Crystalforms upload name>  (319) 
F8 - A712A_x4271_2.1_refmac1_1st_ref

>  <ConformerSites short tag>  (319) 
1b - A0911/A/147

>  <CanonSites short tag>  (319) 
1 - A0911/A/147/1

>  <CrystalformSites short tag>  (319) 
F8h - A0884/A/147

>  <Quatassemblies short tag>  (319) 
A1 - monomer

>  <Crystalforms short tag>  (319) 
F8 - A712A_x4271_2.1_refmac1_1st_ref

>  <Centroid res>  (319) 
A71EV2A-x0911/A/133/A_v1

>  <Experiment code>  (319) 
A71EV2A-x4346

>  <Pose>  (319) 
A4346a

$$$$
A4347a
     RDKit          3D

 20 21  0  0  0  0  0  0  0  0999 V2000
   10.4570   16.5920   19.2800 O   0  0  0  0  0  0  0  0  0  0  0  0
   10.8680   15.4450   19.4840 C   0  0  0  0  0  0  0  0  0  0  0  0
   11.1940   14.6230   18.5050 N   0  0  0  0  0  0  0  0  0  0  0  0
   10.9390   14.8670   20.8890 C   0  0  1  0  0  0  0  0  0  0  0  0
   12.1270   15.4380   21.6880 C   0  0  0  0  0  0  0  0  0  0  0  0
   12.2300   14.7960   23.0760 C   0  0  0  0  0  0  0  0  0  0  0  0
   10.9120   14.9090   23.8220 C   0  0  0  0  0  0  0  0  0  0  0  0
    9.6500   14.9960   21.7030 C   0  0  0  0  0  0  0  0  0  0  0  0
    9.8030   14.3670   23.0180 N   0  0  0  0  0  0  0  0  0  0  0  0
    8.9440   13.4070   23.4270 C   0  0  0  0  0  0  0  0  0  0  0  0
    8.0290   13.0060   22.7130 O   0  0  0  0  0  0  0  0  0  0  0  0
    9.1720   12.8620   24.8260 C   0  0  0  0  0  0  0  0  0  0  0  0
    8.2550   11.7130   25.1830 C   0  0  0  0  0  0  0  0  0  0  0  0
    8.3530   10.4180   24.6220 C   0  0  0  0  0  0  0  0  0  0  0  0
    9.3990   10.2460   23.7840 O   0  0  0  0  0  0  0  0  0  0  0  0
    9.5410    8.9890   23.1330 C   0  0  0  0  0  0  0  0  0  0  0  0
    7.2850   11.8780   26.1650 C   0  0  0  0  0  0  0  0  0  0  0  0
    6.4650   10.8260   26.5270 C   0  0  0  0  0  0  0  0  0  0  0  0
    6.6290    9.6250   25.8900 C   0  0  0  0  0  0  0  0  0  0  0  0
    7.5550    9.4050   24.9440 N   0  0  0  0  0  0  0  0  0  0  0  0
 16 15  1  0
 15 14  1  0
 14 20  2  0
 20 19  1  0
 19 18  2  0
 18 17  1  0
 17 13  2  0
 14 13  1  0
 13 12  1  0
 12 10  1  0
 11 10  2  0
 10  9  1  0
  9  7  1  0
  7  6  1  0
  6  5  1  0
  5  4  1  0
  4  2  1  6
  3  2  1  0
  2  1  2  0
  8  4  1  0
  9  8  1  0
M  END
>  <id>  (320) 
320

>  <inchikey>  (320) 
DPQNQDXNIINHJH-NSHDSACASA-N

>  <alias>  (320) 
A4347a

>  <smiles>  (320) 
COc1ncccc1CC(=O)N1CCC[C@H](C(N)=O)C1

>  <path>  (320) 
/opt/xchem-fragalysis-2/maxwin/BulkDock/TARGETS/A71EV2A/aligned_files/A4347a/A4347a.pdb

>  <distance_score>  (320) 
None

>  <energy_score>  (320) 
None

>  <compound>  (320) 
DPQNQDXNIINHJH-UHFFFAOYSA-N

>  <compound_id>  (320) 
120

>  <target>  (320) 
A71EV2A

>  <tags>  (320) 
['GOOD count', 'MEDIOCRE count', '[Other] S1 site', 'hits', '[Other] S2 site', '[Other] P3 compound design', '[Other] upload_2 2024-12-12', 'Main status', '[Series] Piperidine series', 'BAD count']

>  <inspirations>  (320) 
None

>  <subsites>  (320) 
None

>  <reference>  (320) 


>  <observation_longname>  (320) 
A71EV2A-x4347_A_201_v1

>  <ConformerSites alias>  (320) 
1b - A0911/A/147

>  <CanonSites alias>  (320) 
1 - Active Site

>  <CrystalformSites alias>  (320) 
F8h - A0884/A/147

>  <Quatassemblies alias>  (320) 
A1 - monomer

>  <Crystalforms alias>  (320) 
F8 - A712A_x4271_2.1_refmac1_1st_ref

>  <ConformerSites upload name>  (320) 
1b - A71EV2A-x0911/A/147

>  <CanonSites upload name>  (320) 
1 - A71EV2A-x0911/A/147/1

>  <CrystalformSites upload name>  (320) 
F8h - A71EV2A-x0884/A/147/1

>  <Quatassemblies upload name>  (320) 
A1 - monomer

>  <Crystalforms upload name>  (320) 
F8 - A712A_x4271_2.1_refmac1_1st_ref

>  <ConformerSites short tag>  (320) 
1b - A0911/A/147

>  <CanonSites short tag>  (320) 
1 - A0911/A/147/1

>  <CrystalformSites short tag>  (320) 
F8h - A0884/A/147

>  <Quatassemblies short tag>  (320) 
A1 - monomer

>  <Crystalforms short tag>  (320) 
F8 - A712A_x4271_2.1_refmac1_1st_ref

>  <Centroid res>  (320) 
A71EV2A-x0911/A/133/A_v1

>  <Experiment code>  (320) 
A71EV2A-x4347

>  <Pose>  (320) 
A4347a

$$$$
A4350a
     RDKit          3D

 19 20  0  0  0  0  0  0  0  0999 V2000
   10.4790   16.7580   19.2200 O   0  0  0  0  0  0  0  0  0  0  0  0
   10.7690   15.5770   19.4340 C   0  0  0  0  0  0  0  0  0  0  0  0
   11.0700   14.7260   18.4670 N   0  0  0  0  0  0  0  0  0  0  0  0
   10.8130   15.0230   20.8490 C   0  0  1  0  0  0  0  0  0  0  0  0
   11.9160   15.6980   21.6850 C   0  0  0  0  0  0  0  0  0  0  0  0
   11.9260   15.1980   23.1330 C   0  0  0  0  0  0  0  0  0  0  0  0
   10.5540   15.3440   23.7620 C   0  0  0  0  0  0  0  0  0  0  0  0
    9.4690   15.2220   21.5530 C   0  0  0  0  0  0  0  0  0  0  0  0
    9.5370   14.6940   22.9200 N   0  0  0  0  0  0  0  0  0  0  0  0
    8.7310   13.6860   23.3130 C   0  0  0  0  0  0  0  0  0  0  0  0
    7.8590   13.2380   22.5880 O   0  0  0  0  0  0  0  0  0  0  0  0
    8.9510   13.1270   24.7050 C   0  0  0  0  0  0  0  0  0  0  0  0
    8.7030   11.6360   24.7230 C   0  0  0  0  0  0  0  0  0  0  0  0
    7.6540   11.0680   25.4530 C   0  0  0  0  0  0  0  0  0  0  0  0
    6.7530   11.8870   26.3440 C   0  0  0  0  0  0  0  0  0  0  0  0
    9.4730   10.8110   23.9090 C   0  0  0  0  0  0  0  0  0  0  0  0
    9.1670    9.4700   23.8330 C   0  0  0  0  0  0  0  0  0  0  0  0
    8.1620    8.9060   24.5120 N   0  0  0  0  0  0  0  0  0  0  0  0
    7.4370    9.7070   25.3030 C   0  0  0  0  0  0  0  0  0  0  0  0
 15 14  1  0
 14 19  2  0
 19 18  1  0
 18 17  2  0
 17 16  1  0
 16 13  2  0
 14 13  1  0
 13 12  1  0
 12 10  1  0
 11 10  2  0
 10  9  1  0
  9  7  1  0
  7  6  1  0
  6  5  1  0
  5  4  1  0
  4  2  1  6
  3  2  1  0
  2  1  2  0
  8  4  1  0
  9  8  1  0
M  END
>  <id>  (321) 
321

>  <inchikey>  (321) 
CGUHDJYKIPZZJZ-LBPRGKRZSA-N

>  <alias>  (321) 
A4350a

>  <smiles>  (321) 
Cc1cnccc1CC(=O)N1CCC[C@H](C(N)=O)C1

>  <path>  (321) 
/opt/xchem-fragalysis-2/maxwin/BulkDock/TARGETS/A71EV2A/aligned_files/A4350a/A4350a.pdb

>  <distance_score>  (321) 
None

>  <energy_score>  (321) 
None

>  <compound>  (321) 
CGUHDJYKIPZZJZ-UHFFFAOYSA-N

>  <compound_id>  (321) 
247

>  <target>  (321) 
A71EV2A

>  <tags>  (321) 
['GOOD count', 'MEDIOCRE count', '[Other] S1 site', 'hits', '[Other] S2 site', '[Other] P3 compound design', '[Other] upload_1 2025-02-12', 'Main status', '[Series] Piperidine series', 'BAD count']

>  <inspirations>  (321) 
None

>  <subsites>  (321) 
None

>  <reference>  (321) 


>  <observation_longname>  (321) 
A71EV2A-x4350_A_201_v1

>  <ConformerSites alias>  (321) 
1b - A0911/A/147

>  <CanonSites alias>  (321) 
1 - Active Site

>  <CrystalformSites alias>  (321) 
F8h - A0884/A/147

>  <Quatassemblies alias>  (321) 
A1 - monomer

>  <Crystalforms alias>  (321) 
F8 - A712A_x4271_2.1_refmac1_1st_ref

>  <ConformerSites upload name>  (321) 
1b - A71EV2A-x0911/A/147

>  <CanonSites upload name>  (321) 
1 - A71EV2A-x0911/A/147/1

>  <CrystalformSites upload name>  (321) 
F8h - A71EV2A-x0884/A/147/1

>  <Quatassemblies upload name>  (321) 
A1 - monomer

>  <Crystalforms upload name>  (321) 
F8 - A712A_x4271_2.1_refmac1_1st_ref

>  <ConformerSites short tag>  (321) 
1b - A0911/A/147

>  <CanonSites short tag>  (321) 
1 - A0911/A/147/1

>  <CrystalformSites short tag>  (321) 
F8h - A0884/A/147

>  <Quatassemblies short tag>  (321) 
A1 - monomer

>  <Crystalforms short tag>  (321) 
F8 - A712A_x4271_2.1_refmac1_1st_ref

>  <Centroid res>  (321) 
A71EV2A-x0911/A/133/A_v1

>  <Experiment code>  (321) 
A71EV2A-x4350

>  <Pose>  (321) 
A4350a

$$$$
A4351a
     RDKit          3D

 20 22  0  0  0  0  0  0  0  0999 V2000
    9.9080   15.4430   20.0670 O   0  0  0  0  0  0  0  0  0  0  0  0
   10.9450   14.8620   19.7130 C   0  0  0  0  0  0  0  0  0  0  0  0
   11.1420   14.4050   18.4870 N   0  0  0  0  0  0  0  0  0  0  0  0
   12.0990   14.6820   20.6700 C   0  0  0  0  0  0  0  0  0  0  0  0
   11.7430   14.0500   22.0310 C   0  0  2  0  0  0  0  0  0  0  0  0
   10.3690   13.3850   22.1160 C   0  0  0  0  0  0  0  0  0  0  0  0
    9.9160   13.0930   23.4800 N   0  0  0  0  0  0  0  0  0  0  0  0
   10.9780   13.1340   24.4940 C   0  0  0  0  0  0  0  0  0  0  0  0
   11.6630   14.4740   24.5440 C   0  0  0  0  0  0  0  0  0  0  0  0
   11.8700   15.0710   23.1500 C   0  0  0  0  0  0  0  0  0  0  0  0
    9.1760   11.9620   23.6900 C   0  0  0  0  0  0  0  0  0  0  0  0
    8.1020   11.9840   24.6450 C   0  0  0  0  0  0  0  0  0  0  0  0
    7.7250   10.7250   25.1650 C   0  0  0  0  0  0  0  0  0  0  0  0
    8.2960    9.5490   24.7420 N   0  0  0  0  0  0  0  0  0  0  0  0
    9.2430    9.6680   23.8080 C   0  0  0  0  0  0  0  0  0  0  0  0
    9.7200   10.7710   23.2250 N   0  0  0  0  0  0  0  0  0  0  0  0
    7.4210   13.1360   25.1130 C   0  0  0  0  0  0  0  0  0  0  0  0
    6.4510   13.0380   26.0650 C   0  0  0  0  0  0  0  0  0  0  0  0
    6.1150   11.8060   26.6000 C   0  0  0  0  0  0  0  0  0  0  0  0
    6.7310   10.6670   26.1690 C   0  0  0  0  0  0  0  0  0  0  0  0
  3  2  1  0
  2  1  2  0
  4  2  1  0
  5  4  1  6
  5 10  1  0
 10  9  1  0
  9  8  1  0
  8  7  1  0
 11  7  1  0
 11 16  2  0
 16 15  1  0
 15 14  2  0
 14 13  1  0
 13 20  2  0
 20 19  1  0
 19 18  2  0
 18 17  1  0
 17 12  2  0
 12 11  1  0
 13 12  1  0
  7  6  1  0
  6  5  1  0
M  END
>  <id>  (322) 
322

>  <inchikey>  (322) 
JUSCUUOSRYPCRL-LLVKDONJSA-N

>  <alias>  (322) 
A4351a

>  <smiles>  (322) 
NC(=O)C[C@H]1CCCN(c2ncnc3ccccc23)C1

>  <path>  (322) 
/opt/xchem-fragalysis-2/maxwin/BulkDock/TARGETS/A71EV2A/aligned_files/A4351a/A4351a.pdb

>  <distance_score>  (322) 
None

>  <energy_score>  (322) 
None

>  <compound>  (322) 
JUSCUUOSRYPCRL-UHFFFAOYSA-N

>  <compound_id>  (322) 
248

>  <target>  (322) 
A71EV2A

>  <tags>  (322) 
['GOOD count', 'MEDIOCRE count', '[Other] S1 site', 'hits', '[Other] S2 site', '[Other] P3 compound design', '[Other] upload_1 2025-02-12', 'Main status', 'BAD count']

>  <inspirations>  (322) 
None

>  <subsites>  (322) 
None

>  <reference>  (322) 


>  <observation_longname>  (322) 
A71EV2A-x4351_A_201_v1

>  <ConformerSites alias>  (322) 
1b - A0911/A/147

>  <CanonSites alias>  (322) 
1 - Active Site

>  <CrystalformSites alias>  (322) 
F5i - A3175/A/201

>  <Quatassemblies alias>  (322) 
A1 - monomer

>  <Crystalforms alias>  (322) 
F5 - A71EV2A_x3178_new_long_dials_041024

>  <ConformerSites upload name>  (322) 
1b - A71EV2A-x0911/A/147

>  <CanonSites upload name>  (322) 
1 - A71EV2A-x0911/A/147/1

>  <CrystalformSites upload name>  (322) 
F5i - A71EV2A-x3175/A/201/1

>  <Quatassemblies upload name>  (322) 
A1 - monomer

>  <Crystalforms upload name>  (322) 
F5 - A71EV2A_x3178_new_long_dials_041024

>  <ConformerSites short tag>  (322) 
1b - A0911/A/147

>  <CanonSites short tag>  (322) 
1 - A0911/A/147/1

>  <CrystalformSites short tag>  (322) 
F5i - A3175/A/201

>  <Quatassemblies short tag>  (322) 
A1 - monomer

>  <Crystalforms short tag>  (322) 
F5 - A71EV2A_x3178_new_long_dials_041024

>  <Centroid res>  (322) 
A71EV2A-x0911/A/133/A_v1

>  <Experiment code>  (322) 
A71EV2A-x4351

>  <Pose>  (322) 
A4351a

$$$$
A4365a
     RDKit          3D

 22 24  0  0  0  0  0  0  0  0999 V2000
    7.8720   13.5680   22.6130 O   0  0  0  0  0  0  0  0  0  0  0  0
    8.8350   13.9310   23.2800 C   0  0  0  0  0  0  0  0  0  0  0  0
    9.5760   15.0080   22.9590 N   0  0  0  0  0  0  0  0  0  0  0  0
   10.7350   15.4950   23.7200 C   0  0  0  0  0  0  0  0  0  0  0  0
   12.0220   15.2160   22.9450 C   0  0  0  0  0  0  0  0  0  0  0  0
   11.9180   15.7360   21.5090 C   0  0  0  0  0  0  0  0  0  0  0  0
    9.4380   15.6050   21.6300 C   0  0  0  0  0  0  0  0  0  0  0  0
   10.6580   15.1860   20.8110 C   0  0  1  0  0  0  0  0  0  0  0  0
   10.5700   15.6290   19.3620 C   0  0  0  0  0  0  0  0  0  0  0  0
   10.3070   16.7960   19.0680 O   0  0  0  0  0  0  0  0  0  0  0  0
   10.7870   14.6860   18.4560 N   0  0  0  0  0  0  0  0  0  0  0  0
    9.3380   13.1320   24.4640 C   0  0  0  0  0  0  0  0  0  0  0  0
    8.5330   11.8690   24.6110 C   0  0  0  0  0  0  0  0  0  0  0  0
    7.3910   11.8490   25.4050 C   0  0  0  0  0  0  0  0  0  0  0  0
    6.9550   13.0550   25.8950 O   0  0  0  0  0  0  0  0  0  0  0  0
    6.0900   12.9860   27.0570 C   0  0  0  0  0  0  0  0  0  0  0  0
    5.0750   11.8960   26.9180 C   0  0  0  0  0  0  0  0  0  0  0  0
    5.6050   10.6180   26.4650 O   0  0  0  0  0  0  0  0  0  0  0  0
    6.6920   10.6680   25.6270 C   0  0  0  0  0  0  0  0  0  0  0  0
    7.1150    9.4960   25.0220 C   0  0  0  0  0  0  0  0  0  0  0  0
    8.2360    9.5100   24.2090 C   0  0  0  0  0  0  0  0  0  0  0  0
    8.9410   10.6840   24.0030 C   0  0  0  0  0  0  0  0  0  0  0  0
 11  9  1  0
 10  9  2  0
  8  9  1  6
  8  6  1  0
  6  5  1  0
  5  4  1  0
  4  3  1  0
  3  2  1  0
  2  1  2  0
 12  2  1  0
 13 12  1  0
 13 22  1  0
 22 21  2  0
 21 20  1  0
 20 19  2  0
 19 14  1  0
 14 13  2  0
 15 14  1  0
 16 15  1  0
 17 16  1  0
 18 17  1  0
 19 18  1  0
  7  3  1  0
  8  7  1  0
M  END
>  <id>  (323) 
323

>  <inchikey>  (323) 
FRGPDZGWTMZAON-LBPRGKRZSA-N

>  <alias>  (323) 
A4365a

>  <smiles>  (323) 
NC(=O)[C@H]1CCCN(C(=O)Cc2cccc3c2OCCO3)C1

>  <path>  (323) 
/opt/xchem-fragalysis-2/maxwin/BulkDock/TARGETS/A71EV2A/aligned_files/A4365a/A4365a_hippo.pdb

>  <distance_score>  (323) 
None

>  <energy_score>  (323) 
None

>  <compound>  (323) 
FRGPDZGWTMZAON-UHFFFAOYSA-N

>  <compound_id>  (323) 
249

>  <target>  (323) 
A71EV2A

>  <tags>  (323) 
['GOOD count', 'MEDIOCRE count', '[Other] S1 site', 'hits', '[Other] S2 site', '[Other] P3 compound design', '[Other] upload_2 2024-12-12', 'Main status', '[Series] Piperidine series', 'BAD count']

>  <inspirations>  (323) 
None

>  <subsites>  (323) 
None

>  <reference>  (323) 


>  <observation_longname>  (323) 
A71EV2A-x4365_A_201_v1

>  <ConformerSites alias>  (323) 
1b - A0911/A/147

>  <CanonSites alias>  (323) 
1 - Active Site

>  <CrystalformSites alias>  (323) 
F7q - A4303/A/201

>  <Quatassemblies alias>  (323) 
A1 - monomer

>  <Crystalforms alias>  (323) 
F7 - A712A_x4207_8.1_refmac1_1st_ref

>  <ConformerSites upload name>  (323) 
1b - A71EV2A-x0911/A/147

>  <CanonSites upload name>  (323) 
1 - A71EV2A-x0911/A/147/1

>  <CrystalformSites upload name>  (323) 
F7q - A71EV2A-x4303/A/201/1

>  <Quatassemblies upload name>  (323) 
A1 - monomer

>  <Crystalforms upload name>  (323) 
F7 - A712A_x4207_8.1_refmac1_1st_ref

>  <ConformerSites short tag>  (323) 
1b - A0911/A/147

>  <CanonSites short tag>  (323) 
1 - A0911/A/147/1

>  <CrystalformSites short tag>  (323) 
F7q - A4303/A/201

>  <Quatassemblies short tag>  (323) 
A1 - monomer

>  <Crystalforms short tag>  (323) 
F7 - A712A_x4207_8.1_refmac1_1st_ref

>  <Centroid res>  (323) 
A71EV2A-x0911/A/133/A_v1

>  <Experiment code>  (323) 
A71EV2A-x4365

>  <Pose>  (323) 
A4365a

$$$$
A4365b
     RDKit          3D

 22 24  0  0  0  0  0  0  0  0999 V2000
    8.0200   13.4600   22.6620 O   0  0  0  0  0  0  0  0  0  0  0  0
    8.9820   13.8830   23.3060 C   0  0  0  0  0  0  0  0  0  0  0  0
    9.7160   14.9430   22.9100 N   0  0  0  0  0  0  0  0  0  0  0  0
   10.7570   15.6180   23.6990 C   0  0  0  0  0  0  0  0  0  0  0  0
   12.1140   15.4260   23.0300 C   0  0  0  0  0  0  0  0  0  0  0  0
   12.0670   15.8730   21.5680 C   0  0  0  0  0  0  0  0  0  0  0  0
    9.6070   15.4200   21.5320 C   0  0  0  0  0  0  0  0  0  0  0  0
   10.9270   15.1640   20.8110 C   0  0  1  0  0  0  0  0  0  0  0  0
   10.7800   15.6760   19.3890 C   0  0  0  0  0  0  0  0  0  0  0  0
   10.4060   16.8330   19.1640 O   0  0  0  0  0  0  0  0  0  0  0  0
   10.9790   14.7760   18.4370 N   0  0  0  0  0  0  0  0  0  0  0  0
    9.4480   13.2090   24.5780 C   0  0  0  0  0  0  0  0  0  0  0  0
    8.6610   11.9360   24.7650 C   0  0  0  0  0  0  0  0  0  0  0  0
    7.5130   11.9230   25.5510 C   0  0  0  0  0  0  0  0  0  0  0  0
    7.1130   13.1260   26.0740 O   0  0  0  0  0  0  0  0  0  0  0  0
    6.2520   13.0190   27.2210 C   0  0  0  0  0  0  0  0  0  0  0  0
    5.1580   12.0110   26.9620 C   0  0  0  0  0  0  0  0  0  0  0  0
    5.6580   10.7220   26.5230 O   0  0  0  0  0  0  0  0  0  0  0  0
    6.7960   10.7490   25.7560 C   0  0  0  0  0  0  0  0  0  0  0  0
    7.2200    9.5700   25.1630 C   0  0  0  0  0  0  0  0  0  0  0  0
    8.3500    9.5760   24.3600 C   0  0  0  0  0  0  0  0  0  0  0  0
    9.0590   10.7480   24.1550 C   0  0  0  0  0  0  0  0  0  0  0  0
 11  9  1  0
 10  9  2  0
  8  9  1  6
  8  6  1  0
  6  5  1  0
  5  4  1  0
  4  3  1  0
  3  2  1  0
  2  1  2  0
 12  2  1  0
 13 12  1  0
 13 22  1  0
 22 21  2  0
 21 20  1  0
 20 19  2  0
 19 14  1  0
 14 13  2  0
 15 14  1  0
 16 15  1  0
 17 16  1  0
 18 17  1  0
 19 18  1  0
  7  3  1  0
  8  7  1  0
M  END
>  <id>  (324) 
324

>  <inchikey>  (324) 
FRGPDZGWTMZAON-LBPRGKRZSA-N

>  <alias>  (324) 
A4365b

>  <smiles>  (324) 
NC(=O)[C@H]1CCCN(C(=O)Cc2cccc3c2OCCO3)C1

>  <path>  (324) 
/opt/xchem-fragalysis-2/maxwin/BulkDock/TARGETS/A71EV2A/aligned_files/A4365b/A4365b_hippo.pdb

>  <distance_score>  (324) 
None

>  <energy_score>  (324) 
None

>  <compound>  (324) 
FRGPDZGWTMZAON-UHFFFAOYSA-N

>  <compound_id>  (324) 
249

>  <target>  (324) 
A71EV2A

>  <tags>  (324) 
['GOOD count', 'MEDIOCRE count', '[Other] S1 site', 'hits', '[Other] S2 site', '[Other] P3 compound design', '[Other] upload_2 2024-12-12', 'Main status', '[Series] Piperidine series', 'BAD count']

>  <inspirations>  (324) 
None

>  <subsites>  (324) 
None

>  <reference>  (324) 


>  <observation_longname>  (324) 
A71EV2A-x4365_C_201_v1

>  <ConformerSites alias>  (324) 
1b - A0911/A/147

>  <CanonSites alias>  (324) 
1 - Active Site

>  <CrystalformSites alias>  (324) 
F7r - A4303/C/201

>  <Quatassemblies alias>  (324) 
A1 - monomer

>  <Crystalforms alias>  (324) 
F7 - A712A_x4207_8.1_refmac1_1st_ref

>  <ConformerSites upload name>  (324) 
1b - A71EV2A-x0911/A/147

>  <CanonSites upload name>  (324) 
1 - A71EV2A-x0911/A/147/1

>  <CrystalformSites upload name>  (324) 
F7r - A71EV2A-x4303/C/201/1

>  <Quatassemblies upload name>  (324) 
A1 - monomer

>  <Crystalforms upload name>  (324) 
F7 - A712A_x4207_8.1_refmac1_1st_ref

>  <ConformerSites short tag>  (324) 
1b - A0911/A/147

>  <CanonSites short tag>  (324) 
1 - A0911/A/147/1

>  <CrystalformSites short tag>  (324) 
F7r - A4303/C/201

>  <Quatassemblies short tag>  (324) 
A1 - monomer

>  <Crystalforms short tag>  (324) 
F7 - A712A_x4207_8.1_refmac1_1st_ref

>  <Centroid res>  (324) 
A71EV2A-x0911/A/133/A_v1

>  <Experiment code>  (324) 
A71EV2A-x4365

>  <Pose>  (324) 
A4365a

$$$$
A4368a
     RDKit          3D

 21 22  0  0  0  0  0  0  0  0999 V2000
   10.4050   16.6250   19.1440 O   0  0  0  0  0  0  0  0  0  0  0  0
   10.7790   15.4730   19.3810 C   0  0  0  0  0  0  0  0  0  0  0  0
   11.1770   14.6340   18.4350 N   0  0  0  0  0  0  0  0  0  0  0  0
   10.8060   14.9350   20.7990 C   0  0  1  0  0  0  0  0  0  0  0  0
   11.9790   15.5360   21.5920 C   0  0  0  0  0  0  0  0  0  0  0  0
   11.9890   15.0250   23.0320 C   0  0  0  0  0  0  0  0  0  0  0  0
   10.6520   15.2970   23.7010 C   0  0  0  0  0  0  0  0  0  0  0  0
    9.4880   15.2200   21.5300 C   0  0  0  0  0  0  0  0  0  0  0  0
    9.5480   14.7280   22.9100 N   0  0  0  0  0  0  0  0  0  0  0  0
    8.6460   13.8380   23.3820 C   0  0  0  0  0  0  0  0  0  0  0  0
    7.7610   13.3750   22.6790 O   0  0  0  0  0  0  0  0  0  0  0  0
    8.7630   13.4640   24.8500 C   0  0  0  0  0  0  0  0  0  0  0  0
    7.7230   12.4570   25.2860 C   0  0  0  0  0  0  0  0  0  0  0  0
    6.5700   12.9130   25.9230 C   0  0  0  0  0  0  0  0  0  0  0  0
    5.6390   12.0250   26.4290 C   0  0  0  0  0  0  0  0  0  0  0  0
    5.8350   10.6720   26.2930 C   0  0  0  0  0  0  0  0  0  0  0  0
    6.9650   10.1970   25.6500 C   0  0  0  0  0  0  0  0  0  0  0  0
    7.9220   11.0730   25.1450 C   0  0  0  0  0  0  0  0  0  0  0  0
    9.1600   10.5120   24.4970 C   0  0  0  0  0  0  0  0  0  0  0  0
    8.8830    9.2480   23.9390 O   0  0  0  0  0  0  0  0  0  0  0  0
   10.0620    8.6070   23.4940 C   0  0  0  0  0  0  0  0  0  0  0  0
 21 20  1  0
 20 19  1  0
 19 18  1  0
 18 17  1  0
 17 16  2  0
 16 15  1  0
 15 14  2  0
 14 13  1  0
 18 13  2  0
 13 12  1  0
 12 10  1  0
 11 10  2  0
 10  9  1  0
  9  7  1  0
  7  6  1  0
  6  5  1  0
  5  4  1  0
  4  2  1  6
  3  2  1  0
  2  1  2  0
  8  4  1  0
  9  8  1  0
M  END
>  <id>  (325) 
325

>  <inchikey>  (325) 
GQZCOZOYCMVRCF-ZDUSSCGKSA-N

>  <alias>  (325) 
A4368a

>  <smiles>  (325) 
COCc1ccccc1CC(=O)N1CCC[C@H](C(N)=O)C1

>  <path>  (325) 
/opt/xchem-fragalysis-2/maxwin/BulkDock/TARGETS/A71EV2A/aligned_files/A4368a/A4368a.pdb

>  <distance_score>  (325) 
None

>  <energy_score>  (325) 
None

>  <compound>  (325) 
GQZCOZOYCMVRCF-UHFFFAOYSA-N

>  <compound_id>  (325) 
250

>  <target>  (325) 
A71EV2A

>  <tags>  (325) 
['GOOD count', 'MEDIOCRE count', '[Other] S1 site', 'hits', '[Other] S2 site', '[Other] P3 compound design', '[Other] upload_1 2025-02-12', 'Main status', '[Series] Piperidine series', 'BAD count']

>  <inspirations>  (325) 
None

>  <subsites>  (325) 
None

>  <reference>  (325) 


>  <observation_longname>  (325) 
A71EV2A-x4368_A_201_v1

>  <ConformerSites alias>  (325) 
1b - A0911/A/147

>  <CanonSites alias>  (325) 
1 - Active Site

>  <CrystalformSites alias>  (325) 
F1a - A0375/A/201

>  <Quatassemblies alias>  (325) 
A1 - monomer

>  <Crystalforms alias>  (325) 
F1 - A71_2A_open

>  <ConformerSites upload name>  (325) 
1b - A71EV2A-x0911/A/147

>  <CanonSites upload name>  (325) 
1 - A71EV2A-x0911/A/147/1

>  <CrystalformSites upload name>  (325) 
F1a - A71EV2A-x0375/A/201/1

>  <Quatassemblies upload name>  (325) 
A1 - monomer

>  <Crystalforms upload name>  (325) 
F1 - A71_2A_open

>  <ConformerSites short tag>  (325) 
1b - A0911/A/147

>  <CanonSites short tag>  (325) 
1 - A0911/A/147/1

>  <CrystalformSites short tag>  (325) 
F1a - A0375/A/201

>  <Quatassemblies short tag>  (325) 
A1 - monomer

>  <Crystalforms short tag>  (325) 
F1 - A71_2A_open

>  <Centroid res>  (325) 
A71EV2A-x0911/A/133/A_v1

>  <Experiment code>  (325) 
A71EV2A-x4368

>  <Pose>  (325) 
A4368a

$$$$
A4372a
     RDKit          3D

 19 20  0  0  0  0  0  0  0  0999 V2000
    7.7060   13.1690   22.6410 O   0  0  0  0  0  0  0  0  0  0  0  0
    8.7130   13.4130   23.2860 C   0  0  0  0  0  0  0  0  0  0  0  0
    9.5520   14.4150   22.9510 N   0  0  0  0  0  0  0  0  0  0  0  0
   10.6550   14.9270   23.7820 C   0  0  0  0  0  0  0  0  0  0  0  0
   11.9850   14.8470   23.0330 C   0  0  0  0  0  0  0  0  0  0  0  0
   11.8720   15.4650   21.6370 C   0  0  0  0  0  0  0  0  0  0  0  0
    9.4250   15.0810   21.6530 C   0  0  0  0  0  0  0  0  0  0  0  0
   10.7040   14.8510   20.8520 C   0  0  1  0  0  0  0  0  0  0  0  0
   10.6120   15.4020   19.4390 C   0  0  0  0  0  0  0  0  0  0  0  0
   10.2860   16.5710   19.2310 O   0  0  0  0  0  0  0  0  0  0  0  0
   10.8780   14.5450   18.4690 N   0  0  0  0  0  0  0  0  0  0  0  0
    9.1000   12.5800   24.4950 C   0  0  0  0  0  0  0  0  0  0  0  0
    7.9350   12.3800   25.4360 C   0  0  0  0  0  0  0  0  0  0  0  0
    7.2470   13.4430   26.0330 C   0  0  0  0  0  0  0  0  0  0  0  0
    7.6160   14.7060   25.9920 O   0  0  0  0  0  0  0  0  0  0  0  0
    6.1010   13.2820   26.8250 N   0  0  0  0  0  0  0  0  0  0  0  0
    5.6990   12.0190   27.0300 C   0  0  0  0  0  0  0  0  0  0  0  0
    6.3450   10.9140   26.5120 C   0  0  0  0  0  0  0  0  0  0  0  0
    7.4580   11.1010   25.7070 C   0  0  0  0  0  0  0  0  0  0  0  0
 11  9  1  0
 10  9  2  0
  8  9  1  6
  8  6  1  0
  6  5  1  0
  5  4  1  0
  4  3  1  0
  3  2  1  0
  2  1  2  0
 12  2  1  0
 13 12  1  0
 13 19  2  0
 19 18  1  0
 18 17  2  0
 17 16  1  0
 16 14  2  0
 14 13  1  0
 15 14  1  0
  7  3  1  0
  8  7  1  0
M  END
>  <id>  (326) 
326

>  <inchikey>  (326) 
YJUWSGAKKBDWFC-JTQLQIEISA-N

>  <alias>  (326) 
A4372a

>  <smiles>  (326) 
NC(=O)[C@H]1CCCN(C(=O)Cc2cccnc2O)C1

>  <path>  (326) 
/opt/xchem-fragalysis-2/maxwin/BulkDock/TARGETS/A71EV2A/aligned_files/A4372a/A4372a.pdb

>  <distance_score>  (326) 
None

>  <energy_score>  (326) 
None

>  <compound>  (326) 
YJUWSGAKKBDWFC-UHFFFAOYSA-N

>  <compound_id>  (326) 
251

>  <target>  (326) 
A71EV2A

>  <tags>  (326) 
['GOOD count', 'MEDIOCRE count', '[Other] S1 site', 'hits', '[Other] S2 site', '[Other] P3 compound design', '[Other] upload_1 2025-02-12', 'Main status', '[Series] Piperidine series', 'BAD count']

>  <inspirations>  (326) 
None

>  <subsites>  (326) 
None

>  <reference>  (326) 


>  <observation_longname>  (326) 
A71EV2A-x4372_A_201_v1

>  <ConformerSites alias>  (326) 
1b - A0911/A/147

>  <CanonSites alias>  (326) 
1 - Active Site

>  <CrystalformSites alias>  (326) 
F8h - A0884/A/147

>  <Quatassemblies alias>  (326) 
A1 - monomer

>  <Crystalforms alias>  (326) 
F8 - A712A_x4271_2.1_refmac1_1st_ref

>  <ConformerSites upload name>  (326) 
1b - A71EV2A-x0911/A/147

>  <CanonSites upload name>  (326) 
1 - A71EV2A-x0911/A/147/1

>  <CrystalformSites upload name>  (326) 
F8h - A71EV2A-x0884/A/147/1

>  <Quatassemblies upload name>  (326) 
A1 - monomer

>  <Crystalforms upload name>  (326) 
F8 - A712A_x4271_2.1_refmac1_1st_ref

>  <ConformerSites short tag>  (326) 
1b - A0911/A/147

>  <CanonSites short tag>  (326) 
1 - A0911/A/147/1

>  <CrystalformSites short tag>  (326) 
F8h - A0884/A/147

>  <Quatassemblies short tag>  (326) 
A1 - monomer

>  <Crystalforms short tag>  (326) 
F8 - A712A_x4271_2.1_refmac1_1st_ref

>  <Centroid res>  (326) 
A71EV2A-x0911/A/133/A_v1

>  <Experiment code>  (326) 
A71EV2A-x4372

>  <Pose>  (326) 
A4372a

$$$$
A4373a
     RDKit          3D

 21 23  0  0  0  0  0  0  0  0999 V2000
    7.6890   13.4080   22.4600 O   0  0  0  0  0  0  0  0  0  0  0  0
    8.4800   13.9760   23.2000 C   0  0  0  0  0  0  0  0  0  0  0  0
    9.2190   15.0280   22.7890 N   0  0  0  0  0  0  0  0  0  0  0  0
   10.2440   15.6980   23.6070 C   0  0  0  0  0  0  0  0  0  0  0  0
   11.6170   15.4900   22.9950 C   0  0  0  0  0  0  0  0  0  0  0  0
   11.6310   15.9240   21.5220 C   0  0  0  0  0  0  0  0  0  0  0  0
    9.1440   15.5650   21.4270 C   0  0  0  0  0  0  0  0  0  0  0  0
   10.4750   15.3030   20.7170 C   0  0  1  0  0  0  0  0  0  0  0  0
   10.5080   15.7670   19.2700 C   0  0  0  0  0  0  0  0  0  0  0  0
   10.1840   16.9140   18.9590 O   0  0  0  0  0  0  0  0  0  0  0  0
   10.9780   14.8960   18.3970 N   0  0  0  0  0  0  0  0  0  0  0  0
    8.6820   13.5380   24.6400 C   0  0  0  0  0  0  0  0  0  0  0  0
    7.9860   12.2380   24.9470 C   0  0  0  0  0  0  0  0  0  0  0  0
    8.3500   11.0600   24.2950 C   0  0  0  0  0  0  0  0  0  0  0  0
    9.4510   10.8410   23.4930 O   0  0  0  0  0  0  0  0  0  0  0  0
    9.4750    9.4240   23.2840 C   0  0  0  0  0  0  0  0  0  0  0  0
    8.2540    8.8810   23.7950 O   0  0  0  0  0  0  0  0  0  0  0  0
    7.7350    9.8760   24.5910 C   0  0  0  0  0  0  0  0  0  0  0  0
    6.7190    9.8030   25.5340 C   0  0  0  0  0  0  0  0  0  0  0  0
    6.3430   10.9670   26.1900 C   0  0  0  0  0  0  0  0  0  0  0  0
    6.9780   12.1670   25.9100 C   0  0  0  0  0  0  0  0  0  0  0  0
 11  9  1  0
 10  9  2  0
  8  9  1  6
  8  6  1  0
  6  5  1  0
  5  4  1  0
  4  3  1  0
  3  2  1  0
  2  1  2  0
 12  2  1  0
 13 12  1  0
 13 21  2  0
 21 20  1  0
 20 19  2  0
 19 18  1  0
 18 14  2  0
 14 13  1  0
 15 14  1  0
 16 15  1  0
 17 16  1  0
 18 17  1  0
  7  3  1  0
  8  7  1  0
M  END
>  <id>  (327) 
327

>  <inchikey>  (327) 
NOJSSPFVAUJASA-NSHDSACASA-N

>  <alias>  (327) 
A4373a

>  <smiles>  (327) 
NC(=O)[C@H]1CCCN(C(=O)Cc2cccc3c2OCO3)C1

>  <path>  (327) 
/opt/xchem-fragalysis-2/maxwin/BulkDock/TARGETS/A71EV2A/aligned_files/A4373a/A4373a.pdb

>  <distance_score>  (327) 
None

>  <energy_score>  (327) 
None

>  <compound>  (327) 
NOJSSPFVAUJASA-UHFFFAOYSA-N

>  <compound_id>  (327) 
252

>  <target>  (327) 
A71EV2A

>  <tags>  (327) 
['GOOD count', 'MEDIOCRE count', '[Other] S1 site', 'hits', '[Other] S2 site', '[Other] P3 compound design', '[Other] upload_1 2025-02-12', 'Main status', '[Series] Piperidine series', 'BAD count']

>  <inspirations>  (327) 
None

>  <subsites>  (327) 
None

>  <reference>  (327) 


>  <observation_longname>  (327) 
A71EV2A-x4373_A_201_v1

>  <ConformerSites alias>  (327) 
1b - A0911/A/147

>  <CanonSites alias>  (327) 
1 - Active Site

>  <CrystalformSites alias>  (327) 
F8h - A0884/A/147

>  <Quatassemblies alias>  (327) 
A1 - monomer

>  <Crystalforms alias>  (327) 
F8 - A712A_x4271_2.1_refmac1_1st_ref

>  <ConformerSites upload name>  (327) 
1b - A71EV2A-x0911/A/147

>  <CanonSites upload name>  (327) 
1 - A71EV2A-x0911/A/147/1

>  <CrystalformSites upload name>  (327) 
F8h - A71EV2A-x0884/A/147/1

>  <Quatassemblies upload name>  (327) 
A1 - monomer

>  <Crystalforms upload name>  (327) 
F8 - A712A_x4271_2.1_refmac1_1st_ref

>  <ConformerSites short tag>  (327) 
1b - A0911/A/147

>  <CanonSites short tag>  (327) 
1 - A0911/A/147/1

>  <CrystalformSites short tag>  (327) 
F8h - A0884/A/147

>  <Quatassemblies short tag>  (327) 
A1 - monomer

>  <Crystalforms short tag>  (327) 
F8 - A712A_x4271_2.1_refmac1_1st_ref

>  <Centroid res>  (327) 
A71EV2A-x0911/A/133/A_v1

>  <Experiment code>  (327) 
A71EV2A-x4373

>  <Pose>  (327) 
A4373a

$$$$
A4374a
     RDKit          3D

 20 21  0  0  0  0  0  0  0  0999 V2000
    7.7260   13.3050   22.5680 O   0  0  0  0  0  0  0  0  0  0  0  0
    8.6040   13.7330   23.3030 C   0  0  0  0  0  0  0  0  0  0  0  0
    9.4650   14.6970   22.9110 N   0  0  0  0  0  0  0  0  0  0  0  0
   10.5240   15.2660   23.7610 C   0  0  0  0  0  0  0  0  0  0  0  0
   11.8920   15.1380   23.0980 C   0  0  0  0  0  0  0  0  0  0  0  0
   11.8580   15.6670   21.6600 C   0  0  0  0  0  0  0  0  0  0  0  0
    9.4050   15.2360   21.5490 C   0  0  0  0  0  0  0  0  0  0  0  0
   10.7430   14.9880   20.8450 C   0  0  1  0  0  0  0  0  0  0  0  0
   10.6730   15.5280   19.4280 C   0  0  0  0  0  0  0  0  0  0  0  0
   10.3330   16.6960   19.2050 O   0  0  0  0  0  0  0  0  0  0  0  0
   10.9540   14.6590   18.4670 N   0  0  0  0  0  0  0  0  0  0  0  0
    8.7960   13.1980   24.7100 C   0  0  0  0  0  0  0  0  0  0  0  0
    7.7800   12.1420   25.0790 C   0  0  0  0  0  0  0  0  0  0  0  0
    7.9350   10.7990   24.6990 C   0  0  0  0  0  0  0  0  0  0  0  0
    9.0570   10.3680   23.7840 C   0  0  0  0  0  0  0  0  0  0  0  0
   10.0900    9.7310   24.4910 O   0  0  0  0  0  0  0  0  0  0  0  0
    7.0420    9.8520   25.1880 C   0  0  0  0  0  0  0  0  0  0  0  0
    6.0100   10.2190   26.0370 C   0  0  0  0  0  0  0  0  0  0  0  0
    5.8490   11.5330   26.3960 C   0  0  0  0  0  0  0  0  0  0  0  0
    6.7230   12.4910   25.9170 C   0  0  0  0  0  0  0  0  0  0  0  0
 11  9  1  0
 10  9  2  0
  8  9  1  6
  8  6  1  0
  6  5  1  0
  5  4  1  0
  4  3  1  0
  3  2  1  0
  2  1  2  0
 12  2  1  0
 13 12  1  0
 13 20  2  0
 20 19  1  0
 19 18  2  0
 18 17  1  0
 17 14  2  0
 14 13  1  0
 15 14  1  0
 16 15  1  0
  7  3  1  0
  8  7  1  0
M  END
>  <id>  (328) 
328

>  <inchikey>  (328) 
ZCVSMWFZKMVPLV-LBPRGKRZSA-N

>  <alias>  (328) 
A4374a

>  <smiles>  (328) 
NC(=O)[C@H]1CCCN(C(=O)Cc2ccccc2CO)C1

>  <path>  (328) 
/opt/xchem-fragalysis-2/maxwin/BulkDock/TARGETS/A71EV2A/aligned_files/A4374a/A4374a_hippo.pdb

>  <distance_score>  (328) 
None

>  <energy_score>  (328) 
None

>  <compound>  (328) 
ZCVSMWFZKMVPLV-UHFFFAOYSA-N

>  <compound_id>  (328) 
253

>  <target>  (328) 
A71EV2A

>  <tags>  (328) 
['GOOD count', 'MEDIOCRE count', '[Other] S1 site', 'hits', '[Other] S2 site', '[Other] P3 compound design', '[Other] upload_1 2025-02-12', 'Main status', '[Series] Piperidine series', 'BAD count']

>  <inspirations>  (328) 
None

>  <subsites>  (328) 
None

>  <reference>  (328) 


>  <observation_longname>  (328) 
A71EV2A-x4374_A_201_v1

>  <ConformerSites alias>  (328) 
1b - A0911/A/147

>  <CanonSites alias>  (328) 
1 - Active Site

>  <CrystalformSites alias>  (328) 
F7q - A4303/A/201

>  <Quatassemblies alias>  (328) 
A1 - monomer

>  <Crystalforms alias>  (328) 
F7 - A712A_x4207_8.1_refmac1_1st_ref

>  <ConformerSites upload name>  (328) 
1b - A71EV2A-x0911/A/147

>  <CanonSites upload name>  (328) 
1 - A71EV2A-x0911/A/147/1

>  <CrystalformSites upload name>  (328) 
F7q - A71EV2A-x4303/A/201/1

>  <Quatassemblies upload name>  (328) 
A1 - monomer

>  <Crystalforms upload name>  (328) 
F7 - A712A_x4207_8.1_refmac1_1st_ref

>  <ConformerSites short tag>  (328) 
1b - A0911/A/147

>  <CanonSites short tag>  (328) 
1 - A0911/A/147/1

>  <CrystalformSites short tag>  (328) 
F7q - A4303/A/201

>  <Quatassemblies short tag>  (328) 
A1 - monomer

>  <Crystalforms short tag>  (328) 
F7 - A712A_x4207_8.1_refmac1_1st_ref

>  <Centroid res>  (328) 
A71EV2A-x0911/A/133/A_v1

>  <Experiment code>  (328) 
A71EV2A-x4374

>  <Pose>  (328) 
A4374a

$$$$
A4374b
     RDKit          3D

 20 21  0  0  0  0  0  0  0  0999 V2000
    7.9700   13.2540   22.6770 O   0  0  0  0  0  0  0  0  0  0  0  0
    8.8560   13.7260   23.3790 C   0  0  0  0  0  0  0  0  0  0  0  0
    9.6670   14.7200   22.9440 N   0  0  0  0  0  0  0  0  0  0  0  0
   10.7190   15.3790   23.7390 C   0  0  0  0  0  0  0  0  0  0  0  0
   12.0740   15.2660   23.0430 C   0  0  0  0  0  0  0  0  0  0  0  0
   11.9920   15.7470   21.5910 C   0  0  0  0  0  0  0  0  0  0  0  0
    9.5530   15.2400   21.5790 C   0  0  0  0  0  0  0  0  0  0  0  0
   10.8700   15.0200   20.8300 C   0  0  1  0  0  0  0  0  0  0  0  0
   10.7330   15.5460   19.4130 C   0  0  0  0  0  0  0  0  0  0  0  0
   10.3770   16.7140   19.1980 O   0  0  0  0  0  0  0  0  0  0  0  0
   10.9940   14.6730   18.4460 N   0  0  0  0  0  0  0  0  0  0  0  0
    9.1100   13.2090   24.7860 C   0  0  0  0  0  0  0  0  0  0  0  0
    8.1230   12.1410   25.2120 C   0  0  0  0  0  0  0  0  0  0  0  0
    8.2470   10.8010   24.8070 C   0  0  0  0  0  0  0  0  0  0  0  0
    9.3180   10.3670   23.8360 C   0  0  0  0  0  0  0  0  0  0  0  0
   10.3620    9.7030   24.5020 O   0  0  0  0  0  0  0  0  0  0  0  0
    7.3650    9.8490   25.3180 C   0  0  0  0  0  0  0  0  0  0  0  0
    6.3680   10.2130   26.2100 C   0  0  0  0  0  0  0  0  0  0  0  0
    6.2380   11.5260   26.5960 C   0  0  0  0  0  0  0  0  0  0  0  0
    7.1070   12.4830   26.1020 C   0  0  0  0  0  0  0  0  0  0  0  0
 11  9  1  0
 10  9  2  0
  8  9  1  6
  8  6  1  0
  6  5  1  0
  5  4  1  0
  4  3  1  0
  3  2  1  0
  2  1  2  0
 12  2  1  0
 13 12  1  0
 13 20  2  0
 20 19  1  0
 19 18  2  0
 18 17  1  0
 17 14  2  0
 14 13  1  0
 15 14  1  0
 16 15  1  0
  7  3  1  0
  8  7  1  0
M  END
>  <id>  (329) 
329

>  <inchikey>  (329) 
ZCVSMWFZKMVPLV-LBPRGKRZSA-N

>  <alias>  (329) 
A4374b

>  <smiles>  (329) 
NC(=O)[C@H]1CCCN(C(=O)Cc2ccccc2CO)C1

>  <path>  (329) 
/opt/xchem-fragalysis-2/maxwin/BulkDock/TARGETS/A71EV2A/aligned_files/A4374b/A4374b_hippo.pdb

>  <distance_score>  (329) 
None

>  <energy_score>  (329) 
None

>  <compound>  (329) 
ZCVSMWFZKMVPLV-UHFFFAOYSA-N

>  <compound_id>  (329) 
253

>  <target>  (329) 
A71EV2A

>  <tags>  (329) 
['GOOD count', 'MEDIOCRE count', '[Other] S1 site', 'hits', '[Other] S2 site', '[Other] P3 compound design', '[Other] upload_1 2025-02-12', 'Main status', '[Series] Piperidine series', 'BAD count']

>  <inspirations>  (329) 
None

>  <subsites>  (329) 
None

>  <reference>  (329) 


>  <observation_longname>  (329) 
A71EV2A-x4374_C_201_v1

>  <ConformerSites alias>  (329) 
1b - A0911/A/147

>  <CanonSites alias>  (329) 
1 - Active Site

>  <CrystalformSites alias>  (329) 
F7r - A4303/C/201

>  <Quatassemblies alias>  (329) 
A1 - monomer

>  <Crystalforms alias>  (329) 
F7 - A712A_x4207_8.1_refmac1_1st_ref

>  <ConformerSites upload name>  (329) 
1b - A71EV2A-x0911/A/147

>  <CanonSites upload name>  (329) 
1 - A71EV2A-x0911/A/147/1

>  <CrystalformSites upload name>  (329) 
F7r - A71EV2A-x4303/C/201/1

>  <Quatassemblies upload name>  (329) 
A1 - monomer

>  <Crystalforms upload name>  (329) 
F7 - A712A_x4207_8.1_refmac1_1st_ref

>  <ConformerSites short tag>  (329) 
1b - A0911/A/147

>  <CanonSites short tag>  (329) 
1 - A0911/A/147/1

>  <CrystalformSites short tag>  (329) 
F7r - A4303/C/201

>  <Quatassemblies short tag>  (329) 
A1 - monomer

>  <Crystalforms short tag>  (329) 
F7 - A712A_x4207_8.1_refmac1_1st_ref

>  <Centroid res>  (329) 
A71EV2A-x0911/A/133/A_v1

>  <Experiment code>  (329) 
A71EV2A-x4374

>  <Pose>  (329) 
A4374a

$$$$
A4380a
     RDKit          3D

 20 21  0  0  0  0  0  0  0  0999 V2000
    9.5120   10.6130   23.4430 Cl  0  0  0  0  0  0  0  0  0  0  0  0
    8.2170   10.8840   24.5620 C   0  0  0  0  0  0  0  0  0  0  0  0
    7.4360    9.8060   24.9350 C   0  0  0  0  0  0  0  0  0  0  0  0
    6.3740    9.9920   25.8000 C   0  0  0  0  0  0  0  0  0  0  0  0
    6.1300   11.2600   26.2500 C   0  0  0  0  0  0  0  0  0  0  0  0
    4.9960   11.4900   26.9660 F   0  0  0  0  0  0  0  0  0  0  0  0
    6.9110   12.3380   25.9210 C   0  0  0  0  0  0  0  0  0  0  0  0
    7.9830   12.1670   25.0470 C   0  0  0  0  0  0  0  0  0  0  0  0
    8.8730   13.3420   24.7110 C   0  0  0  0  0  0  0  0  0  0  0  0
    8.6850   13.8450   23.2900 C   0  0  0  0  0  0  0  0  0  0  0  0
    7.8030   13.4110   22.5700 O   0  0  0  0  0  0  0  0  0  0  0  0
    9.5320   14.8140   22.8810 N   0  0  0  0  0  0  0  0  0  0  0  0
   10.5720   15.4190   23.7310 C   0  0  0  0  0  0  0  0  0  0  0  0
   11.9370   15.3320   23.0670 C   0  0  0  0  0  0  0  0  0  0  0  0
   11.8810   15.8880   21.6410 C   0  0  0  0  0  0  0  0  0  0  0  0
    9.4600   15.3760   21.5270 C   0  0  0  0  0  0  0  0  0  0  0  0
   10.8010   15.1810   20.8100 C   0  0  1  0  0  0  0  0  0  0  0  0
   10.8150   15.6510   19.3640 C   0  0  0  0  0  0  0  0  0  0  0  0
   10.6900   16.8410   19.0780 O   0  0  0  0  0  0  0  0  0  0  0  0
   10.9840   14.7130   18.4510 N   0  0  0  0  0  0  0  0  0  0  0  0
 20 18  1  0
 19 18  2  0
 17 18  1  6
 17 15  1  0
 15 14  1  0
 14 13  1  0
 13 12  1  0
 12 10  1  0
 11 10  2  0
 10  9  1  0
  9  8  1  0
  8  7  2  0
  7  5  1  0
  6  5  1  0
  5  4  2  0
  4  3  1  0
  3  2  2  0
  8  2  1  0
  2  1  1  0
 16 12  1  0
 17 16  1  0
M  END
>  <id>  (330) 
330

>  <inchikey>  (330) 
YWIKMGDPLBZNIQ-VIFPVBQESA-N

>  <alias>  (330) 
A4380a

>  <smiles>  (330) 
NC(=O)[C@H]1CCCN(C(=O)Cc2cc(F)ccc2Cl)C1

>  <path>  (330) 
/opt/xchem-fragalysis-2/maxwin/BulkDock/TARGETS/A71EV2A/aligned_files/A4380a/A4380a.pdb

>  <distance_score>  (330) 
None

>  <energy_score>  (330) 
None

>  <compound>  (330) 
YWIKMGDPLBZNIQ-UHFFFAOYSA-N

>  <compound_id>  (330) 
254

>  <target>  (330) 
A71EV2A

>  <tags>  (330) 
['GOOD count', 'MEDIOCRE count', '[Other] S1 site', 'hits', '[Other] S2 site', '[Other] P3 compound design', '[Other] upload_1 2025-02-12', 'Main status', '[Series] Piperidine series', 'BAD count']

>  <inspirations>  (330) 
None

>  <subsites>  (330) 
None

>  <reference>  (330) 


>  <observation_longname>  (330) 
A71EV2A-x4380_A_201_v1

>  <ConformerSites alias>  (330) 
1b - A0911/A/147

>  <CanonSites alias>  (330) 
1 - Active Site

>  <CrystalformSites alias>  (330) 
F8h - A0884/A/147

>  <Quatassemblies alias>  (330) 
A1 - monomer

>  <Crystalforms alias>  (330) 
F8 - A712A_x4271_2.1_refmac1_1st_ref

>  <ConformerSites upload name>  (330) 
1b - A71EV2A-x0911/A/147

>  <CanonSites upload name>  (330) 
1 - A71EV2A-x0911/A/147/1

>  <CrystalformSites upload name>  (330) 
F8h - A71EV2A-x0884/A/147/1

>  <Quatassemblies upload name>  (330) 
A1 - monomer

>  <Crystalforms upload name>  (330) 
F8 - A712A_x4271_2.1_refmac1_1st_ref

>  <ConformerSites short tag>  (330) 
1b - A0911/A/147

>  <CanonSites short tag>  (330) 
1 - A0911/A/147/1

>  <CrystalformSites short tag>  (330) 
F8h - A0884/A/147

>  <Quatassemblies short tag>  (330) 
A1 - monomer

>  <Crystalforms short tag>  (330) 
F8 - A712A_x4271_2.1_refmac1_1st_ref

>  <Centroid res>  (330) 
A71EV2A-x0911/A/133/A_v1

>  <Experiment code>  (330) 
A71EV2A-x4380

>  <Pose>  (330) 
A4380a

$$$$
A4381a
     RDKit          3D

 26 27  0  0  0  0  0  0  0  0999 V2000
    4.2080   11.7330   26.5420 F   0  0  0  0  0  0  0  0  0  0  0  0
    5.2850   12.5490   26.5440 C   0  0  0  0  0  0  0  0  0  0  0  0
    5.4610   12.6600   27.8800 F   0  0  0  0  0  0  0  0  0  0  0  0
    4.8660   13.7310   26.0010 F   0  0  0  0  0  0  0  0  0  0  0  0
    6.4910   11.9580   25.8410 C   0  0  0  0  0  0  0  0  0  0  0  0
    6.4760   10.5690   25.7750 C   0  0  0  0  0  0  0  0  0  0  0  0
    7.5460    9.8500   25.2720 C   0  0  0  0  0  0  0  0  0  0  0  0
    8.7130   10.5020   24.8950 C   0  0  0  0  0  0  0  0  0  0  0  0
    9.6870    9.8750   23.9750 C   0  0  0  0  0  0  0  0  0  0  0  0
    9.3690    8.6260   23.6440 F   0  0  0  0  0  0  0  0  0  0  0  0
   10.9120    9.9290   24.4650 F   0  0  0  0  0  0  0  0  0  0  0  0
    9.7580   10.5450   22.8350 F   0  0  0  0  0  0  0  0  0  0  0  0
    8.7690   11.8680   25.0810 C   0  0  0  0  0  0  0  0  0  0  0  0
    7.6500   12.6170   25.3900 C   0  0  0  0  0  0  0  0  0  0  0  0
    7.6470   13.9750   24.7200 C   0  0  0  0  0  0  0  0  0  0  0  0
    8.2470   13.8800   23.3220 C   0  0  0  0  0  0  0  0  0  0  0  0
    7.7720   13.0930   22.5220 O   0  0  0  0  0  0  0  0  0  0  0  0
    9.2800   14.6910   22.9800 N   0  0  0  0  0  0  0  0  0  0  0  0
   10.3980   15.0550   23.8650 C   0  0  0  0  0  0  0  0  0  0  0  0
   11.7500   14.8620   23.1870 C   0  0  0  0  0  0  0  0  0  0  0  0
   11.7820   15.5260   21.8070 C   0  0  0  0  0  0  0  0  0  0  0  0
    9.3160   15.3360   21.6590 C   0  0  0  0  0  0  0  0  0  0  0  0
   10.6280   15.0320   20.9250 C   0  0  1  0  0  0  0  0  0  0  0  0
   10.7300   15.6050   19.5200 C   0  0  0  0  0  0  0  0  0  0  0  0
   10.6060   16.8140   19.3110 O   0  0  0  0  0  0  0  0  0  0  0  0
   10.9720   14.7380   18.5520 N   0  0  0  0  0  0  0  0  0  0  0  0
 26 24  1  0
 25 24  2  0
 23 24  1  6
 23 21  1  0
 21 20  1  0
 20 19  1  0
 19 18  1  0
 18 16  1  0
 17 16  2  0
 16 15  1  0
 15 14  1  0
 14 13  2  0
 13  8  1  0
  9  8  1  0
 12  9  1  0
 11  9  1  0
 10  9  1  0
  8  7  2  0
  7  6  1  0
  6  5  2  0
 14  5  1  0
  5  2  1  0
  3  2  1  0
  4  2  1  0
  2  1  1  0
 22 18  1  0
 23 22  1  0
M  END
>  <id>  (331) 
331

>  <inchikey>  (331) 
STXHBHXJQBAUQV-VIFPVBQESA-N

>  <alias>  (331) 
A4381a

>  <smiles>  (331) 
NC(=O)[C@H]1CCCN(C(=O)Cc2cc(C(F)(F)F)ccc2C(F)(F)F)C1

>  <path>  (331) 
/opt/xchem-fragalysis-2/maxwin/BulkDock/TARGETS/A71EV2A/aligned_files/A4381a/A4381a.pdb

>  <distance_score>  (331) 
None

>  <energy_score>  (331) 
None

>  <compound>  (331) 
STXHBHXJQBAUQV-UHFFFAOYSA-N

>  <compound_id>  (331) 
255

>  <target>  (331) 
A71EV2A

>  <tags>  (331) 
['GOOD count', 'MEDIOCRE count', '[Other] S1 site', 'hits', '[Other] S2 site', '[Other] P3 compound design', '[Other] upload_1 2025-02-12', 'Main status', '[Series] Piperidine series', 'BAD count']

>  <inspirations>  (331) 
None

>  <subsites>  (331) 
None

>  <reference>  (331) 


>  <observation_longname>  (331) 
A71EV2A-x4381_A_201_v1

>  <ConformerSites alias>  (331) 
1b - A0911/A/147

>  <CanonSites alias>  (331) 
1 - Active Site

>  <CrystalformSites alias>  (331) 
F8h - A0884/A/147

>  <Quatassemblies alias>  (331) 
A1 - monomer

>  <Crystalforms alias>  (331) 
F8 - A712A_x4271_2.1_refmac1_1st_ref

>  <ConformerSites upload name>  (331) 
1b - A71EV2A-x0911/A/147

>  <CanonSites upload name>  (331) 
1 - A71EV2A-x0911/A/147/1

>  <CrystalformSites upload name>  (331) 
F8h - A71EV2A-x0884/A/147/1

>  <Quatassemblies upload name>  (331) 
A1 - monomer

>  <Crystalforms upload name>  (331) 
F8 - A712A_x4271_2.1_refmac1_1st_ref

>  <ConformerSites short tag>  (331) 
1b - A0911/A/147

>  <CanonSites short tag>  (331) 
1 - A0911/A/147/1

>  <CrystalformSites short tag>  (331) 
F8h - A0884/A/147

>  <Quatassemblies short tag>  (331) 
A1 - monomer

>  <Crystalforms short tag>  (331) 
F8 - A712A_x4271_2.1_refmac1_1st_ref

>  <Centroid res>  (331) 
A71EV2A-x0911/A/133/A_v1

>  <Experiment code>  (331) 
A71EV2A-x4381

>  <Pose>  (331) 
A4381a

$$$$
A4203a
     RDKit          3D

 21 22  0  0  0  0  0  0  0  0999 V2000
   10.3810   16.6610   19.1510 O   0  0  0  0  0  0  0  0  0  0  0  0
   10.7580   15.5090   19.3780 C   0  0  0  0  0  0  0  0  0  0  0  0
   11.0800   14.6580   18.4190 N   0  0  0  0  0  0  0  0  0  0  0  0
   10.8760   14.9860   20.8010 C   0  0  1  0  0  0  0  0  0  0  0  0
   12.0450   15.6480   21.5470 C   0  0  0  0  0  0  0  0  0  0  0  0
   12.1830   15.1170   22.9770 C   0  0  0  0  0  0  0  0  0  0  0  0
   10.8740   15.2470   23.7300 C   0  0  0  0  0  0  0  0  0  0  0  0
    9.6010   15.1840   21.6240 C   0  0  0  0  0  0  0  0  0  0  0  0
    9.7860   14.6190   22.9640 N   0  0  0  0  0  0  0  0  0  0  0  0
    9.0090   13.6070   23.3970 C   0  0  0  0  0  0  0  0  0  0  0  0
    8.0980   13.1560   22.7210 O   0  0  0  0  0  0  0  0  0  0  0  0
    9.3180   13.0580   24.7780 C   0  0  0  0  0  0  0  0  0  0  0  0
    8.2640   12.0890   25.2630 C   0  0  0  0  0  0  0  0  0  0  0  0
    8.2730   10.7490   24.8600 C   0  0  0  0  0  0  0  0  0  0  0  0
    9.2450   10.4230   23.9520 O   0  0  0  0  0  0  0  0  0  0  0  0
    9.3660    9.0580   23.5610 C   0  0  0  0  0  0  0  0  0  0  0  0
    7.2780   12.5020   26.1520 C   0  0  0  0  0  0  0  0  0  0  0  0
    6.3200   11.6280   26.6210 C   0  0  0  0  0  0  0  0  0  0  0  0
    6.3440   10.3280   26.1970 C   0  0  0  0  0  0  0  0  0  0  0  0
    5.0190    9.2820   26.6110 Cl  0  0  0  0  0  0  0  0  0  0  0  0
    7.3240    9.8580   25.3440 C   0  0  0  0  0  0  0  0  0  0  0  0
 16 15  1  0
 15 14  1  0
 14 21  2  0
 21 19  1  0
 20 19  1  0
 19 18  2  0
 18 17  1  0
 17 13  2  0
 14 13  1  0
 13 12  1  0
 12 10  1  0
 11 10  2  0
 10  9  1  0
  9  7  1  0
  7  6  1  0
  6  5  1  0
  5  4  1  0
  4  2  1  6
  3  2  1  0
  2  1  2  0
  8  4  1  0
  9  8  1  0
M  END
>  <id>  (332) 
332

>  <inchikey>  (332) 
RXCDGQVWMAQTNG-NSHDSACASA-N

>  <alias>  (332) 
A4203a

>  <smiles>  (332) 
COc1cc(Cl)ccc1CC(=O)N1CCC[C@H](C(N)=O)C1

>  <path>  (332) 
/opt/xchem-fragalysis-2/maxwin/BulkDock/TARGETS/A71EV2A/aligned_files/A4203a/A4203a.pdb

>  <distance_score>  (332) 
None

>  <energy_score>  (332) 
None

>  <compound>  (332) 
RXCDGQVWMAQTNG-UHFFFAOYSA-N

>  <compound_id>  (332) 
256

>  <target>  (332) 
A71EV2A

>  <tags>  (332) 
['GOOD count', 'MEDIOCRE count', '[Other] S1 site', 'hits', '[Other] S2 site', '[Other] P3 compound design', '[Other] upload_2 2024-12-12', 'Main status', '[Series] Piperidine series', 'BAD count']

>  <inspirations>  (332) 
None

>  <subsites>  (332) 
None

>  <reference>  (332) 


>  <observation_longname>  (332) 
A71EV2A-x4203_A_201_v1

>  <ConformerSites alias>  (332) 
1b - A0911/A/147

>  <CanonSites alias>  (332) 
1 - Active Site

>  <CrystalformSites alias>  (332) 
F8h - A0884/A/147

>  <Quatassemblies alias>  (332) 
A1 - monomer

>  <Crystalforms alias>  (332) 
F8 - A712A_x4271_2.1_refmac1_1st_ref

>  <ConformerSites upload name>  (332) 
1b - A71EV2A-x0911/A/147

>  <CanonSites upload name>  (332) 
1 - A71EV2A-x0911/A/147/1

>  <CrystalformSites upload name>  (332) 
F8h - A71EV2A-x0884/A/147/1

>  <Quatassemblies upload name>  (332) 
A1 - monomer

>  <Crystalforms upload name>  (332) 
F8 - A712A_x4271_2.1_refmac1_1st_ref

>  <ConformerSites short tag>  (332) 
1b - A0911/A/147

>  <CanonSites short tag>  (332) 
1 - A0911/A/147/1

>  <CrystalformSites short tag>  (332) 
F8h - A0884/A/147

>  <Quatassemblies short tag>  (332) 
A1 - monomer

>  <Crystalforms short tag>  (332) 
F8 - A712A_x4271_2.1_refmac1_1st_ref

>  <Centroid res>  (332) 
A71EV2A-x0911/A/133/A_v1

>  <Experiment code>  (332) 
A71EV2A-x4203

>  <Pose>  (332) 
A4203a

$$$$
A4207a
     RDKit          3D

 24 25  0  0  0  0  0  0  0  0999 V2000
   10.7690   14.5130   18.6270 O   0  0  0  0  0  0  0  0  0  0  0  0
   10.5740   15.3110   19.5510 C   0  0  0  0  0  0  0  0  0  0  0  0
   10.1690   16.5490   19.3530 N   0  0  0  0  0  0  0  0  0  0  0  0
   10.8380   14.9170   20.9950 C   0  0  1  0  0  0  0  0  0  0  0  0
   12.0370   15.6880   21.5760 C   0  0  0  0  0  0  0  0  0  0  0  0
   12.2900   15.2860   23.0280 C   0  0  0  0  0  0  0  0  0  0  0  0
   11.0400   15.5000   23.8630 C   0  0  0  0  0  0  0  0  0  0  0  0
    9.6000   15.1290   21.8750 C   0  0  0  0  0  0  0  0  0  0  0  0
    9.8940   14.7890   23.2730 N   0  0  0  0  0  0  0  0  0  0  0  0
    9.1520   13.9480   24.0320 C   0  0  0  0  0  0  0  0  0  0  0  0
    9.4680   13.6770   25.1810 O   0  0  0  0  0  0  0  0  0  0  0  0
    7.8290   13.3980   23.4570 C   0  0  2  0  0  0  0  0  0  0  0  0
    6.8750   14.4950   23.3140 N   0  0  0  0  0  0  0  0  0  0  0  0
    6.0080   14.5960   22.2970 C   0  0  0  0  0  0  0  0  0  0  0  0
    5.9220   13.7320   21.4250 O   0  0  0  0  0  0  0  0  0  0  0  0
    5.1680   15.8390   22.2730 C   0  0  0  0  0  0  0  0  0  0  0  0
    7.2850   12.3240   24.3910 C   0  0  0  0  0  0  0  0  0  0  0  0
    7.7230   11.0050   24.2680 C   0  0  0  0  0  0  0  0  0  0  0  0
    8.7090   10.8050   23.3380 O   0  0  0  0  0  0  0  0  0  0  0  0
    9.3830    9.5350   23.3260 C   0  0  0  0  0  0  0  0  0  0  0  0
    6.2900   12.6000   25.3290 C   0  0  0  0  0  0  0  0  0  0  0  0
    5.7300   11.5900   26.0970 C   0  0  0  0  0  0  0  0  0  0  0  0
    6.1510   10.2880   25.9390 C   0  0  0  0  0  0  0  0  0  0  0  0
    7.1550    9.9870   25.0300 C   0  0  0  0  0  0  0  0  0  0  0  0
 20 19  1  0
 19 18  1  0
 18 24  2  0
 24 23  1  0
 23 22  2  0
 22 21  1  0
 21 17  2  0
 18 17  1  0
 17 12  1  0
 12 13  1  1
 14 13  1  0
 16 14  1  0
 15 14  2  0
 12 10  1  0
 11 10  2  0
 10  9  1  0
  9  7  1  0
  7  6  1  0
  6  5  1  0
  5  4  1  0
  4  2  1  6
  3  2  1  0
  2  1  2  0
  8  4  1  0
  9  8  1  0
M  END
>  <id>  (333) 
333

>  <inchikey>  (333) 
KEZJHWCQWSCOQQ-SWLSCSKDSA-N

>  <alias>  (333) 
A4207a

>  <smiles>  (333) 
COc1ccccc1[C@@H](NC(C)=O)C(=O)N1CCC[C@H](C(N)=O)C1

>  <path>  (333) 
/opt/xchem-fragalysis-2/maxwin/BulkDock/TARGETS/A71EV2A/aligned_files/A4207a/A4207a_hippo.pdb

>  <distance_score>  (333) 
None

>  <energy_score>  (333) 
None

>  <compound>  (333) 
KEZJHWCQWSCOQQ-UHFFFAOYSA-N

>  <compound_id>  (333) 
257

>  <target>  (333) 
A71EV2A

>  <tags>  (333) 
['GOOD count', 'MEDIOCRE count', '[Other] S1 site', 'hits', '[Other] S2 site', '[Other] P3 compound design', '[Other] upload_2 2024-12-12', 'Main status', '[Series] Piperidine series', 'BAD count', '[Other] S3 site']

>  <inspirations>  (333) 
None

>  <subsites>  (333) 
None

>  <reference>  (333) 


>  <observation_longname>  (333) 
A71EV2A-x4207_A_201_v1

>  <ConformerSites alias>  (333) 
1b - A0911/A/147

>  <CanonSites alias>  (333) 
1 - Active Site

>  <CrystalformSites alias>  (333) 
F7q - A4303/A/201

>  <Quatassemblies alias>  (333) 
A1 - monomer

>  <Crystalforms alias>  (333) 
F7 - A712A_x4207_8.1_refmac1_1st_ref

>  <ConformerSites upload name>  (333) 
1b - A71EV2A-x0911/A/147

>  <CanonSites upload name>  (333) 
1 - A71EV2A-x0911/A/147/1

>  <CrystalformSites upload name>  (333) 
F7q - A71EV2A-x4303/A/201/1

>  <Quatassemblies upload name>  (333) 
A1 - monomer

>  <Crystalforms upload name>  (333) 
F7 - A712A_x4207_8.1_refmac1_1st_ref

>  <ConformerSites short tag>  (333) 
1b - A0911/A/147

>  <CanonSites short tag>  (333) 
1 - A0911/A/147/1

>  <CrystalformSites short tag>  (333) 
F7q - A4303/A/201

>  <Quatassemblies short tag>  (333) 
A1 - monomer

>  <Crystalforms short tag>  (333) 
F7 - A712A_x4207_8.1_refmac1_1st_ref

>  <Centroid res>  (333) 
A71EV2A-x0911/A/133/A_v1

>  <Experiment code>  (333) 
A71EV2A-x4207

>  <Pose>  (333) 
A4207a

$$$$
A4207b
     RDKit          3D

 24 25  0  0  0  0  0  0  0  0999 V2000
   10.2760   16.6760   19.3340 O   0  0  0  0  0  0  0  0  0  0  0  0
   10.6960   15.5260   19.5310 C   0  0  0  0  0  0  0  0  0  0  0  0
   10.8900   14.6500   18.5520 N   0  0  0  0  0  0  0  0  0  0  0  0
   11.0170   15.0370   20.9350 C   0  0  1  0  0  0  0  0  0  0  0  0
   12.2150   15.8120   21.5230 C   0  0  0  0  0  0  0  0  0  0  0  0
   12.4400   15.4790   22.9970 C   0  0  0  0  0  0  0  0  0  0  0  0
   11.1720   15.7160   23.7920 C   0  0  0  0  0  0  0  0  0  0  0  0
    9.7690   15.2370   21.8090 C   0  0  0  0  0  0  0  0  0  0  0  0
   10.0590   14.9450   23.2190 N   0  0  0  0  0  0  0  0  0  0  0  0
    9.3890   14.0620   23.9910 C   0  0  0  0  0  0  0  0  0  0  0  0
    9.7930   13.7430   25.1070 O   0  0  0  0  0  0  0  0  0  0  0  0
    8.0730   13.4530   23.4470 C   0  0  2  0  0  0  0  0  0  0  0  0
    7.0900   14.5180   23.2790 N   0  0  0  0  0  0  0  0  0  0  0  0
    6.1830   14.5300   22.2810 C   0  0  0  0  0  0  0  0  0  0  0  0
    6.1440   13.6490   21.4190 O   0  0  0  0  0  0  0  0  0  0  0  0
    5.2260   15.6780   22.2820 C   0  0  0  0  0  0  0  0  0  0  0  0
    7.5720   12.4160   24.4440 C   0  0  0  0  0  0  0  0  0  0  0  0
    7.9600   11.0850   24.3170 C   0  0  0  0  0  0  0  0  0  0  0  0
    8.8940   10.8430   23.3420 O   0  0  0  0  0  0  0  0  0  0  0  0
    9.4120    9.5120   23.2260 C   0  0  0  0  0  0  0  0  0  0  0  0
    6.6830   12.7480   25.4650 C   0  0  0  0  0  0  0  0  0  0  0  0
    6.1730   11.7780   26.3140 C   0  0  0  0  0  0  0  0  0  0  0  0
    6.5400   10.4640   26.1550 C   0  0  0  0  0  0  0  0  0  0  0  0
    7.4370   10.1070   25.1580 C   0  0  0  0  0  0  0  0  0  0  0  0
 20 19  1  0
 19 18  1  0
 18 24  2  0
 24 23  1  0
 23 22  2  0
 22 21  1  0
 21 17  2  0
 18 17  1  0
 17 12  1  0
 12 13  1  1
 14 13  1  0
 16 14  1  0
 15 14  2  0
 12 10  1  0
 11 10  2  0
 10  9  1  0
  9  7  1  0
  7  6  1  0
  6  5  1  0
  5  4  1  0
  4  2  1  6
  3  2  1  0
  2  1  2  0
  8  4  1  0
  9  8  1  0
M  END
>  <id>  (334) 
334

>  <inchikey>  (334) 
KEZJHWCQWSCOQQ-SWLSCSKDSA-N

>  <alias>  (334) 
A4207b

>  <smiles>  (334) 
COc1ccccc1[C@@H](NC(C)=O)C(=O)N1CCC[C@H](C(N)=O)C1

>  <path>  (334) 
/opt/xchem-fragalysis-2/maxwin/BulkDock/TARGETS/A71EV2A/aligned_files/A4207b/A4207b.pdb

>  <distance_score>  (334) 
None

>  <energy_score>  (334) 
None

>  <compound>  (334) 
KEZJHWCQWSCOQQ-UHFFFAOYSA-N

>  <compound_id>  (334) 
257

>  <target>  (334) 
A71EV2A

>  <tags>  (334) 
['GOOD count', 'MEDIOCRE count', '[Other] S1 site', 'hits', '[Other] S2 site', '[Other] P3 compound design', '[Other] upload_2 2024-12-12', 'Main status', '[Series] Piperidine series', 'BAD count', '[Other] S3 site']

>  <inspirations>  (334) 
None

>  <subsites>  (334) 
None

>  <reference>  (334) 


>  <observation_longname>  (334) 
A71EV2A-x4207_C_201_v1

>  <ConformerSites alias>  (334) 
1b - A0911/A/147

>  <CanonSites alias>  (334) 
1 - Active Site

>  <CrystalformSites alias>  (334) 
F7r - A4303/C/201

>  <Quatassemblies alias>  (334) 
A1 - monomer

>  <Crystalforms alias>  (334) 
F7 - A712A_x4207_8.1_refmac1_1st_ref

>  <ConformerSites upload name>  (334) 
1b - A71EV2A-x0911/A/147

>  <CanonSites upload name>  (334) 
1 - A71EV2A-x0911/A/147/1

>  <CrystalformSites upload name>  (334) 
F7r - A71EV2A-x4303/C/201/1

>  <Quatassemblies upload name>  (334) 
A1 - monomer

>  <Crystalforms upload name>  (334) 
F7 - A712A_x4207_8.1_refmac1_1st_ref

>  <ConformerSites short tag>  (334) 
1b - A0911/A/147

>  <CanonSites short tag>  (334) 
1 - A0911/A/147/1

>  <CrystalformSites short tag>  (334) 
F7r - A4303/C/201

>  <Quatassemblies short tag>  (334) 
A1 - monomer

>  <Crystalforms short tag>  (334) 
F7 - A712A_x4207_8.1_refmac1_1st_ref

>  <Centroid res>  (334) 
A71EV2A-x0911/A/133/A_v1

>  <Experiment code>  (334) 
A71EV2A-x4207

>  <Pose>  (334) 
A4207a

$$$$
A4209a
     RDKit          3D

 21 22  0  0  0  0  0  0  0  0999 V2000
   11.0060   14.7650   18.4640 O   0  0  0  0  0  0  0  0  0  0  0  0
   10.6760   15.5320   19.3700 C   0  0  0  0  0  0  0  0  0  0  0  0
   10.2750   16.7760   19.1560 N   0  0  0  0  0  0  0  0  0  0  0  0
   10.7040   15.0840   20.8200 C   0  0  1  0  0  0  0  0  0  0  0  0
   11.7930   15.8110   21.6190 C   0  0  0  0  0  0  0  0  0  0  0  0
   11.8860   15.2720   23.0480 C   0  0  0  0  0  0  0  0  0  0  0  0
   10.5300   15.3050   23.7340 C   0  0  0  0  0  0  0  0  0  0  0  0
    9.3770   15.2790   21.5470 C   0  0  0  0  0  0  0  0  0  0  0  0
    9.4860   14.7030   22.8880 N   0  0  0  0  0  0  0  0  0  0  0  0
    8.7000   13.6610   23.2300 C   0  0  0  0  0  0  0  0  0  0  0  0
    7.7870   13.2710   22.5160 O   0  0  0  0  0  0  0  0  0  0  0  0
    9.0110   13.0030   24.5590 C   0  0  0  0  0  0  0  0  0  0  0  0
    7.9400   12.0260   24.9780 C   0  0  0  0  0  0  0  0  0  0  0  0
    8.0470   10.6780   24.6080 C   0  0  0  0  0  0  0  0  0  0  0  0
    9.0230   10.4110   23.6820 O   0  0  0  0  0  0  0  0  0  0  0  0
    9.3010    9.0470   23.3660 C   0  0  0  0  0  0  0  0  0  0  0  0
    6.8970   12.3850   25.8370 C   0  0  0  0  0  0  0  0  0  0  0  0
    6.6540   14.0610   26.2480 Cl  0  0  0  0  0  0  0  0  0  0  0  0
    6.0230   11.4500   26.3600 C   0  0  0  0  0  0  0  0  0  0  0  0
    6.1680   10.1210   26.0070 C   0  0  0  0  0  0  0  0  0  0  0  0
    7.1720    9.7290   25.1310 C   0  0  0  0  0  0  0  0  0  0  0  0
 16 15  1  0
 15 14  1  0
 14 21  2  0
 21 20  1  0
 20 19  2  0
 19 17  1  0
 18 17  1  0
 17 13  2  0
 14 13  1  0
 13 12  1  0
 12 10  1  0
 11 10  2  0
 10  9  1  0
  9  7  1  0
  7  6  1  0
  6  5  1  0
  5  4  1  0
  4  2  1  6
  3  2  1  0
  2  1  2  0
  8  4  1  0
  9  8  1  0
M  END
>  <id>  (335) 
335

>  <inchikey>  (335) 
NHPQEFHMDYOTOA-JTQLQIEISA-N

>  <alias>  (335) 
A4209a

>  <smiles>  (335) 
COc1cccc(Cl)c1CC(=O)N1CCC[C@H](C(N)=O)C1

>  <path>  (335) 
/opt/xchem-fragalysis-2/maxwin/BulkDock/TARGETS/A71EV2A/aligned_files/A4209a/A4209a.pdb

>  <distance_score>  (335) 
None

>  <energy_score>  (335) 
None

>  <compound>  (335) 
NHPQEFHMDYOTOA-UHFFFAOYSA-N

>  <compound_id>  (335) 
182

>  <target>  (335) 
A71EV2A

>  <tags>  (335) 
['GOOD count', 'MEDIOCRE count', '[Other] S1 site', 'hits', '[Other] S2 site', '[Other] P3 compound design', '[Other] upload_1 2025-02-12', 'Main status', '[Series] Piperidine series', 'BAD count']

>  <inspirations>  (335) 
None

>  <subsites>  (335) 
None

>  <reference>  (335) 


>  <observation_longname>  (335) 
A71EV2A-x4209_A_201_v1

>  <ConformerSites alias>  (335) 
1b - A0911/A/147

>  <CanonSites alias>  (335) 
1 - Active Site

>  <CrystalformSites alias>  (335) 
F8h - A0884/A/147

>  <Quatassemblies alias>  (335) 
A1 - monomer

>  <Crystalforms alias>  (335) 
F8 - A712A_x4271_2.1_refmac1_1st_ref

>  <ConformerSites upload name>  (335) 
1b - A71EV2A-x0911/A/147

>  <CanonSites upload name>  (335) 
1 - A71EV2A-x0911/A/147/1

>  <CrystalformSites upload name>  (335) 
F8h - A71EV2A-x0884/A/147/1

>  <Quatassemblies upload name>  (335) 
A1 - monomer

>  <Crystalforms upload name>  (335) 
F8 - A712A_x4271_2.1_refmac1_1st_ref

>  <ConformerSites short tag>  (335) 
1b - A0911/A/147

>  <CanonSites short tag>  (335) 
1 - A0911/A/147/1

>  <CrystalformSites short tag>  (335) 
F8h - A0884/A/147

>  <Quatassemblies short tag>  (335) 
A1 - monomer

>  <Crystalforms short tag>  (335) 
F8 - A712A_x4271_2.1_refmac1_1st_ref

>  <Centroid res>  (335) 
A71EV2A-x0911/A/133/A_v1

>  <Experiment code>  (335) 
A71EV2A-x4209

>  <Pose>  (335) 
A4209a

$$$$
A4214a
     RDKit          3D

 20 21  0  0  0  0  0  0  0  0999 V2000
   10.1760   16.5570   19.4200 O   0  0  0  0  0  0  0  0  0  0  0  0
   10.5680   15.4090   19.6420 C   0  0  0  0  0  0  0  0  0  0  0  0
   10.8510   14.5450   18.6750 N   0  0  0  0  0  0  0  0  0  0  0  0
   10.7340   14.9030   21.0650 C   0  0  1  0  0  0  0  0  0  0  0  0
   12.0170   15.4630   21.6930 C   0  0  0  0  0  0  0  0  0  0  0  0
   12.2070   14.9410   23.1170 C   0  0  0  0  0  0  0  0  0  0  0  0
   11.0040   15.2700   23.9720 C   0  0  0  0  0  0  0  0  0  0  0  0
    9.5510   15.2920   21.9630 C   0  0  0  0  0  0  0  0  0  0  0  0
    9.7810   14.7600   23.3210 N   0  0  0  0  0  0  0  0  0  0  0  0
    8.5170   14.4080   24.2850 S   0  0  0  0  0  0  0  0  0  0  0  0
    7.3440   14.9140   23.6370 O   0  0  0  0  0  0  0  0  0  0  0  0
    8.8570   14.8480   25.6030 O   0  0  0  0  0  0  0  0  0  0  0  0
    8.4450   12.6450   24.3000 C   0  0  0  0  0  0  0  0  0  0  0  0
    7.5310   11.9790   25.1250 C   0  0  0  0  0  0  0  0  0  0  0  0
    6.6880   12.7810   25.8570 O   0  0  0  0  0  0  0  0  0  0  0  0
    5.7270   12.1550   26.7140 C   0  0  0  0  0  0  0  0  0  0  0  0
    9.3610   11.9360   23.5350 C   0  0  0  0  0  0  0  0  0  0  0  0
    9.3660   10.5550   23.5930 C   0  0  0  0  0  0  0  0  0  0  0  0
    8.4690    9.8910   24.3930 C   0  0  0  0  0  0  0  0  0  0  0  0
    7.5530   10.5930   25.1670 C   0  0  0  0  0  0  0  0  0  0  0  0
 16 15  1  0
 15 14  1  0
 14 20  2  0
 20 19  1  0
 19 18  2  0
 18 17  1  0
 17 13  2  0
 14 13  1  0
 13 10  1  0
 11 10  2  0
 12 10  2  0
 10  9  1  0
  9  7  1  0
  7  6  1  0
  6  5  1  0
  5  4  1  0
  4  2  1  6
  3  2  1  0
  2  1  2  0
  8  4  1  0
  9  8  1  0
M  END
>  <id>  (336) 
336

>  <inchikey>  (336) 
QKOJMHTYLAMSOM-JTQLQIEISA-N

>  <alias>  (336) 
A4214a

>  <smiles>  (336) 
COc1ccccc1S(=O)(=O)N1CCC[C@H](C(N)=O)C1

>  <path>  (336) 
/opt/xchem-fragalysis-2/maxwin/BulkDock/TARGETS/A71EV2A/aligned_files/A4214a/A4214a_hippo.pdb

>  <distance_score>  (336) 
None

>  <energy_score>  (336) 
None

>  <compound>  (336) 
QKOJMHTYLAMSOM-UHFFFAOYSA-N

>  <compound_id>  (336) 
258

>  <target>  (336) 
A71EV2A

>  <tags>  (336) 
['GOOD count', 'MEDIOCRE count', '[Other] S1 site', 'hits', '[Other] S2 site', '[Other] P3 compound design', '[Other] upload_1 2025-02-12', 'Main status', '[Series] Piperidine series', 'BAD count']

>  <inspirations>  (336) 
None

>  <subsites>  (336) 
None

>  <reference>  (336) 


>  <observation_longname>  (336) 
A71EV2A-x4214_A_201_v1

>  <ConformerSites alias>  (336) 
1b - A0911/A/147

>  <CanonSites alias>  (336) 
1 - Active Site

>  <CrystalformSites alias>  (336) 
F6o - A4214/A/201

>  <Quatassemblies alias>  (336) 
A1 - monomer

>  <Crystalforms alias>  (336) 
F6 - short_long_x4018

>  <ConformerSites upload name>  (336) 
1b - A71EV2A-x0911/A/147

>  <CanonSites upload name>  (336) 
1 - A71EV2A-x0911/A/147/1

>  <CrystalformSites upload name>  (336) 
F6o - A71EV2A-x4214/A/201/1

>  <Quatassemblies upload name>  (336) 
A1 - monomer

>  <Crystalforms upload name>  (336) 
F6 - short_long_x4018

>  <ConformerSites short tag>  (336) 
1b - A0911/A/147

>  <CanonSites short tag>  (336) 
1 - A0911/A/147/1

>  <CrystalformSites short tag>  (336) 
F6o - A4214/A/201

>  <Quatassemblies short tag>  (336) 
A1 - monomer

>  <Crystalforms short tag>  (336) 
F6 - short_long_x4018

>  <Centroid res>  (336) 
A71EV2A-x0911/A/133/A_v1

>  <Experiment code>  (336) 
A71EV2A-x4214

>  <Pose>  (336) 
A4214a

$$$$
A4214b
     RDKit          3D

 20 21  0  0  0  0  0  0  0  0999 V2000
   10.2320   16.6190   19.4100 O   0  0  0  0  0  0  0  0  0  0  0  0
   10.6140   15.4630   19.6330 C   0  0  0  0  0  0  0  0  0  0  0  0
   10.8520   14.5810   18.6730 N   0  0  0  0  0  0  0  0  0  0  0  0
   10.8030   14.9580   21.0550 C   0  0  1  0  0  0  0  0  0  0  0  0
   12.1010   15.5190   21.6610 C   0  0  0  0  0  0  0  0  0  0  0  0
   12.3000   15.0430   23.0980 C   0  0  0  0  0  0  0  0  0  0  0  0
   11.0910   15.3950   23.9440 C   0  0  0  0  0  0  0  0  0  0  0  0
    9.6200   15.3510   21.9490 C   0  0  0  0  0  0  0  0  0  0  0  0
    9.8770   14.8430   23.3100 N   0  0  0  0  0  0  0  0  0  0  0  0
    8.6160   14.4720   24.2680 S   0  0  0  0  0  0  0  0  0  0  0  0
    7.4380   14.9660   23.6220 O   0  0  0  0  0  0  0  0  0  0  0  0
    8.9470   14.9090   25.5900 O   0  0  0  0  0  0  0  0  0  0  0  0
    8.5410   12.7020   24.2790 C   0  0  0  0  0  0  0  0  0  0  0  0
    7.6270   12.0310   25.0970 C   0  0  0  0  0  0  0  0  0  0  0  0
    6.7880   12.8220   25.8370 O   0  0  0  0  0  0  0  0  0  0  0  0
    5.8010   12.1810   26.6610 C   0  0  0  0  0  0  0  0  0  0  0  0
    9.4600   11.9960   23.5120 C   0  0  0  0  0  0  0  0  0  0  0  0
    9.4670   10.6120   23.5690 C   0  0  0  0  0  0  0  0  0  0  0  0
    8.5680    9.9460   24.3660 C   0  0  0  0  0  0  0  0  0  0  0  0
    7.6500   10.6450   25.1350 C   0  0  0  0  0  0  0  0  0  0  0  0
 16 15  1  0
 15 14  1  0
 14 20  2  0
 20 19  1  0
 19 18  2  0
 18 17  1  0
 17 13  2  0
 14 13  1  0
 13 10  1  0
 11 10  2  0
 12 10  2  0
 10  9  1  0
  9  7  1  0
  7  6  1  0
  6  5  1  0
  5  4  1  0
  4  2  1  6
  3  2  1  0
  2  1  2  0
  8  4  1  0
  9  8  1  0
M  END
>  <id>  (337) 
337

>  <inchikey>  (337) 
QKOJMHTYLAMSOM-JTQLQIEISA-N

>  <alias>  (337) 
A4214b

>  <smiles>  (337) 
COc1ccccc1S(=O)(=O)N1CCC[C@H](C(N)=O)C1

>  <path>  (337) 
/opt/xchem-fragalysis-2/maxwin/BulkDock/TARGETS/A71EV2A/aligned_files/A4214b/A4214b.pdb

>  <distance_score>  (337) 
None

>  <energy_score>  (337) 
None

>  <compound>  (337) 
QKOJMHTYLAMSOM-UHFFFAOYSA-N

>  <compound_id>  (337) 
258

>  <target>  (337) 
A71EV2A

>  <tags>  (337) 
['GOOD count', 'MEDIOCRE count', '[Other] S1 site', 'hits', '[Other] S2 site', '[Other] P3 compound design', '[Other] upload_1 2025-02-12', 'Main status', '[Series] Piperidine series', 'BAD count']

>  <inspirations>  (337) 
None

>  <subsites>  (337) 
None

>  <reference>  (337) 


>  <observation_longname>  (337) 
A71EV2A-x4214_C_201_v1

>  <ConformerSites alias>  (337) 
1b - A0911/A/147

>  <CanonSites alias>  (337) 
1 - Active Site

>  <CrystalformSites alias>  (337) 
F6p - A4214/C/201

>  <Quatassemblies alias>  (337) 
A1 - monomer

>  <Crystalforms alias>  (337) 
F6 - short_long_x4018

>  <ConformerSites upload name>  (337) 
1b - A71EV2A-x0911/A/147

>  <CanonSites upload name>  (337) 
1 - A71EV2A-x0911/A/147/1

>  <CrystalformSites upload name>  (337) 
F6p - A71EV2A-x4214/C/201/1

>  <Quatassemblies upload name>  (337) 
A1 - monomer

>  <Crystalforms upload name>  (337) 
F6 - short_long_x4018

>  <ConformerSites short tag>  (337) 
1b - A0911/A/147

>  <CanonSites short tag>  (337) 
1 - A0911/A/147/1

>  <CrystalformSites short tag>  (337) 
F6p - A4214/C/201

>  <Quatassemblies short tag>  (337) 
A1 - monomer

>  <Crystalforms short tag>  (337) 
F6 - short_long_x4018

>  <Centroid res>  (337) 
A71EV2A-x0911/A/133/A_v1

>  <Experiment code>  (337) 
A71EV2A-x4214

>  <Pose>  (337) 
A4214a

$$$$
A4237a
     RDKit          3D

 26 28  0  0  0  0  0  0  0  0999 V2000
    7.0620   19.1480   27.0320 F   0  0  0  0  0  0  0  0  0  0  0  0
    7.0240   17.8430   26.6600 C   0  0  0  0  0  0  0  0  0  0  0  0
    7.5710   16.9070   27.4910 C   0  0  0  0  0  0  0  0  0  0  0  0
    7.5490   15.5830   27.0900 C   0  0  0  0  0  0  0  0  0  0  0  0
    6.4490   17.5240   25.4650 C   0  0  0  0  0  0  0  0  0  0  0  0
    6.4400   16.1960   25.0780 C   0  0  0  0  0  0  0  0  0  0  0  0
    6.9900   15.2090   25.8790 C   0  0  0  0  0  0  0  0  0  0  0  0
    6.9830   13.7640   25.4390 C   0  0  0  0  0  0  0  0  0  0  0  0
    8.2580   13.3580   24.6670 C   0  0  1  0  0  0  0  0  0  0  0  0
    8.4100   11.8630   24.4350 C   0  0  0  0  0  0  0  0  0  0  0  0
    7.5310   10.9470   24.9910 C   0  0  0  0  0  0  0  0  0  0  0  0
    7.7280    9.5890   24.8180 C   0  0  0  0  0  0  0  0  0  0  0  0
    8.8090    9.1320   24.0980 C   0  0  0  0  0  0  0  0  0  0  0  0
    9.6690   10.0260   23.5190 C   0  0  0  0  0  0  0  0  0  0  0  0
    9.4710   11.3850   23.6800 C   0  0  0  0  0  0  0  0  0  0  0  0
    8.2110   13.9100   23.2440 C   0  0  0  0  0  0  0  0  0  0  0  0
    7.3840   13.4890   22.4520 O   0  0  0  0  0  0  0  0  0  0  0  0
    9.1180   14.8440   22.8880 N   0  0  0  0  0  0  0  0  0  0  0  0
   10.1670   15.4010   23.7580 C   0  0  0  0  0  0  0  0  0  0  0  0
   11.5570   15.1460   23.1770 C   0  0  0  0  0  0  0  0  0  0  0  0
   11.6340   15.6080   21.7200 C   0  0  0  0  0  0  0  0  0  0  0  0
    9.1540   15.3700   21.5230 C   0  0  0  0  0  0  0  0  0  0  0  0
   10.4950   15.0080   20.8830 C   0  0  1  0  0  0  0  0  0  0  0  0
   10.5340   15.5050   19.4480 C   0  0  0  0  0  0  0  0  0  0  0  0
   10.2600   16.6760   19.1720 O   0  0  0  0  0  0  0  0  0  0  0  0
   10.8460   14.6030   18.5330 N   0  0  0  0  0  0  0  0  0  0  0  0
 26 24  1  0
 25 24  2  0
 23 24  1  6
 23 21  1  0
 21 20  1  0
 20 19  1  0
 19 18  1  0
 18 16  1  0
 17 16  2  0
 16  9  1  0
  9  8  1  6
  8  7  1  0
  7  4  2  0
  4  3  1  0
  3  2  2  0
  2  1  1  0
  5  2  1  0
  6  5  2  0
  7  6  1  0
 10  9  1  0
 10 15  2  0
 15 14  1  0
 14 13  2  0
 13 12  1  0
 12 11  2  0
 11 10  1  0
 22 18  1  0
 23 22  1  0
M  END
>  <id>  (338) 
338

>  <inchikey>  (338) 
BJVLTIUJQBTOEQ-HKUYNNGSSA-N

>  <alias>  (338) 
A4237a

>  <smiles>  (338) 
NC(=O)[C@H]1CCCN(C(=O)[C@@H](Cc2ccc(F)cc2)c2ccccc2)C1

>  <path>  (338) 
/opt/xchem-fragalysis-2/maxwin/BulkDock/TARGETS/A71EV2A/aligned_files/A4237a/A4237a_hippo.pdb

>  <distance_score>  (338) 
None

>  <energy_score>  (338) 
None

>  <compound>  (338) 
BJVLTIUJQBTOEQ-UHFFFAOYSA-N

>  <compound_id>  (338) 
259

>  <target>  (338) 
A71EV2A

>  <tags>  (338) 
['GOOD count', 'MEDIOCRE count', '[Other] S1 site', 'hits', '[Other] S2 site', '[Other] P3 compound design', '[Other] upload_2 2024-12-12', 'Main status', '[Series] Piperidine series', 'BAD count']

>  <inspirations>  (338) 
None

>  <subsites>  (338) 
None

>  <reference>  (338) 


>  <observation_longname>  (338) 
A71EV2A-x4237_A_201_v1

>  <ConformerSites alias>  (338) 
1b - A0911/A/147

>  <CanonSites alias>  (338) 
1 - Active Site

>  <CrystalformSites alias>  (338) 
F7q - A4303/A/201

>  <Quatassemblies alias>  (338) 
A1 - monomer

>  <Crystalforms alias>  (338) 
F7 - A712A_x4207_8.1_refmac1_1st_ref

>  <ConformerSites upload name>  (338) 
1b - A71EV2A-x0911/A/147

>  <CanonSites upload name>  (338) 
1 - A71EV2A-x0911/A/147/1

>  <CrystalformSites upload name>  (338) 
F7q - A71EV2A-x4303/A/201/1

>  <Quatassemblies upload name>  (338) 
A1 - monomer

>  <Crystalforms upload name>  (338) 
F7 - A712A_x4207_8.1_refmac1_1st_ref

>  <ConformerSites short tag>  (338) 
1b - A0911/A/147

>  <CanonSites short tag>  (338) 
1 - A0911/A/147/1

>  <CrystalformSites short tag>  (338) 
F7q - A4303/A/201

>  <Quatassemblies short tag>  (338) 
A1 - monomer

>  <Crystalforms short tag>  (338) 
F7 - A712A_x4207_8.1_refmac1_1st_ref

>  <Centroid res>  (338) 
A71EV2A-x0911/A/133/A_v1

>  <Experiment code>  (338) 
A71EV2A-x4237

>  <Pose>  (338) 
A4237a

$$$$
A4237b
     RDKit          3D

 26 28  0  0  0  0  0  0  0  0999 V2000
    8.8270   19.0800   27.0420 F   0  0  0  0  0  0  0  0  0  0  0  0
    8.4350   17.7980   26.8060 C   0  0  0  0  0  0  0  0  0  0  0  0
    9.0770   16.7880   27.4620 C   0  0  0  0  0  0  0  0  0  0  0  0
    8.7250   15.4840   27.1600 C   0  0  0  0  0  0  0  0  0  0  0  0
    7.4400   17.5750   25.8990 C   0  0  0  0  0  0  0  0  0  0  0  0
    7.1060   16.2650   25.6030 C   0  0  0  0  0  0  0  0  0  0  0  0
    7.7680   15.2020   26.1970 C   0  0  0  0  0  0  0  0  0  0  0  0
    7.6100   13.8030   25.6610 C   0  0  0  0  0  0  0  0  0  0  0  0
    8.8090   13.3920   24.7810 C   0  0  1  0  0  0  0  0  0  0  0  0
    8.9450   11.9030   24.5150 C   0  0  0  0  0  0  0  0  0  0  0  0
    9.9740   11.4320   23.7100 C   0  0  0  0  0  0  0  0  0  0  0  0
   10.1210   10.0780   23.4710 C   0  0  0  0  0  0  0  0  0  0  0  0
    9.2450    9.1800   24.0260 C   0  0  0  0  0  0  0  0  0  0  0  0
    8.2110    9.6310   24.8140 C   0  0  0  0  0  0  0  0  0  0  0  0
    8.0570   10.9850   25.0530 C   0  0  0  0  0  0  0  0  0  0  0  0
    8.6220   13.9690   23.3800 C   0  0  0  0  0  0  0  0  0  0  0  0
    7.7270   13.5400   22.6650 O   0  0  0  0  0  0  0  0  0  0  0  0
    9.4800   14.9230   22.9540 N   0  0  0  0  0  0  0  0  0  0  0  0
   10.5170   15.5780   23.7690 C   0  0  0  0  0  0  0  0  0  0  0  0
   11.9070   15.3690   23.1650 C   0  0  0  0  0  0  0  0  0  0  0  0
   11.9310   15.7630   21.6850 C   0  0  0  0  0  0  0  0  0  0  0  0
    9.4640   15.3740   21.5600 C   0  0  0  0  0  0  0  0  0  0  0  0
   10.8110   15.0620   20.8990 C   0  0  1  0  0  0  0  0  0  0  0  0
   10.7590   15.5300   19.4540 C   0  0  0  0  0  0  0  0  0  0  0  0
   10.4250   16.6870   19.1710 O   0  0  0  0  0  0  0  0  0  0  0  0
   11.0050   14.6030   18.5370 N   0  0  0  0  0  0  0  0  0  0  0  0
 26 24  1  0
 25 24  2  0
 23 24  1  6
 23 21  1  0
 21 20  1  0
 20 19  1  0
 19 18  1  0
 18 16  1  0
 17 16  2  0
 16  9  1  0
  9  8  1  1
  8  7  1  0
  7  4  2  0
  4  3  1  0
  3  2  2  0
  2  1  1  0
  5  2  1  0
  6  5  2  0
  7  6  1  0
 10  9  1  0
 10 15  2  0
 15 14  1  0
 14 13  2  0
 13 12  1  0
 12 11  2  0
 11 10  1  0
 22 18  1  0
 23 22  1  0
M  END
>  <id>  (339) 
339

>  <inchikey>  (339) 
BJVLTIUJQBTOEQ-HKUYNNGSSA-N

>  <alias>  (339) 
A4237b

>  <smiles>  (339) 
NC(=O)[C@H]1CCCN(C(=O)[C@@H](Cc2ccc(F)cc2)c2ccccc2)C1

>  <path>  (339) 
/opt/xchem-fragalysis-2/maxwin/BulkDock/TARGETS/A71EV2A/aligned_files/A4237b/A4237b_hippo.pdb

>  <distance_score>  (339) 
None

>  <energy_score>  (339) 
None

>  <compound>  (339) 
BJVLTIUJQBTOEQ-UHFFFAOYSA-N

>  <compound_id>  (339) 
259

>  <target>  (339) 
A71EV2A

>  <tags>  (339) 
['GOOD count', 'MEDIOCRE count', '[Other] S1 site', 'hits', '[Other] S2 site', '[Other] P3 compound design', '[Other] upload_2 2024-12-12', 'Main status', '[Series] Piperidine series', 'BAD count']

>  <inspirations>  (339) 
None

>  <subsites>  (339) 
None

>  <reference>  (339) 


>  <observation_longname>  (339) 
A71EV2A-x4237_C_201_v1

>  <ConformerSites alias>  (339) 
1b - A0911/A/147

>  <CanonSites alias>  (339) 
1 - Active Site

>  <CrystalformSites alias>  (339) 
F7r - A4303/C/201

>  <Quatassemblies alias>  (339) 
A1 - monomer

>  <Crystalforms alias>  (339) 
F7 - A712A_x4207_8.1_refmac1_1st_ref

>  <ConformerSites upload name>  (339) 
1b - A71EV2A-x0911/A/147

>  <CanonSites upload name>  (339) 
1 - A71EV2A-x0911/A/147/1

>  <CrystalformSites upload name>  (339) 
F7r - A71EV2A-x4303/C/201/1

>  <Quatassemblies upload name>  (339) 
A1 - monomer

>  <Crystalforms upload name>  (339) 
F7 - A712A_x4207_8.1_refmac1_1st_ref

>  <ConformerSites short tag>  (339) 
1b - A0911/A/147

>  <CanonSites short tag>  (339) 
1 - A0911/A/147/1

>  <CrystalformSites short tag>  (339) 
F7r - A4303/C/201

>  <Quatassemblies short tag>  (339) 
A1 - monomer

>  <Crystalforms short tag>  (339) 
F7 - A712A_x4207_8.1_refmac1_1st_ref

>  <Centroid res>  (339) 
A71EV2A-x0911/A/133/A_v1

>  <Experiment code>  (339) 
A71EV2A-x4237

>  <Pose>  (339) 
A4237a

$$$$
A4239a
     RDKit          3D

 23 25  0  0  0  0  0  0  0  0999 V2000
   10.3420   17.0530   18.8580 O   0  0  0  0  0  0  0  0  0  0  0  0
   10.5720   15.9470   19.3580 C   0  0  0  0  0  0  0  0  0  0  0  0
   10.9860   14.9030   18.6440 N   0  0  0  0  0  0  0  0  0  0  0  0
   10.3700   15.7190   20.8430 C   0  0  1  0  0  0  0  0  0  0  0  0
    9.1900   14.8020   21.1260 C   0  0  0  0  0  0  0  0  0  0  0  0
   11.5550   15.1170   21.6200 C   0  0  2  0  0  0  0  0  0  0  0  0
   10.9060   14.4380   22.8400 C   0  0  1  0  0  0  0  0  0  0  0  0
   11.1040   15.4140   24.0080 C   0  0  0  0  0  0  0  0  0  0  0  0
   12.4140   16.0790   23.7170 C   0  0  0  0  0  0  0  0  0  0  0  0
   12.5060   16.1900   22.1930 C   0  0  0  0  0  0  0  0  0  0  0  0
    9.5060   14.2170   22.4410 N   0  0  0  0  0  0  0  0  0  0  0  0
    8.5470   13.5320   23.1130 C   0  0  0  0  0  0  0  0  0  0  0  0
    7.4470   13.3490   22.6140 O   0  0  0  0  0  0  0  0  0  0  0  0
    8.8400   13.0550   24.5210 C   0  0  0  0  0  0  0  0  0  0  0  0
    7.8420   12.0210   24.9870 C   0  0  0  0  0  0  0  0  0  0  0  0
    8.0000   10.6810   24.6110 C   0  0  0  0  0  0  0  0  0  0  0  0
    9.0250   10.4490   23.7340 O   0  0  0  0  0  0  0  0  0  0  0  0
    9.2860    9.0980   23.3440 C   0  0  0  0  0  0  0  0  0  0  0  0
    6.7760   12.3380   25.8430 C   0  0  0  0  0  0  0  0  0  0  0  0
    6.3820   14.0020   26.1870 Cl  0  0  0  0  0  0  0  0  0  0  0  0
    5.9490   11.3650   26.3640 C   0  0  0  0  0  0  0  0  0  0  0  0
    6.1400   10.0460   25.9980 C   0  0  0  0  0  0  0  0  0  0  0  0
    7.1480    9.7020   25.1090 C   0  0  0  0  0  0  0  0  0  0  0  0
 18 17  1  0
 17 16  1  0
 16 23  2  0
 23 22  1  0
 22 21  2  0
 21 19  1  0
 20 19  1  0
 19 15  2  0
 16 15  1  0
 15 14  1  0
 14 12  1  0
 13 12  2  0
 12 11  1  0
 11  5  1  0
  5  4  1  0
  4  2  1  6
  3  2  1  0
  2  1  2  0
  6  4  1  0
  6 10  1  1
 10  9  1  0
  9  8  1  0
  7  8  1  1
  7  6  1  0
 11  7  1  0
M  END
>  <id>  (340) 
340

>  <inchikey>  (340) 
DTOZCHLQEGECMY-SCDSUCTJSA-N

>  <alias>  (340) 
A4239a

>  <smiles>  (340) 
COc1cccc(Cl)c1CC(=O)N1C[C@H](C(N)=O)[C@H]2CCC[C@H]21

>  <path>  (340) 
/opt/xchem-fragalysis-2/maxwin/BulkDock/TARGETS/A71EV2A/aligned_files/A4239a/A4239a.pdb

>  <distance_score>  (340) 
None

>  <energy_score>  (340) 
None

>  <compound>  (340) 
DTOZCHLQEGECMY-UHFFFAOYSA-N

>  <compound_id>  (340) 
260

>  <target>  (340) 
A71EV2A

>  <tags>  (340) 
['GOOD count', 'MEDIOCRE count', '[Other] S1 site', 'hits', '[Other] S2 site', '[Other] P3 compound design', '[Other] upload_1 2025-02-12', 'Main status', '[Series] Piperidine series', 'BAD count']

>  <inspirations>  (340) 
None

>  <subsites>  (340) 
None

>  <reference>  (340) 


>  <observation_longname>  (340) 
A71EV2A-x4239_A_201_v1

>  <ConformerSites alias>  (340) 
1b - A0911/A/147

>  <CanonSites alias>  (340) 
1 - Active Site

>  <CrystalformSites alias>  (340) 
F8h - A0884/A/147

>  <Quatassemblies alias>  (340) 
A1 - monomer

>  <Crystalforms alias>  (340) 
F8 - A712A_x4271_2.1_refmac1_1st_ref

>  <ConformerSites upload name>  (340) 
1b - A71EV2A-x0911/A/147

>  <CanonSites upload name>  (340) 
1 - A71EV2A-x0911/A/147/1

>  <CrystalformSites upload name>  (340) 
F8h - A71EV2A-x0884/A/147/1

>  <Quatassemblies upload name>  (340) 
A1 - monomer

>  <Crystalforms upload name>  (340) 
F8 - A712A_x4271_2.1_refmac1_1st_ref

>  <ConformerSites short tag>  (340) 
1b - A0911/A/147

>  <CanonSites short tag>  (340) 
1 - A0911/A/147/1

>  <CrystalformSites short tag>  (340) 
F8h - A0884/A/147

>  <Quatassemblies short tag>  (340) 
A1 - monomer

>  <Crystalforms short tag>  (340) 
F8 - A712A_x4271_2.1_refmac1_1st_ref

>  <Centroid res>  (340) 
A71EV2A-x0911/A/133/A_v1

>  <Experiment code>  (340) 
A71EV2A-x4239

>  <Pose>  (340) 
A4239a

$$$$
A4254a
     RDKit          3D

 20 22  0  0  0  0  0  0  0  0999 V2000
    9.2780    9.9440   23.5970 Cl  0  0  0  0  0  0  0  0  0  0  0  0
    8.1260   10.6180   24.7030 C   0  0  0  0  0  0  0  0  0  0  0  0
    7.1960    9.7690   25.2840 C   0  0  0  0  0  0  0  0  0  0  0  0
    6.2860   10.2830   26.2020 C   0  0  0  0  0  0  0  0  0  0  0  0
    6.3100   11.6330   26.5150 C   0  0  0  0  0  0  0  0  0  0  0  0
    8.1630   11.9800   24.9960 C   0  0  0  0  0  0  0  0  0  0  0  0
    7.2390   12.4700   25.9010 C   0  0  0  0  0  0  0  0  0  0  0  0
    7.7050   13.9110   25.7450 C   0  0  0  0  0  0  0  0  0  0  0  0
    8.7930   13.3460   24.7670 C   0  0  2  0  0  0  0  0  0  0  0  0
    8.6700   13.7480   23.2970 C   0  0  0  0  0  0  0  0  0  0  0  0
    7.8390   13.2100   22.5840 O   0  0  0  0  0  0  0  0  0  0  0  0
    9.4840   14.7220   22.8280 N   0  0  0  0  0  0  0  0  0  0  0  0
   10.3960   15.5240   23.6650 C   0  0  0  0  0  0  0  0  0  0  0  0
   11.7970   15.5660   23.0780 C   0  0  0  0  0  0  0  0  0  0  0  0
   11.7580   16.0170   21.6170 C   0  0  0  0  0  0  0  0  0  0  0  0
    9.4210   15.1390   21.4220 C   0  0  0  0  0  0  0  0  0  0  0  0
   10.8130   15.1410   20.7850 C   0  0  1  0  0  0  0  0  0  0  0  0
   10.8000   15.5540   19.3220 C   0  0  0  0  0  0  0  0  0  0  0  0
   10.3970   16.6690   18.9730 O   0  0  0  0  0  0  0  0  0  0  0  0
   11.2440   14.6520   18.4660 N   0  0  0  0  0  0  0  0  0  0  0  0
 20 18  1  0
 19 18  2  0
 17 18  1  6
 17 15  1  0
 15 14  1  0
 14 13  1  0
 13 12  1  0
 12 10  1  0
 11 10  2  0
  9 10  1  6
  9  8  1  0
  8  7  1  0
  7  5  1  0
  5  4  2  0
  4  3  1  0
  3  2  2  0
  2  1  1  0
  6  2  1  0
  7  6  2  0
  9  6  1  0
 16 12  1  0
 17 16  1  0
M  END
>  <id>  (341) 
341

>  <inchikey>  (341) 
PSMBGTQKKMWRON-QWRGUYRKSA-N

>  <alias>  (341) 
A4254a

>  <smiles>  (341) 
NC(=O)[C@H]1CCCN(C(=O)[C@H]2Cc3cccc(Cl)c32)C1

>  <path>  (341) 
/opt/xchem-fragalysis-2/maxwin/BulkDock/TARGETS/A71EV2A/aligned_files/A4254a/A4254a.pdb

>  <distance_score>  (341) 
None

>  <energy_score>  (341) 
None

>  <compound>  (341) 
PSMBGTQKKMWRON-UHFFFAOYSA-N

>  <compound_id>  (341) 
261

>  <target>  (341) 
A71EV2A

>  <tags>  (341) 
['GOOD count', 'MEDIOCRE count', '[Other] S1 site', 'hits', '[Other] S2 site', '[Other] P3 compound design', '[Other] upload_1 2025-02-12', 'Main status', '[Series] Piperidine series', 'BAD count']

>  <inspirations>  (341) 
None

>  <subsites>  (341) 
None

>  <reference>  (341) 


>  <observation_longname>  (341) 
A71EV2A-x4254_A_201_v1

>  <ConformerSites alias>  (341) 
1b - A0911/A/147

>  <CanonSites alias>  (341) 
1 - Active Site

>  <CrystalformSites alias>  (341) 
F8h - A0884/A/147

>  <Quatassemblies alias>  (341) 
A1 - monomer

>  <Crystalforms alias>  (341) 
F8 - A712A_x4271_2.1_refmac1_1st_ref

>  <ConformerSites upload name>  (341) 
1b - A71EV2A-x0911/A/147

>  <CanonSites upload name>  (341) 
1 - A71EV2A-x0911/A/147/1

>  <CrystalformSites upload name>  (341) 
F8h - A71EV2A-x0884/A/147/1

>  <Quatassemblies upload name>  (341) 
A1 - monomer

>  <Crystalforms upload name>  (341) 
F8 - A712A_x4271_2.1_refmac1_1st_ref

>  <ConformerSites short tag>  (341) 
1b - A0911/A/147

>  <CanonSites short tag>  (341) 
1 - A0911/A/147/1

>  <CrystalformSites short tag>  (341) 
F8h - A0884/A/147

>  <Quatassemblies short tag>  (341) 
A1 - monomer

>  <Crystalforms short tag>  (341) 
F8 - A712A_x4271_2.1_refmac1_1st_ref

>  <Centroid res>  (341) 
A71EV2A-x0911/A/133/A_v1

>  <Experiment code>  (341) 
A71EV2A-x4254

>  <Pose>  (341) 
A4254a

$$$$
A4260a
     RDKit          3D

 22 24  0  0  0  0  0  0  0  0999 V2000
    9.4110    8.8160   23.4200 Cl  0  0  0  0  0  0  0  0  0  0  0  0
    8.4940    9.9960   24.3200 C   0  0  0  0  0  0  0  0  0  0  0  0
    7.4760    9.5760   25.1450 C   0  0  0  0  0  0  0  0  0  0  0  0
    6.7370   10.5160   25.8420 C   0  0  0  0  0  0  0  0  0  0  0  0
    8.7950   11.3310   24.1670 C   0  0  0  0  0  0  0  0  0  0  0  0
    8.0500   12.2960   24.8470 C   0  0  0  0  0  0  0  0  0  0  0  0
    7.0110   11.8660   25.6730 C   0  0  0  0  0  0  0  0  0  0  0  0
    6.1370   12.7350   26.2770 O   0  0  0  0  0  0  0  0  0  0  0  0
    6.7030   14.0350   26.6040 C   0  0  0  0  0  0  0  0  0  0  0  0
    7.3560   14.7180   25.4310 C   0  0  0  0  0  0  0  0  0  0  0  0
    8.3620   13.7750   24.7180 C   0  0  2  0  0  0  0  0  0  0  0  0
    8.4300   14.1040   23.2270 C   0  0  0  0  0  0  0  0  0  0  0  0
    7.6850   13.5420   22.4420 O   0  0  0  0  0  0  0  0  0  0  0  0
    9.2880   15.0680   22.8210 N   0  0  0  0  0  0  0  0  0  0  0  0
   10.3100   15.7320   23.6480 C   0  0  0  0  0  0  0  0  0  0  0  0
   11.7010   15.5660   23.0510 C   0  0  0  0  0  0  0  0  0  0  0  0
   11.7180   15.9820   21.5780 C   0  0  0  0  0  0  0  0  0  0  0  0
    9.2570   15.5670   21.4440 C   0  0  0  0  0  0  0  0  0  0  0  0
   10.6060   15.2790   20.7870 C   0  0  1  0  0  0  0  0  0  0  0  0
   10.6640   15.6380   19.3120 C   0  0  0  0  0  0  0  0  0  0  0  0
   10.8620   14.7730   18.4580 O   0  0  0  0  0  0  0  0  0  0  0  0
   10.4940   16.9140   19.0160 N   0  0  0  0  0  0  0  0  0  0  0  0
 22 20  1  0
 21 20  2  0
 19 20  1  6
 19 17  1  0
 17 16  1  0
 16 15  1  0
 15 14  1  0
 14 12  1  0
 13 12  2  0
 11 12  1  6
 11 10  1  0
 10  9  1  0
  9  8  1  0
  8  7  1  0
  7  4  2  0
  4  3  1  0
  3  2  2  0
  2  1  1  0
  5  2  1  0
  6  5  2  0
  7  6  1  0
 11  6  1  0
 18 14  1  0
 19 18  1  0
M  END
>  <id>  (342) 
342

>  <inchikey>  (342) 
BPTVIAUUXZRLLA-JQWIXIFHSA-N

>  <alias>  (342) 
A4260a

>  <smiles>  (342) 
NC(=O)[C@H]1CCCN(C(=O)[C@H]2CCOc3ccc(Cl)cc32)C1

>  <path>  (342) 
/opt/xchem-fragalysis-2/maxwin/BulkDock/TARGETS/A71EV2A/aligned_files/A4260a/A4260a.pdb

>  <distance_score>  (342) 
None

>  <energy_score>  (342) 
None

>  <compound>  (342) 
BPTVIAUUXZRLLA-UHFFFAOYSA-N

>  <compound_id>  (342) 
262

>  <target>  (342) 
A71EV2A

>  <tags>  (342) 
['GOOD count', 'MEDIOCRE count', '[Other] S1 site', 'hits', '[Other] S2 site', '[Other] P3 compound design', '[Other] upload_2 2024-12-12', 'Main status', '[Series] Piperidine series', 'BAD count']

>  <inspirations>  (342) 
None

>  <subsites>  (342) 
None

>  <reference>  (342) 


>  <observation_longname>  (342) 
A71EV2A-x4260_A_201_v1

>  <ConformerSites alias>  (342) 
1b - A0911/A/147

>  <CanonSites alias>  (342) 
1 - Active Site

>  <CrystalformSites alias>  (342) 
F8h - A0884/A/147

>  <Quatassemblies alias>  (342) 
A1 - monomer

>  <Crystalforms alias>  (342) 
F8 - A712A_x4271_2.1_refmac1_1st_ref

>  <ConformerSites upload name>  (342) 
1b - A71EV2A-x0911/A/147

>  <CanonSites upload name>  (342) 
1 - A71EV2A-x0911/A/147/1

>  <CrystalformSites upload name>  (342) 
F8h - A71EV2A-x0884/A/147/1

>  <Quatassemblies upload name>  (342) 
A1 - monomer

>  <Crystalforms upload name>  (342) 
F8 - A712A_x4271_2.1_refmac1_1st_ref

>  <ConformerSites short tag>  (342) 
1b - A0911/A/147

>  <CanonSites short tag>  (342) 
1 - A0911/A/147/1

>  <CrystalformSites short tag>  (342) 
F8h - A0884/A/147

>  <Quatassemblies short tag>  (342) 
A1 - monomer

>  <Crystalforms short tag>  (342) 
F8 - A712A_x4271_2.1_refmac1_1st_ref

>  <Centroid res>  (342) 
A71EV2A-x0911/A/133/A_v1

>  <Experiment code>  (342) 
A71EV2A-x4260

>  <Pose>  (342) 
A4260a

$$$$
A4274a
     RDKit          3D

 18 19  0  0  0  0  0  0  0  0999 V2000
   10.2800   16.6230   19.4630 O   0  0  0  0  0  0  0  0  0  0  0  0
   10.6460   15.4620   19.6890 C   0  0  0  0  0  0  0  0  0  0  0  0
   10.9640   14.6130   18.7190 N   0  0  0  0  0  0  0  0  0  0  0  0
   10.6990   14.9170   21.1060 C   0  0  1  0  0  0  0  0  0  0  0  0
   11.6790   15.7050   21.9920 C   0  0  0  0  0  0  0  0  0  0  0  0
   11.6650   15.1350   23.4120 C   0  0  0  0  0  0  0  0  0  0  0  0
   10.2550   15.0880   23.9650 C   0  0  0  0  0  0  0  0  0  0  0  0
    9.2860   14.9180   21.7050 C   0  0  0  0  0  0  0  0  0  0  0  0
    9.2890   14.3970   23.0910 N   0  0  0  0  0  0  0  0  0  0  0  0
    9.4840   12.9360   23.1530 C   0  0  0  0  0  0  0  0  0  0  0  0
    8.4760   12.2440   24.0480 C   0  0  0  0  0  0  0  0  0  0  0  0
    8.3650   10.8560   24.0530 C   0  0  0  0  0  0  0  0  0  0  0  0
    9.1800   10.2240   23.1660 O   0  0  0  0  0  0  0  0  0  0  0  0
    9.1620    8.7760   23.1400 C   0  0  0  0  0  0  0  0  0  0  0  0
    7.7130   13.0030   24.8460 N   0  0  0  0  0  0  0  0  0  0  0  0
    6.8390   12.3990   25.6680 C   0  0  0  0  0  0  0  0  0  0  0  0
    6.6750   11.0350   25.7300 C   0  0  0  0  0  0  0  0  0  0  0  0
    7.4460   10.2390   24.8950 C   0  0  0  0  0  0  0  0  0  0  0  0
 14 13  1  0
 13 12  1  0
 12 18  2  0
 18 17  1  0
 17 16  2  0
 16 15  1  0
 15 11  2  0
 12 11  1  0
 11 10  1  0
 10  9  1  0
  9  7  1  0
  7  6  1  0
  6  5  1  0
  5  4  1  0
  4  2  1  6
  3  2  1  0
  2  1  2  0
  8  4  1  0
  9  8  1  0
M  END
>  <id>  (343) 
343

>  <inchikey>  (343) 
NASHQEPHZGSRGM-JTQLQIEISA-N

>  <alias>  (343) 
A4274a

>  <smiles>  (343) 
COc1cccnc1CN1CCC[C@H](C(N)=O)C1

>  <path>  (343) 
/opt/xchem-fragalysis-2/maxwin/BulkDock/TARGETS/A71EV2A/aligned_files/A4274a/A4274a_hippo.pdb

>  <distance_score>  (343) 
None

>  <energy_score>  (343) 
None

>  <compound>  (343) 
NASHQEPHZGSRGM-UHFFFAOYSA-N

>  <compound_id>  (343) 
263

>  <target>  (343) 
A71EV2A

>  <tags>  (343) 
['GOOD count', 'MEDIOCRE count', '[Other] S1 site', 'hits', '[Other] S2 site', '[Other] P3 compound design', '[Other] upload_1 2025-02-12', 'Main status', '[Series] Piperidine series', 'BAD count']

>  <inspirations>  (343) 
None

>  <subsites>  (343) 
None

>  <reference>  (343) 


>  <observation_longname>  (343) 
A71EV2A-x4274_A_201_v1

>  <ConformerSites alias>  (343) 
1b - A0911/A/147

>  <CanonSites alias>  (343) 
1 - Active Site

>  <CrystalformSites alias>  (343) 
F6o - A4214/A/201

>  <Quatassemblies alias>  (343) 
A1 - monomer

>  <Crystalforms alias>  (343) 
F6 - short_long_x4018

>  <ConformerSites upload name>  (343) 
1b - A71EV2A-x0911/A/147

>  <CanonSites upload name>  (343) 
1 - A71EV2A-x0911/A/147/1

>  <CrystalformSites upload name>  (343) 
F6o - A71EV2A-x4214/A/201/1

>  <Quatassemblies upload name>  (343) 
A1 - monomer

>  <Crystalforms upload name>  (343) 
F6 - short_long_x4018

>  <ConformerSites short tag>  (343) 
1b - A0911/A/147

>  <CanonSites short tag>  (343) 
1 - A0911/A/147/1

>  <CrystalformSites short tag>  (343) 
F6o - A4214/A/201

>  <Quatassemblies short tag>  (343) 
A1 - monomer

>  <Crystalforms short tag>  (343) 
F6 - short_long_x4018

>  <Centroid res>  (343) 
A71EV2A-x0911/A/133/A_v1

>  <Experiment code>  (343) 
A71EV2A-x4274

>  <Pose>  (343) 
A4274a

$$$$
A4274b
     RDKit          3D

 18 19  0  0  0  0  0  0  0  0999 V2000
   10.4010   16.5950   19.3790 O   0  0  0  0  0  0  0  0  0  0  0  0
   10.7870   15.4310   19.5980 C   0  0  0  0  0  0  0  0  0  0  0  0
   11.0260   14.5570   18.6220 N   0  0  0  0  0  0  0  0  0  0  0  0
   10.9410   14.9070   21.0150 C   0  0  1  0  0  0  0  0  0  0  0  0
   11.9540   15.7240   21.8380 C   0  0  0  0  0  0  0  0  0  0  0  0
   12.0410   15.1690   23.2610 C   0  0  0  0  0  0  0  0  0  0  0  0
   10.6780   15.1490   23.9160 C   0  0  0  0  0  0  0  0  0  0  0  0
    9.5740   14.9120   21.7100 C   0  0  0  0  0  0  0  0  0  0  0  0
    9.6780   14.4030   23.0990 N   0  0  0  0  0  0  0  0  0  0  0  0
    9.8800   12.9330   23.1600 C   0  0  0  0  0  0  0  0  0  0  0  0
    8.9470   12.2380   24.1280 C   0  0  0  0  0  0  0  0  0  0  0  0
    8.8070   10.8490   24.1270 C   0  0  0  0  0  0  0  0  0  0  0  0
    9.5510   10.2030   23.1990 O   0  0  0  0  0  0  0  0  0  0  0  0
    9.5140    8.7500   23.1830 C   0  0  0  0  0  0  0  0  0  0  0  0
    8.2790   13.0070   25.0000 N   0  0  0  0  0  0  0  0  0  0  0  0
    7.4440   12.4080   25.8750 C   0  0  0  0  0  0  0  0  0  0  0  0
    7.2400   11.0420   25.9150 C   0  0  0  0  0  0  0  0  0  0  0  0
    7.9350   10.2410   25.0210 C   0  0  0  0  0  0  0  0  0  0  0  0
 14 13  1  0
 13 12  1  0
 12 18  2  0
 18 17  1  0
 17 16  2  0
 16 15  1  0
 15 11  2  0
 12 11  1  0
 11 10  1  0
 10  9  1  0
  9  7  1  0
  7  6  1  0
  6  5  1  0
  5  4  1  0
  4  2  1  6
  3  2  1  0
  2  1  2  0
  8  4  1  0
  9  8  1  0
M  END
>  <id>  (344) 
344

>  <inchikey>  (344) 
NASHQEPHZGSRGM-JTQLQIEISA-N

>  <alias>  (344) 
A4274b

>  <smiles>  (344) 
COc1cccnc1CN1CCC[C@H](C(N)=O)C1

>  <path>  (344) 
/opt/xchem-fragalysis-2/maxwin/BulkDock/TARGETS/A71EV2A/aligned_files/A4274b/A4274b.pdb

>  <distance_score>  (344) 
None

>  <energy_score>  (344) 
None

>  <compound>  (344) 
NASHQEPHZGSRGM-UHFFFAOYSA-N

>  <compound_id>  (344) 
263

>  <target>  (344) 
A71EV2A

>  <tags>  (344) 
['GOOD count', 'MEDIOCRE count', '[Other] S1 site', 'hits', '[Other] S2 site', '[Other] P3 compound design', '[Other] upload_1 2025-02-12', 'Main status', '[Series] Piperidine series', 'BAD count']

>  <inspirations>  (344) 
None

>  <subsites>  (344) 
None

>  <reference>  (344) 


>  <observation_longname>  (344) 
A71EV2A-x4274_C_201_v1

>  <ConformerSites alias>  (344) 
1b - A0911/A/147

>  <CanonSites alias>  (344) 
1 - Active Site

>  <CrystalformSites alias>  (344) 
F6p - A4214/C/201

>  <Quatassemblies alias>  (344) 
A1 - monomer

>  <Crystalforms alias>  (344) 
F6 - short_long_x4018

>  <ConformerSites upload name>  (344) 
1b - A71EV2A-x0911/A/147

>  <CanonSites upload name>  (344) 
1 - A71EV2A-x0911/A/147/1

>  <CrystalformSites upload name>  (344) 
F6p - A71EV2A-x4214/C/201/1

>  <Quatassemblies upload name>  (344) 
A1 - monomer

>  <Crystalforms upload name>  (344) 
F6 - short_long_x4018

>  <ConformerSites short tag>  (344) 
1b - A0911/A/147

>  <CanonSites short tag>  (344) 
1 - A0911/A/147/1

>  <CrystalformSites short tag>  (344) 
F6p - A4214/C/201

>  <Quatassemblies short tag>  (344) 
A1 - monomer

>  <Crystalforms short tag>  (344) 
F6 - short_long_x4018

>  <Centroid res>  (344) 
A71EV2A-x0911/A/133/A_v1

>  <Experiment code>  (344) 
A71EV2A-x4274

>  <Pose>  (344) 
A4274a

$$$$
A4283a
     RDKit          3D

 20 21  0  0  0  0  0  0  0  0999 V2000
   10.2480   16.6640   19.1990 O   0  0  0  0  0  0  0  0  0  0  0  0
   10.6300   15.5190   19.4370 C   0  0  0  0  0  0  0  0  0  0  0  0
   11.0000   14.6730   18.4850 N   0  0  0  0  0  0  0  0  0  0  0  0
   10.6720   14.9830   20.8600 C   0  0  1  0  0  0  0  0  0  0  0  0
   11.8090   15.6270   21.6770 C   0  0  0  0  0  0  0  0  0  0  0  0
   11.8290   15.0670   23.1040 C   0  0  0  0  0  0  0  0  0  0  0  0
   10.4680   15.2390   23.7700 C   0  0  0  0  0  0  0  0  0  0  0  0
    9.3370   15.2170   21.5830 C   0  0  0  0  0  0  0  0  0  0  0  0
    9.4020   14.6620   22.9360 N   0  0  0  0  0  0  0  0  0  0  0  0
    8.5630   13.6670   23.3100 C   0  0  0  0  0  0  0  0  0  0  0  0
    7.6740   13.2610   22.5810 O   0  0  0  0  0  0  0  0  0  0  0  0
    8.7980   13.0670   24.6810 C   0  0  0  0  0  0  0  0  0  0  0  0
    7.8020   12.0070   25.0460 C   0  0  0  0  0  0  0  0  0  0  0  0
    7.9660   10.6870   24.6160 C   0  0  0  0  0  0  0  0  0  0  0  0
    9.0230   10.4720   23.7680 O   0  0  0  0  0  0  0  0  0  0  0  0
    9.2770    9.1320   23.3300 C   0  0  0  0  0  0  0  0  0  0  0  0
    6.8010   12.3810   25.8610 N   0  0  0  0  0  0  0  0  0  0  0  0
    5.9500   11.4300   26.2850 C   0  0  0  0  0  0  0  0  0  0  0  0
    6.0420   10.1050   25.9100 C   0  0  0  0  0  0  0  0  0  0  0  0
    7.0740    9.7190   25.0610 C   0  0  0  0  0  0  0  0  0  0  0  0
 16 15  1  0
 15 14  1  0
 14 20  2  0
 20 19  1  0
 19 18  2  0
 18 17  1  0
 17 13  2  0
 14 13  1  0
 13 12  1  0
 12 10  1  0
 11 10  2  0
 10  9  1  0
  9  7  1  0
  7  6  1  0
  6  5  1  0
  5  4  1  0
  4  2  1  6
  3  2  1  0
  2  1  2  0
  8  4  1  0
  9  8  1  0
M  END
>  <id>  (345) 
345

>  <inchikey>  (345) 
VJNDTMIDSGNFJC-JTQLQIEISA-N

>  <alias>  (345) 
A4283a

>  <smiles>  (345) 
COc1cccnc1CC(=O)N1CCC[C@H](C(N)=O)C1

>  <path>  (345) 
/opt/xchem-fragalysis-2/maxwin/BulkDock/TARGETS/A71EV2A/aligned_files/A4283a/A4283a_hippo.pdb

>  <distance_score>  (345) 
None

>  <energy_score>  (345) 
None

>  <compound>  (345) 
VJNDTMIDSGNFJC-UHFFFAOYSA-N

>  <compound_id>  (345) 
264

>  <target>  (345) 
A71EV2A

>  <tags>  (345) 
['GOOD count', 'MEDIOCRE count', '[Other] S1 site', 'hits', '[Other] S2 site', '[Other] P3 compound design', '[Series] Piperidine series', 'Main status', '[Other] upload_061224', 'BAD count']

>  <inspirations>  (345) 
None

>  <subsites>  (345) 
None

>  <reference>  (345) 


>  <observation_longname>  (345) 
A71EV2A-x4283_A_201_v1

>  <ConformerSites alias>  (345) 
1b - A0911/A/147

>  <CanonSites alias>  (345) 
1 - Active Site

>  <CrystalformSites alias>  (345) 
F7q - A4303/A/201

>  <Quatassemblies alias>  (345) 
A1 - monomer

>  <Crystalforms alias>  (345) 
F7 - A712A_x4207_8.1_refmac1_1st_ref

>  <ConformerSites upload name>  (345) 
1b - A71EV2A-x0911/A/147

>  <CanonSites upload name>  (345) 
1 - A71EV2A-x0911/A/147/1

>  <CrystalformSites upload name>  (345) 
F7q - A71EV2A-x4303/A/201/1

>  <Quatassemblies upload name>  (345) 
A1 - monomer

>  <Crystalforms upload name>  (345) 
F7 - A712A_x4207_8.1_refmac1_1st_ref

>  <ConformerSites short tag>  (345) 
1b - A0911/A/147

>  <CanonSites short tag>  (345) 
1 - A0911/A/147/1

>  <CrystalformSites short tag>  (345) 
F7q - A4303/A/201

>  <Quatassemblies short tag>  (345) 
A1 - monomer

>  <Crystalforms short tag>  (345) 
F7 - A712A_x4207_8.1_refmac1_1st_ref

>  <Centroid res>  (345) 
A71EV2A-x0911/A/133/A_v1

>  <Experiment code>  (345) 
A71EV2A-x4283

>  <Pose>  (345) 
A4283a

$$$$
A4283b
     RDKit          3D

 20 21  0  0  0  0  0  0  0  0999 V2000
   10.3090   16.6270   19.2350 O   0  0  0  0  0  0  0  0  0  0  0  0
   10.7300   15.4830   19.4450 C   0  0  0  0  0  0  0  0  0  0  0  0
   11.0560   14.6340   18.4760 N   0  0  0  0  0  0  0  0  0  0  0  0
   10.8520   14.9440   20.8600 C   0  0  1  0  0  0  0  0  0  0  0  0
   12.0150   15.6230   21.6140 C   0  0  0  0  0  0  0  0  0  0  0  0
   12.1100   15.1110   23.0590 C   0  0  0  0  0  0  0  0  0  0  0  0
   10.7640   15.2530   23.7790 C   0  0  0  0  0  0  0  0  0  0  0  0
    9.5490   15.1420   21.6500 C   0  0  0  0  0  0  0  0  0  0  0  0
    9.7060   14.5910   22.9990 N   0  0  0  0  0  0  0  0  0  0  0  0
    8.9290   13.5640   23.4150 C   0  0  0  0  0  0  0  0  0  0  0  0
    7.9940   13.1480   22.7390 O   0  0  0  0  0  0  0  0  0  0  0  0
    9.2570   12.9620   24.7720 C   0  0  0  0  0  0  0  0  0  0  0  0
    8.2710   11.8950   25.1750 C   0  0  0  0  0  0  0  0  0  0  0  0
    8.4130   10.5810   24.7240 C   0  0  0  0  0  0  0  0  0  0  0  0
    9.4130   10.3790   23.8100 O   0  0  0  0  0  0  0  0  0  0  0  0
    9.6450    9.0370   23.3540 C   0  0  0  0  0  0  0  0  0  0  0  0
    7.3030   12.2510   26.0350 N   0  0  0  0  0  0  0  0  0  0  0  0
    6.4870   11.2940   26.5000 C   0  0  0  0  0  0  0  0  0  0  0  0
    6.5790    9.9750   26.1280 C   0  0  0  0  0  0  0  0  0  0  0  0
    7.5570    9.6030   25.2140 C   0  0  0  0  0  0  0  0  0  0  0  0
 16 15  1  0
 15 14  1  0
 14 20  2  0
 20 19  1  0
 19 18  2  0
 18 17  1  0
 17 13  2  0
 14 13  1  0
 13 12  1  0
 12 10  1  0
 11 10  2  0
 10  9  1  0
  9  7  1  0
  7  6  1  0
  6  5  1  0
  5  4  1  0
  4  2  1  6
  3  2  1  0
  2  1  2  0
  8  4  1  0
  9  8  1  0
M  END
>  <id>  (346) 
346

>  <inchikey>  (346) 
VJNDTMIDSGNFJC-JTQLQIEISA-N

>  <alias>  (346) 
A4283b

>  <smiles>  (346) 
COc1cccnc1CC(=O)N1CCC[C@H](C(N)=O)C1

>  <path>  (346) 
/opt/xchem-fragalysis-2/maxwin/BulkDock/TARGETS/A71EV2A/aligned_files/A4283b/A4283b_hippo.pdb

>  <distance_score>  (346) 
None

>  <energy_score>  (346) 
None

>  <compound>  (346) 
VJNDTMIDSGNFJC-UHFFFAOYSA-N

>  <compound_id>  (346) 
264

>  <target>  (346) 
A71EV2A

>  <tags>  (346) 
['GOOD count', 'MEDIOCRE count', '[Other] S1 site', 'hits', '[Other] S2 site', '[Other] P3 compound design', '[Series] Piperidine series', 'Main status', '[Other] upload_061224', 'BAD count']

>  <inspirations>  (346) 
None

>  <subsites>  (346) 
None

>  <reference>  (346) 


>  <observation_longname>  (346) 
A71EV2A-x4283_C_201_v1

>  <ConformerSites alias>  (346) 
1b - A0911/A/147

>  <CanonSites alias>  (346) 
1 - Active Site

>  <CrystalformSites alias>  (346) 
F7r - A4303/C/201

>  <Quatassemblies alias>  (346) 
A1 - monomer

>  <Crystalforms alias>  (346) 
F7 - A712A_x4207_8.1_refmac1_1st_ref

>  <ConformerSites upload name>  (346) 
1b - A71EV2A-x0911/A/147

>  <CanonSites upload name>  (346) 
1 - A71EV2A-x0911/A/147/1

>  <CrystalformSites upload name>  (346) 
F7r - A71EV2A-x4303/C/201/1

>  <Quatassemblies upload name>  (346) 
A1 - monomer

>  <Crystalforms upload name>  (346) 
F7 - A712A_x4207_8.1_refmac1_1st_ref

>  <ConformerSites short tag>  (346) 
1b - A0911/A/147

>  <CanonSites short tag>  (346) 
1 - A0911/A/147/1

>  <CrystalformSites short tag>  (346) 
F7r - A4303/C/201

>  <Quatassemblies short tag>  (346) 
A1 - monomer

>  <Crystalforms short tag>  (346) 
F7 - A712A_x4207_8.1_refmac1_1st_ref

>  <Centroid res>  (346) 
A71EV2A-x0911/A/133/A_v1

>  <Experiment code>  (346) 
A71EV2A-x4283

>  <Pose>  (346) 
A4283a

$$$$
A4386a
     RDKit          3D

 20 21  0  0  0  0  0  0  0  0999 V2000
   10.4190   16.8030   19.1770 O   0  0  0  0  0  0  0  0  0  0  0  0
   10.7180   15.6260   19.3960 C   0  0  0  0  0  0  0  0  0  0  0  0
   11.1850   14.8260   18.4550 N   0  0  0  0  0  0  0  0  0  0  0  0
   10.6910   15.0550   20.8050 C   0  0  1  0  0  0  0  0  0  0  0  0
   11.7930   15.7110   21.6580 C   0  0  0  0  0  0  0  0  0  0  0  0
   11.8360   15.1560   23.0800 C   0  0  0  0  0  0  0  0  0  0  0  0
   10.4790   15.2900   23.7360 C   0  0  0  0  0  0  0  0  0  0  0  0
    9.3500   15.2230   21.5320 C   0  0  0  0  0  0  0  0  0  0  0  0
    9.4200   14.6900   22.9030 N   0  0  0  0  0  0  0  0  0  0  0  0
    8.5390   13.7650   23.3560 C   0  0  0  0  0  0  0  0  0  0  0  0
    7.6470   13.3110   22.6480 O   0  0  0  0  0  0  0  0  0  0  0  0
    8.6880   13.3460   24.8100 C   0  0  0  0  0  0  0  0  0  0  0  0
    7.8410   12.1490   25.1850 C   0  0  0  0  0  0  0  0  0  0  0  0
    8.0950   10.8490   24.7200 C   0  0  0  0  0  0  0  0  0  0  0  0
    9.4150   10.6170   23.5730 S   0  0  0  0  0  0  0  0  0  0  0  0
    9.5290    8.8350   23.4160 C   0  0  0  0  0  0  0  0  0  0  0  0
    6.7860   12.3290   26.0770 C   0  0  0  0  0  0  0  0  0  0  0  0
    6.0100   11.2630   26.4920 C   0  0  0  0  0  0  0  0  0  0  0  0
    6.2740    9.9970   26.0360 C   0  0  0  0  0  0  0  0  0  0  0  0
    7.3210    9.7770   25.1640 C   0  0  0  0  0  0  0  0  0  0  0  0
 16 15  1  0
 15 14  1  0
 14 20  2  0
 20 19  1  0
 19 18  2  0
 18 17  1  0
 17 13  2  0
 14 13  1  0
 13 12  1  0
 12 10  1  0
 11 10  2  0
 10  9  1  0
  9  7  1  0
  7  6  1  0
  6  5  1  0
  5  4  1  0
  4  2  1  6
  3  2  1  0
  2  1  2  0
  8  4  1  0
  9  8  1  0
M  END
>  <id>  (347) 
347

>  <inchikey>  (347) 
OEVXZKJZIWUQNR-LBPRGKRZSA-N

>  <alias>  (347) 
A4386a

>  <smiles>  (347) 
CSc1ccccc1CC(=O)N1CCC[C@H](C(N)=O)C1

>  <path>  (347) 
/opt/xchem-fragalysis-2/maxwin/BulkDock/TARGETS/A71EV2A/aligned_files/A4386a/A4386a.pdb

>  <distance_score>  (347) 
None

>  <energy_score>  (347) 
None

>  <compound>  (347) 
OEVXZKJZIWUQNR-UHFFFAOYSA-N

>  <compound_id>  (347) 
265

>  <target>  (347) 
A71EV2A

>  <tags>  (347) 
['GOOD count', 'MEDIOCRE count', '[Other] S1 site', 'hits', '[Other] S2 site', '[Other] P3 compound design', '[Series] Piperidine series', 'Main status', '[Other] upload_061224', 'BAD count']

>  <inspirations>  (347) 
None

>  <subsites>  (347) 
None

>  <reference>  (347) 


>  <observation_longname>  (347) 
A71EV2A-x4386_A_201_v1

>  <ConformerSites alias>  (347) 
1b - A0911/A/147

>  <CanonSites alias>  (347) 
1 - Active Site

>  <CrystalformSites alias>  (347) 
F8h - A0884/A/147

>  <Quatassemblies alias>  (347) 
A1 - monomer

>  <Crystalforms alias>  (347) 
F8 - A712A_x4271_2.1_refmac1_1st_ref

>  <ConformerSites upload name>  (347) 
1b - A71EV2A-x0911/A/147

>  <CanonSites upload name>  (347) 
1 - A71EV2A-x0911/A/147/1

>  <CrystalformSites upload name>  (347) 
F8h - A71EV2A-x0884/A/147/1

>  <Quatassemblies upload name>  (347) 
A1 - monomer

>  <Crystalforms upload name>  (347) 
F8 - A712A_x4271_2.1_refmac1_1st_ref

>  <ConformerSites short tag>  (347) 
1b - A0911/A/147

>  <CanonSites short tag>  (347) 
1 - A0911/A/147/1

>  <CrystalformSites short tag>  (347) 
F8h - A0884/A/147

>  <Quatassemblies short tag>  (347) 
A1 - monomer

>  <Crystalforms short tag>  (347) 
F8 - A712A_x4271_2.1_refmac1_1st_ref

>  <Centroid res>  (347) 
A71EV2A-x0911/A/133/A_v1

>  <Experiment code>  (347) 
A71EV2A-x4386

>  <Pose>  (347) 
A4386a

$$$$
A4388a
     RDKit          3D

 21 22  0  0  0  0  0  0  0  0999 V2000
   10.3410   16.6040   19.2330 O   0  0  0  0  0  0  0  0  0  0  0  0
   10.7390   15.4550   19.4500 C   0  0  0  0  0  0  0  0  0  0  0  0
   11.0500   14.6160   18.4880 N   0  0  0  0  0  0  0  0  0  0  0  0
   10.8080   14.8980   20.8620 C   0  0  1  0  0  0  0  0  0  0  0  0
   11.9790   15.4930   21.6640 C   0  0  0  0  0  0  0  0  0  0  0  0
   12.0330   14.9290   23.0930 C   0  0  0  0  0  0  0  0  0  0  0  0
   10.6860   15.0900   23.7790 C   0  0  0  0  0  0  0  0  0  0  0  0
    9.4910   15.0720   21.6220 C   0  0  0  0  0  0  0  0  0  0  0  0
    9.6190   14.4880   22.9620 N   0  0  0  0  0  0  0  0  0  0  0  0
    8.8430   13.4610   23.3630 C   0  0  0  0  0  0  0  0  0  0  0  0
    7.9260   13.0320   22.6800 O   0  0  0  0  0  0  0  0  0  0  0  0
    9.1620   12.8720   24.7240 C   0  0  0  0  0  0  0  0  0  0  0  0
    8.2110   11.7570   25.0820 C   0  0  0  0  0  0  0  0  0  0  0  0
    8.2960   10.4410   24.5840 C   0  0  0  0  0  0  0  0  0  0  0  0
    9.3150   10.2390   23.7140 O   0  0  0  0  0  0  0  0  0  0  0  0
    9.5980    8.8950   23.3030 C   0  0  0  0  0  0  0  0  0  0  0  0
    7.2020   11.9980   26.0060 C   0  0  0  0  0  0  0  0  0  0  0  0
    6.3690   10.9700   26.3740 C   0  0  0  0  0  0  0  0  0  0  0  0
    4.9760   11.3070   27.6140 Br  0  0  0  0  0  0  0  0  0  0  0  0
    6.5370    9.7180   25.8460 C   0  0  0  0  0  0  0  0  0  0  0  0
    7.4940    9.4450   24.9470 N   0  0  0  0  0  0  0  0  0  0  0  0
 16 15  1  0
 15 14  1  0
 14 21  2  0
 21 20  1  0
 20 18  2  0
 19 18  1  0
 18 17  1  0
 17 13  2  0
 14 13  1  0
 13 12  1  0
 12 10  1  0
 11 10  2  0
 10  9  1  0
  9  7  1  0
  7  6  1  0
  6  5  1  0
  5  4  1  0
  4  2  1  6
  3  2  1  0
  2  1  2  0
  8  4  1  0
  9  8  1  0
M  END
>  <id>  (348) 
348

>  <inchikey>  (348) 
ZJPNDTHCVMYTGE-VIFPVBQESA-N

>  <alias>  (348) 
A4388a

>  <smiles>  (348) 
COc1ncc(Br)cc1CC(=O)N1CCC[C@H](C(N)=O)C1

>  <path>  (348) 
/opt/xchem-fragalysis-2/maxwin/BulkDock/TARGETS/A71EV2A/aligned_files/A4388a/A4388a.pdb

>  <distance_score>  (348) 
None

>  <energy_score>  (348) 
None

>  <compound>  (348) 
ZJPNDTHCVMYTGE-UHFFFAOYSA-N

>  <compound_id>  (348) 
266

>  <target>  (348) 
A71EV2A

>  <tags>  (348) 
['GOOD count', 'MEDIOCRE count', '[Other] S1 site', 'hits', '[Other] S2 site', '[Other] P3 compound design', '[Other] upload_1 2025-02-12', 'Main status', '[Series] Piperidine series', 'BAD count']

>  <inspirations>  (348) 
None

>  <subsites>  (348) 
None

>  <reference>  (348) 


>  <observation_longname>  (348) 
A71EV2A-x4388_A_201_v1

>  <ConformerSites alias>  (348) 
1b - A0911/A/147

>  <CanonSites alias>  (348) 
1 - Active Site

>  <CrystalformSites alias>  (348) 
F8h - A0884/A/147

>  <Quatassemblies alias>  (348) 
A1 - monomer

>  <Crystalforms alias>  (348) 
F8 - A712A_x4271_2.1_refmac1_1st_ref

>  <ConformerSites upload name>  (348) 
1b - A71EV2A-x0911/A/147

>  <CanonSites upload name>  (348) 
1 - A71EV2A-x0911/A/147/1

>  <CrystalformSites upload name>  (348) 
F8h - A71EV2A-x0884/A/147/1

>  <Quatassemblies upload name>  (348) 
A1 - monomer

>  <Crystalforms upload name>  (348) 
F8 - A712A_x4271_2.1_refmac1_1st_ref

>  <ConformerSites short tag>  (348) 
1b - A0911/A/147

>  <CanonSites short tag>  (348) 
1 - A0911/A/147/1

>  <CrystalformSites short tag>  (348) 
F8h - A0884/A/147

>  <Quatassemblies short tag>  (348) 
A1 - monomer

>  <Crystalforms short tag>  (348) 
F8 - A712A_x4271_2.1_refmac1_1st_ref

>  <Centroid res>  (348) 
A71EV2A-x0911/A/133/A_v1

>  <Experiment code>  (348) 
A71EV2A-x4388

>  <Pose>  (348) 
A4388a

$$$$
A4390a
     RDKit          3D

 20 21  0  0  0  0  0  0  0  0999 V2000
   11.1010   15.0850   24.8790 O   0  0  0  0  0  0  0  0  0  0  0  0
   10.9840   15.1610   23.6580 C   0  0  0  0  0  0  0  0  0  0  0  0
   12.1490   15.5280   22.7500 C   0  0  0  0  0  0  0  0  0  0  0  0
   12.0110   14.8290   21.3790 C   0  0  0  0  0  0  0  0  0  0  0  0
   10.7630   15.4570   20.8290 C   0  0  1  0  0  0  0  0  0  0  0  0
   10.6610   15.5770   19.3210 C   0  0  0  0  0  0  0  0  0  0  0  0
   10.2280   16.6130   18.8390 O   0  0  0  0  0  0  0  0  0  0  0  0
   11.0940   14.5660   18.5540 N   0  0  0  0  0  0  0  0  0  0  0  0
    9.5440   14.9410   21.5880 C   0  0  0  0  0  0  0  0  0  0  0  0
    9.7970   14.9420   23.0330 N   0  0  0  0  0  0  0  0  0  0  0  0
    8.6950   14.3620   23.7980 C   0  0  0  0  0  0  0  0  0  0  0  0
    8.8840   12.8560   23.7570 C   0  0  0  0  0  0  0  0  0  0  0  0
    7.8610   12.0180   24.4700 C   0  0  0  0  0  0  0  0  0  0  0  0
    7.8940   10.6350   24.3350 C   0  0  0  0  0  0  0  0  0  0  0  0
    8.8010   10.1810   23.4230 O   0  0  0  0  0  0  0  0  0  0  0  0
    8.9750    8.7630   23.2910 C   0  0  0  0  0  0  0  0  0  0  0  0
    6.9300   12.5790   25.3380 C   0  0  0  0  0  0  0  0  0  0  0  0
    6.0880   11.7690   26.0840 C   0  0  0  0  0  0  0  0  0  0  0  0
    6.1570   10.3970   25.9630 C   0  0  0  0  0  0  0  0  0  0  0  0
    7.0500    9.8210   25.0710 C   0  0  0  0  0  0  0  0  0  0  0  0
 16 15  1  0
 15 14  1  0
 14 20  2  0
 20 19  1  0
 19 18  2  0
 18 17  1  0
 17 13  2  0
 14 13  1  0
 13 12  1  0
 12 11  1  0
 11 10  1  0
 10  9  1  0
  9  5  1  0
  5  6  1  6
  8  6  1  0
  7  6  2  0
  5  4  1  0
  4  3  1  0
  3  2  1  0
 10  2  1  0
  2  1  2  0
M  END
>  <id>  (349) 
349

>  <inchikey>  (349) 
LXGPKCNTFLTCMR-GFCCVEGCSA-N

>  <alias>  (349) 
A4390a

>  <smiles>  (349) 
COc1ccccc1CCN1C[C@H](C(N)=O)CCC1=O

>  <path>  (349) 
/opt/xchem-fragalysis-2/maxwin/BulkDock/TARGETS/A71EV2A/aligned_files/A4390a/A4390a.pdb

>  <distance_score>  (349) 
None

>  <energy_score>  (349) 
None

>  <compound>  (349) 
LXGPKCNTFLTCMR-UHFFFAOYSA-N

>  <compound_id>  (349) 
267

>  <target>  (349) 
A71EV2A

>  <tags>  (349) 
['GOOD count', 'MEDIOCRE count', '[Other] S1 site', 'hits', '[Other] S2 site', '[Other] Lactam Series', '[Other] P3 compound design', '[Other] upload_1 2025-02-12', 'Main status', 'BAD count']

>  <inspirations>  (349) 
None

>  <subsites>  (349) 
None

>  <reference>  (349) 


>  <observation_longname>  (349) 
A71EV2A-x4390_A_201_v1

>  <ConformerSites alias>  (349) 
1b - A0911/A/147

>  <CanonSites alias>  (349) 
1 - Active Site

>  <CrystalformSites alias>  (349) 
F5i - A3175/A/201

>  <Quatassemblies alias>  (349) 
A1 - monomer

>  <Crystalforms alias>  (349) 
F5 - A71EV2A_x3178_new_long_dials_041024

>  <ConformerSites upload name>  (349) 
1b - A71EV2A-x0911/A/147

>  <CanonSites upload name>  (349) 
1 - A71EV2A-x0911/A/147/1

>  <CrystalformSites upload name>  (349) 
F5i - A71EV2A-x3175/A/201/1

>  <Quatassemblies upload name>  (349) 
A1 - monomer

>  <Crystalforms upload name>  (349) 
F5 - A71EV2A_x3178_new_long_dials_041024

>  <ConformerSites short tag>  (349) 
1b - A0911/A/147

>  <CanonSites short tag>  (349) 
1 - A0911/A/147/1

>  <CrystalformSites short tag>  (349) 
F5i - A3175/A/201

>  <Quatassemblies short tag>  (349) 
A1 - monomer

>  <Crystalforms short tag>  (349) 
F5 - A71EV2A_x3178_new_long_dials_041024

>  <Centroid res>  (349) 
A71EV2A-x0911/A/133/A_v1

>  <Experiment code>  (349) 
A71EV2A-x4390

>  <Pose>  (349) 
A4390a

$$$$
A4402a
     RDKit          3D

 19 20  0  0  0  0  0  0  0  0999 V2000
    7.6760   13.4110   22.2940 O   0  0  0  0  0  0  0  0  0  0  0  0
    8.5040   13.8540   23.0540 C   0  0  0  0  0  0  0  0  0  0  0  0
    9.2030   14.9860   22.7580 N   0  0  0  0  0  0  0  0  0  0  0  0
    9.1890   15.4760   21.3750 C   0  0  0  0  0  0  0  0  0  0  0  0
   10.4810   15.1510   20.6690 C   0  0  0  0  0  0  0  0  0  0  0  0
   10.4630   15.5020   19.2050 C   0  0  0  0  0  0  0  0  0  0  0  0
   10.1000   16.6220   18.8280 O   0  0  0  0  0  0  0  0  0  0  0  0
   10.8340   14.5350   18.3820 N   0  0  0  0  0  0  0  0  0  0  0  0
   10.0440   15.7570   23.6760 C   0  0  0  0  0  0  0  0  0  0  0  0
    9.6450   15.5070   25.1150 C   0  0  0  0  0  0  0  0  0  0  0  0
    9.4080   14.0350   25.4120 C   0  0  0  0  0  0  0  0  0  0  0  0
    8.6490   13.3730   24.3340 N   0  0  0  0  0  0  0  0  0  0  0  0
    8.2220   12.0500   24.6350 C   0  0  0  0  0  0  0  0  0  0  0  0
    7.2780   11.8180   25.6320 C   0  0  0  0  0  0  0  0  0  0  0  0
    6.9020   10.5160   25.9120 C   0  0  0  0  0  0  0  0  0  0  0  0
    7.4320    9.4640   25.1780 C   0  0  0  0  0  0  0  0  0  0  0  0
    8.7750   10.9810   23.9340 C   0  0  0  0  0  0  0  0  0  0  0  0
    8.3740    9.6790   24.1880 C   0  0  0  0  0  0  0  0  0  0  0  0
    9.0080    8.5220   23.4550 C   0  0  0  0  0  0  0  0  0  0  0  0
 19 18  1  0
 18 16  2  0
 16 15  1  0
 15 14  2  0
 14 13  1  0
 13 12  1  0
 12 11  1  0
 11 10  1  0
 10  9  1  0
  9  3  1  0
  4  3  1  0
  5  4  1  0
  6  5  1  0
  8  6  1  0
  7  6  2  0
  3  2  1  0
 12  2  1  0
  2  1  2  0
 17 13  2  0
 18 17  1  0
M  END
>  <id>  (350) 
350

>  <inchikey>  (350) 
SQAKFKXNPUIJIK-UHFFFAOYSA-N

>  <alias>  (350) 
A4402a

>  <smiles>  (350) 
Cc1cccc(N2CCCN(CCC(N)=O)C2=O)c1

>  <path>  (350) 
/opt/xchem-fragalysis-2/maxwin/BulkDock/TARGETS/A71EV2A/aligned_files/A4402a/A4402a.pdb

>  <distance_score>  (350) 
None

>  <energy_score>  (350) 
None

>  <compound>  (350) 
SQAKFKXNPUIJIK-UHFFFAOYSA-N

>  <compound_id>  (350) 
268

>  <target>  (350) 
A71EV2A

>  <tags>  (350) 
['GOOD count', 'MEDIOCRE count', '[Other] S1 site', 'hits', '[Other] S2 site', '[Other] P3 compound design', '[Other] upload_1 2025-02-12', 'Main status', 'BAD count']

>  <inspirations>  (350) 
None

>  <subsites>  (350) 
None

>  <reference>  (350) 


>  <observation_longname>  (350) 
A71EV2A-x4402_A_201_v1

>  <ConformerSites alias>  (350) 
1b - A0911/A/147

>  <CanonSites alias>  (350) 
1 - Active Site

>  <CrystalformSites alias>  (350) 
F5i - A3175/A/201

>  <Quatassemblies alias>  (350) 
A1 - monomer

>  <Crystalforms alias>  (350) 
F5 - A71EV2A_x3178_new_long_dials_041024

>  <ConformerSites upload name>  (350) 
1b - A71EV2A-x0911/A/147

>  <CanonSites upload name>  (350) 
1 - A71EV2A-x0911/A/147/1

>  <CrystalformSites upload name>  (350) 
F5i - A71EV2A-x3175/A/201/1

>  <Quatassemblies upload name>  (350) 
A1 - monomer

>  <Crystalforms upload name>  (350) 
F5 - A71EV2A_x3178_new_long_dials_041024

>  <ConformerSites short tag>  (350) 
1b - A0911/A/147

>  <CanonSites short tag>  (350) 
1 - A0911/A/147/1

>  <CrystalformSites short tag>  (350) 
F5i - A3175/A/201

>  <Quatassemblies short tag>  (350) 
A1 - monomer

>  <Crystalforms short tag>  (350) 
F5 - A71EV2A_x3178_new_long_dials_041024

>  <Centroid res>  (350) 
A71EV2A-x0911/A/133/A_v1

>  <Experiment code>  (350) 
A71EV2A-x4402

>  <Pose>  (350) 
A4402a

$$$$
A4403a
     RDKit          3D

 23 24  0  0  0  0  0  0  0  0999 V2000
    9.6760   15.4380   26.6620 O   0  0  0  0  0  0  0  0  0  0  0  0
    8.3260   15.6480   27.0830 S   0  0  0  0  0  0  0  0  0  0  0  0
    7.8850   15.1230   28.3380 O   0  0  0  0  0  0  0  0  0  0  0  0
    8.0200   17.2240   27.0570 N   0  0  0  0  0  0  0  0  0  0  0  0
    7.2430   15.0230   25.8060 C   0  0  0  0  0  0  0  0  0  0  0  0
    6.8860   13.5720   26.0040 C   0  0  0  0  0  0  0  0  0  0  0  0
    5.8070   13.2660   26.8340 C   0  0  0  0  0  0  0  0  0  0  0  0
    5.4870   11.9520   27.1200 C   0  0  0  0  0  0  0  0  0  0  0  0
    6.2250   10.9270   26.5720 C   0  0  0  0  0  0  0  0  0  0  0  0
    7.2830   11.2080   25.7240 C   0  0  0  0  0  0  0  0  0  0  0  0
    7.6350   12.5250   25.4340 C   0  0  0  0  0  0  0  0  0  0  0  0
    8.8460   12.7790   24.5640 C   0  0  0  0  0  0  0  0  0  0  0  0
    8.5050   13.5170   23.2820 C   0  0  0  0  0  0  0  0  0  0  0  0
    7.5300   13.2140   22.6130 O   0  0  0  0  0  0  0  0  0  0  0  0
    9.3320   14.5260   22.9250 N   0  0  0  0  0  0  0  0  0  0  0  0
   10.4490   15.0350   23.7350 C   0  0  0  0  0  0  0  0  0  0  0  0
   11.7750   14.8020   23.0190 C   0  0  0  0  0  0  0  0  0  0  0  0
   11.7380   15.3790   21.6010 C   0  0  0  0  0  0  0  0  0  0  0  0
    9.2360   15.1610   21.6080 C   0  0  0  0  0  0  0  0  0  0  0  0
   10.5140   14.8740   20.8160 C   0  0  1  0  0  0  0  0  0  0  0  0
   10.4810   15.4420   19.4070 C   0  0  0  0  0  0  0  0  0  0  0  0
   10.0540   16.5780   19.1900 O   0  0  0  0  0  0  0  0  0  0  0  0
   10.9280   14.6390   18.4500 N   0  0  0  0  0  0  0  0  0  0  0  0
 23 21  1  0
 22 21  2  0
 20 21  1  6
 20 18  1  0
 18 17  1  0
 17 16  1  0
 16 15  1  0
 15 13  1  0
 14 13  2  0
 13 12  1  0
 12 11  1  0
 11 10  2  0
 10  9  1  0
  9  8  2  0
  8  7  1  0
  7  6  2  0
 11  6  1  0
  6  5  1  0
  5  2  1  0
  4  2  1  0
  3  2  2  0
  2  1  2  0
 19 15  1  0
 20 19  1  0
M  END
>  <id>  (351) 
351

>  <inchikey>  (351) 
FCIDCAMVGTXVQD-LBPRGKRZSA-N

>  <alias>  (351) 
A4403a

>  <smiles>  (351) 
NC(=O)[C@H]1CCCN(C(=O)Cc2ccccc2CS(N)(=O)=O)C1

>  <path>  (351) 
/opt/xchem-fragalysis-2/maxwin/BulkDock/TARGETS/A71EV2A/aligned_files/A4403a/A4403a.pdb

>  <distance_score>  (351) 
None

>  <energy_score>  (351) 
None

>  <compound>  (351) 
FCIDCAMVGTXVQD-UHFFFAOYSA-N

>  <compound_id>  (351) 
269

>  <target>  (351) 
A71EV2A

>  <tags>  (351) 
['GOOD count', 'MEDIOCRE count', '[Other] S1 site', 'hits', '[Other] S2 site', '[Other] P3 compound design', '[Other] upload_1 2025-02-12', 'Main status', '[Series] Piperidine series', 'BAD count']

>  <inspirations>  (351) 
None

>  <subsites>  (351) 
None

>  <reference>  (351) 


>  <observation_longname>  (351) 
A71EV2A-x4403_A_201_v1

>  <ConformerSites alias>  (351) 
1b - A0911/A/147

>  <CanonSites alias>  (351) 
1 - Active Site

>  <CrystalformSites alias>  (351) 
F1a - A0375/A/201

>  <Quatassemblies alias>  (351) 
A1 - monomer

>  <Crystalforms alias>  (351) 
F1 - A71_2A_open

>  <ConformerSites upload name>  (351) 
1b - A71EV2A-x0911/A/147

>  <CanonSites upload name>  (351) 
1 - A71EV2A-x0911/A/147/1

>  <CrystalformSites upload name>  (351) 
F1a - A71EV2A-x0375/A/201/1

>  <Quatassemblies upload name>  (351) 
A1 - monomer

>  <Crystalforms upload name>  (351) 
F1 - A71_2A_open

>  <ConformerSites short tag>  (351) 
1b - A0911/A/147

>  <CanonSites short tag>  (351) 
1 - A0911/A/147/1

>  <CrystalformSites short tag>  (351) 
F1a - A0375/A/201

>  <Quatassemblies short tag>  (351) 
A1 - monomer

>  <Crystalforms short tag>  (351) 
F1 - A71_2A_open

>  <Centroid res>  (351) 
A71EV2A-x0911/A/133/A_v1

>  <Experiment code>  (351) 
A71EV2A-x4403

>  <Pose>  (351) 
A4403a

$$$$
A4406a
     RDKit          3D

 21 22  0  0  0  0  0  0  0  0999 V2000
   10.7520   14.8440   24.6410 O   0  0  0  0  0  0  0  0  0  0  0  0
   10.8040   14.9630   23.4390 C   0  0  0  0  0  0  0  0  0  0  0  0
   12.0170   15.5300   22.7570 C   0  0  0  0  0  0  0  0  0  0  0  0
   11.8350   15.9800   21.3160 C   0  0  0  0  0  0  0  0  0  0  0  0
   10.9230   15.0140   20.5600 C   0  0  2  0  0  0  0  0  0  0  0  0
   10.7720   15.4200   19.1070 C   0  0  0  0  0  0  0  0  0  0  0  0
   10.2520   16.4910   18.7960 O   0  0  0  0  0  0  0  0  0  0  0  0
   11.2470   14.5630   18.2210 N   0  0  0  0  0  0  0  0  0  0  0  0
    9.6030   15.1060   21.3130 C   0  0  0  0  0  0  0  0  0  0  0  0
    9.8190   14.5490   22.6460 N   0  0  0  0  0  0  0  0  0  0  0  0
    9.0490   13.3630   23.0270 C   0  0  0  0  0  0  0  0  0  0  0  0
    7.5640   13.4930   23.3670 C   0  0  1  0  0  0  0  0  0  0  0  0
    6.8160   13.3460   22.1600 O   0  0  0  0  0  0  0  0  0  0  0  0
    7.1190   12.4710   24.4000 C   0  0  0  0  0  0  0  0  0  0  0  0
    7.6030   11.1720   24.3650 C   0  0  0  0  0  0  0  0  0  0  0  0
    8.3920   10.8910   23.3080 O   0  0  0  0  0  0  0  0  0  0  0  0
    9.0010    9.6700   23.2910 C   0  0  0  0  0  0  0  0  0  0  0  0
    6.1760   12.7790   25.3730 C   0  0  0  0  0  0  0  0  0  0  0  0
    5.7300   11.8150   26.2660 C   0  0  0  0  0  0  0  0  0  0  0  0
    6.2330   10.5320   26.2150 C   0  0  0  0  0  0  0  0  0  0  0  0
    7.1860   10.2020   25.2720 C   0  0  0  0  0  0  0  0  0  0  0  0
 17 16  1  0
 16 15  1  0
 15 21  2  0
 21 20  1  0
 20 19  2  0
 19 18  1  0
 18 14  2  0
 15 14  1  0
 14 12  1  0
 12 13  1  6
 12 11  1  0
 11 10  1  0
 10  9  1  0
  9  5  1  0
  5  6  1  6
  8  6  1  0
  7  6  2  0
  5  4  1  0
  4  3  1  0
  3  2  1  0
 10  2  1  0
  2  1  2  0
M  END
>  <id>  (352) 
352

>  <inchikey>  (352) 
COPNVNDXUDILLN-CMPLNLGQSA-N

>  <alias>  (352) 
A4406a

>  <smiles>  (352) 
COc1ccccc1[C@H](O)CN1C[C@@H](C(N)=O)CCC1=O

>  <path>  (352) 
/opt/xchem-fragalysis-2/maxwin/BulkDock/TARGETS/A71EV2A/aligned_files/A4406a/A4406a.pdb

>  <distance_score>  (352) 
None

>  <energy_score>  (352) 
None

>  <compound>  (352) 
COPNVNDXUDILLN-UHFFFAOYSA-N

>  <compound_id>  (352) 
270

>  <target>  (352) 
A71EV2A

>  <tags>  (352) 
['GOOD count', 'MEDIOCRE count', '[Other] S1 site', 'hits', '[Other] S2 site', '[Other] Lactam Series', '[Other] upload_6_2025-02-13', '[Other] P3 compound design', 'Main status', 'BAD count', '[Other] S3 site']

>  <inspirations>  (352) 
None

>  <subsites>  (352) 
None

>  <reference>  (352) 


>  <observation_longname>  (352) 
A71EV2A-x4406_A_201_v1

>  <ConformerSites alias>  (352) 
1b - A0911/A/147

>  <CanonSites alias>  (352) 
1 - Active Site

>  <CrystalformSites alias>  (352) 
F5i - A3175/A/201

>  <Quatassemblies alias>  (352) 
A1 - monomer

>  <Crystalforms alias>  (352) 
F5 - A71EV2A_x3178_new_long_dials_041024

>  <ConformerSites upload name>  (352) 
1b - A71EV2A-x0911/A/147

>  <CanonSites upload name>  (352) 
1 - A71EV2A-x0911/A/147/1

>  <CrystalformSites upload name>  (352) 
F5i - A71EV2A-x3175/A/201/1

>  <Quatassemblies upload name>  (352) 
A1 - monomer

>  <Crystalforms upload name>  (352) 
F5 - A71EV2A_x3178_new_long_dials_041024

>  <ConformerSites short tag>  (352) 
1b - A0911/A/147

>  <CanonSites short tag>  (352) 
1 - A0911/A/147/1

>  <CrystalformSites short tag>  (352) 
F5i - A3175/A/201

>  <Quatassemblies short tag>  (352) 
A1 - monomer

>  <Crystalforms short tag>  (352) 
F5 - A71EV2A_x3178_new_long_dials_041024

>  <Centroid res>  (352) 
A71EV2A-x0911/A/133/A_v1

>  <Experiment code>  (352) 
A71EV2A-x4406

>  <Pose>  (352) 
A4406a

$$$$
A4409a
     RDKit          3D

 21 23  0  0  0  0  0  0  0  0999 V2000
   11.1340   14.1280   24.9080 O   0  0  0  0  0  0  0  0  0  0  0  0
   10.9950   14.4430   23.7380 C   0  0  0  0  0  0  0  0  0  0  0  0
   12.1980   14.8860   22.9470 C   0  0  0  0  0  0  0  0  0  0  0  0
   11.8780   15.5330   21.6060 C   0  0  0  0  0  0  0  0  0  0  0  0
    9.7840   14.4300   23.1110 N   0  0  0  0  0  0  0  0  0  0  0  0
    9.5290   14.7850   21.7070 C   0  0  0  0  0  0  0  0  0  0  0  0
   10.8110   14.7160   20.8690 C   0  0  1  0  0  0  0  0  0  0  0  0
   10.6380   15.2120   19.4450 C   0  0  0  0  0  0  0  0  0  0  0  0
   10.0650   16.2800   19.2080 O   0  0  0  0  0  0  0  0  0  0  0  0
   11.1870   14.4580   18.4970 N   0  0  0  0  0  0  0  0  0  0  0  0
    8.5780   14.1390   23.8910 C   0  0  0  0  0  0  0  0  0  0  0  0
    8.2670   12.6500   24.0920 C   0  0  2  0  0  0  0  0  0  0  0  0
    7.8000   12.4370   25.5180 C   0  0  0  0  0  0  0  0  0  0  0  0
    7.2110   13.4310   26.2960 C   0  0  0  0  0  0  0  0  0  0  0  0
    6.1520   13.1440   27.1410 C   0  0  0  0  0  0  0  0  0  0  0  0
    5.6670   11.8630   27.2280 C   0  0  0  0  0  0  0  0  0  0  0  0
    6.2340   10.8540   26.4680 C   0  0  0  0  0  0  0  0  0  0  0  0
    7.2870   11.1470   25.6130 C   0  0  0  0  0  0  0  0  0  0  0  0
    7.7160   10.1160   24.8110 O   0  0  0  0  0  0  0  0  0  0  0  0
    9.0270   10.2670   24.1940 C   0  0  0  0  0  0  0  0  0  0  0  0
    9.3780   11.6630   23.7210 C   0  0  0  0  0  0  0  0  0  0  0  0
 10  8  1  0
  9  8  2  0
  7  8  1  6
  7  4  1  0
  4  3  1  0
  3  2  1  0
  2  1  2  0
  5  2  1  0
 11  5  1  0
 12 11  1  1
 12 21  1  0
 21 20  1  0
 20 19  1  0
 19 18  1  0
 18 17  1  0
 17 16  2  0
 16 15  1  0
 15 14  2  0
 14 13  1  0
 18 13  2  0
 13 12  1  0
  6  5  1  0
  7  6  1  0
M  END
>  <id>  (353) 
353

>  <inchikey>  (353) 
OIEVYMFVQRAVHG-NEPJUHHUSA-N

>  <alias>  (353) 
A4409a

>  <smiles>  (353) 
NC(=O)[C@H]1CCC(=O)N(C[C@H]2CCOc3ccccc32)C1

>  <path>  (353) 
/opt/xchem-fragalysis-2/maxwin/BulkDock/TARGETS/A71EV2A/aligned_files/A4409a/A4409a.pdb

>  <distance_score>  (353) 
None

>  <energy_score>  (353) 
None

>  <compound>  (353) 
OIEVYMFVQRAVHG-UHFFFAOYSA-N

>  <compound_id>  (353) 
271

>  <target>  (353) 
A71EV2A

>  <tags>  (353) 
['GOOD count', 'MEDIOCRE count', '[Other] S1 site', 'hits', '[Other] S2 site', '[Other] Lactam Series', '[Other] P3 compound design', '[Other] upload_1 2025-02-12', 'Main status', 'BAD count']

>  <inspirations>  (353) 
None

>  <subsites>  (353) 
None

>  <reference>  (353) 


>  <observation_longname>  (353) 
A71EV2A-x4409_A_201_v1

>  <ConformerSites alias>  (353) 
1b - A0911/A/147

>  <CanonSites alias>  (353) 
1 - Active Site

>  <CrystalformSites alias>  (353) 
F5i - A3175/A/201

>  <Quatassemblies alias>  (353) 
A1 - monomer

>  <Crystalforms alias>  (353) 
F5 - A71EV2A_x3178_new_long_dials_041024

>  <ConformerSites upload name>  (353) 
1b - A71EV2A-x0911/A/147

>  <CanonSites upload name>  (353) 
1 - A71EV2A-x0911/A/147/1

>  <CrystalformSites upload name>  (353) 
F5i - A71EV2A-x3175/A/201/1

>  <Quatassemblies upload name>  (353) 
A1 - monomer

>  <Crystalforms upload name>  (353) 
F5 - A71EV2A_x3178_new_long_dials_041024

>  <ConformerSites short tag>  (353) 
1b - A0911/A/147

>  <CanonSites short tag>  (353) 
1 - A0911/A/147/1

>  <CrystalformSites short tag>  (353) 
F5i - A3175/A/201

>  <Quatassemblies short tag>  (353) 
A1 - monomer

>  <Crystalforms short tag>  (353) 
F5 - A71EV2A_x3178_new_long_dials_041024

>  <Centroid res>  (353) 
A71EV2A-x0911/A/133/A_v1

>  <Experiment code>  (353) 
A71EV2A-x4409

>  <Pose>  (353) 
A4409a

$$$$
A4415a
     RDKit          3D

 22 23  0  0  0  0  0  0  0  0999 V2000
   10.4590   16.6920   19.2560 O   0  0  0  0  0  0  0  0  0  0  0  0
   10.7720   15.5120   19.4540 C   0  0  0  0  0  0  0  0  0  0  0  0
   11.0330   14.6650   18.4760 N   0  0  0  0  0  0  0  0  0  0  0  0
   10.8130   14.9360   20.8580 C   0  0  1  0  0  0  0  0  0  0  0  0
   11.8580   15.6430   21.7320 C   0  0  0  0  0  0  0  0  0  0  0  0
   11.8770   15.0520   23.1450 C   0  0  0  0  0  0  0  0  0  0  0  0
   10.5050   15.1330   23.7720 C   0  0  0  0  0  0  0  0  0  0  0  0
    9.4460   15.1240   21.5150 C   0  0  0  0  0  0  0  0  0  0  0  0
    9.4660   14.5890   22.8800 N   0  0  0  0  0  0  0  0  0  0  0  0
    8.5890   13.6130   23.2450 C   0  0  0  0  0  0  0  0  0  0  0  0
    7.7440   13.1830   22.4710 O   0  0  0  0  0  0  0  0  0  0  0  0
    8.6660   13.2000   24.5340 N   0  0  0  0  0  0  0  0  0  0  0  0
    7.8820   12.1870   25.1190 C   0  0  0  0  0  0  0  0  0  0  0  0
    8.0340   10.8610   24.6680 C   0  0  0  0  0  0  0  0  0  0  0  0
    9.0210   10.6900   23.7380 O   0  0  0  0  0  0  0  0  0  0  0  0
    9.4200    9.3530   23.4140 C   0  0  0  0  0  0  0  0  0  0  0  0
    6.9850   12.4630   26.1300 C   0  0  0  0  0  0  0  0  0  0  0  0
    6.2400   11.4420   26.7060 C   0  0  0  0  0  0  0  0  0  0  0  0
    5.4340   11.7420   27.8640 C   0  0  0  0  0  0  0  0  0  0  0  0
    4.8240   12.0220   28.7870 N   0  0  0  0  0  0  0  0  0  0  0  0
    6.3590   10.1370   26.2350 C   0  0  0  0  0  0  0  0  0  0  0  0
    7.2570    9.8390   25.2170 C   0  0  0  0  0  0  0  0  0  0  0  0
 16 15  1  0
 15 14  1  0
 14 22  2  0
 22 21  1  0
 21 18  2  0
 19 18  1  0
 20 19  3  0
 18 17  1  0
 17 13  2  0
 14 13  1  0
 13 12  1  0
 12 10  1  0
 11 10  2  0
 10  9  1  0
  9  7  1  0
  7  6  1  0
  6  5  1  0
  5  4  1  0
  4  2  1  6
  3  2  1  0
  2  1  2  0
  8  4  1  0
  9  8  1  0
M  END
>  <id>  (354) 
354

>  <inchikey>  (354) 
TYTJRRUJUZJIIU-NSHDSACASA-N

>  <alias>  (354) 
A4415a

>  <smiles>  (354) 
COc1ccc(C#N)cc1NC(=O)N1CCC[C@H](C(N)=O)C1

>  <path>  (354) 
/opt/xchem-fragalysis-2/maxwin/BulkDock/TARGETS/A71EV2A/aligned_files/A4415a/A4415a.pdb

>  <distance_score>  (354) 
None

>  <energy_score>  (354) 
None

>  <compound>  (354) 
TYTJRRUJUZJIIU-UHFFFAOYSA-N

>  <compound_id>  (354) 
272

>  <target>  (354) 
A71EV2A

>  <tags>  (354) 
['GOOD count', 'MEDIOCRE count', '[Other] S1 site', 'hits', '[Other] S2 site', '[Other] P3 compound design', '[Other] upload_1 2025-02-12', 'Main status', '[Series] Piperidine series', 'BAD count']

>  <inspirations>  (354) 
None

>  <subsites>  (354) 
None

>  <reference>  (354) 


>  <observation_longname>  (354) 
A71EV2A-x4415_A_201_v1

>  <ConformerSites alias>  (354) 
1b - A0911/A/147

>  <CanonSites alias>  (354) 
1 - Active Site

>  <CrystalformSites alias>  (354) 
F8h - A0884/A/147

>  <Quatassemblies alias>  (354) 
A1 - monomer

>  <Crystalforms alias>  (354) 
F8 - A712A_x4271_2.1_refmac1_1st_ref

>  <ConformerSites upload name>  (354) 
1b - A71EV2A-x0911/A/147

>  <CanonSites upload name>  (354) 
1 - A71EV2A-x0911/A/147/1

>  <CrystalformSites upload name>  (354) 
F8h - A71EV2A-x0884/A/147/1

>  <Quatassemblies upload name>  (354) 
A1 - monomer

>  <Crystalforms upload name>  (354) 
F8 - A712A_x4271_2.1_refmac1_1st_ref

>  <ConformerSites short tag>  (354) 
1b - A0911/A/147

>  <CanonSites short tag>  (354) 
1 - A0911/A/147/1

>  <CrystalformSites short tag>  (354) 
F8h - A0884/A/147

>  <Quatassemblies short tag>  (354) 
A1 - monomer

>  <Crystalforms short tag>  (354) 
F8 - A712A_x4271_2.1_refmac1_1st_ref

>  <Centroid res>  (354) 
A71EV2A-x0911/A/133/A_v1

>  <Experiment code>  (354) 
A71EV2A-x4415

>  <Pose>  (354) 
A4415a

$$$$
A4416a
     RDKit          3D

 25 27  0  0  0  0  0  0  0  0999 V2000
    9.0710    7.6330   23.1030 F   0  0  0  0  0  0  0  0  0  0  0  0
    8.9370    8.9200   23.6050 C   0  0  0  0  0  0  0  0  0  0  0  0
    8.1510    9.1030   24.7040 C   0  0  0  0  0  0  0  0  0  0  0  0
    8.0410   10.3770   25.2310 C   0  0  0  0  0  0  0  0  0  0  0  0
    9.6080    9.9530   22.9920 C   0  0  0  0  0  0  0  0  0  0  0  0
    9.4530   11.2300   23.5090 C   0  0  0  0  0  0  0  0  0  0  0  0
    8.6700   11.4640   24.6350 C   0  0  0  0  0  0  0  0  0  0  0  0
    8.4710   12.8620   25.1790 C   0  0  0  0  0  0  0  0  0  0  0  0
    7.3050   13.6830   24.6010 C   0  0  2  0  0  0  0  0  0  0  0  0
    7.2320   14.9230   25.3510 O   0  0  0  0  0  0  0  0  0  0  0  0
    5.9680   15.3960   25.8530 C   0  0  0  0  0  0  0  0  0  0  0  0
    4.8290   15.1690   24.8810 C   0  0  0  0  0  0  0  0  0  0  0  0
    4.7700   13.7370   24.3580 C   0  0  0  0  0  0  0  0  0  0  0  0
    5.9920   12.9190   24.7760 C   0  0  0  0  0  0  0  0  0  0  0  0
    7.6470   13.9370   23.1130 C   0  0  0  0  0  0  0  0  0  0  0  0
    6.9660   13.3610   22.2850 O   0  0  0  0  0  0  0  0  0  0  0  0
    8.5900   14.8430   22.7540 N   0  0  0  0  0  0  0  0  0  0  0  0
    9.4690   15.6470   23.6220 C   0  0  0  0  0  0  0  0  0  0  0  0
   10.9320   15.4410   23.2950 C   0  0  0  0  0  0  0  0  0  0  0  0
   11.2110   15.7220   21.8210 C   0  0  0  0  0  0  0  0  0  0  0  0
    8.7920   15.1930   21.3430 C   0  0  0  0  0  0  0  0  0  0  0  0
   10.2350   14.9580   20.9010 C   0  0  1  0  0  0  0  0  0  0  0  0
   10.3880   15.3990   19.4540 C   0  0  0  0  0  0  0  0  0  0  0  0
   10.0800   16.5480   19.1000 O   0  0  0  0  0  0  0  0  0  0  0  0
   10.8400   14.4780   18.6190 N   0  0  0  0  0  0  0  0  0  0  0  0
 25 23  1  0
 24 23  2  0
 22 23  1  6
 22 20  1  0
 20 19  1  0
 19 18  1  0
 18 17  1  0
 17 15  1  0
 16 15  2  0
 15  9  1  0
  9  8  1  1
  8  7  1  0
  7  4  2  0
  4  3  1  0
  3  2  2  0
  2  1  1  0
  5  2  1  0
  6  5  2  0
  7  6  1  0
  9 14  1  0
 14 13  1  0
 13 12  1  0
 12 11  1  0
 11 10  1  0
 10  9  1  0
 21 17  1  0
 22 21  1  0
M  END
>  <id>  (355) 
355

>  <inchikey>  (355) 
FMJRSBGLYJMTSG-HNAYVOBHSA-N

>  <alias>  (355) 
A4416a

>  <smiles>  (355) 
NC(=O)[C@H]1CCCN(C(=O)[C@]2(Cc3ccc(F)cc3)CCCCO2)C1

>  <path>  (355) 
/opt/xchem-fragalysis-2/maxwin/BulkDock/TARGETS/A71EV2A/aligned_files/A4416a/A4416a.pdb

>  <distance_score>  (355) 
None

>  <energy_score>  (355) 
None

>  <compound>  (355) 
FMJRSBGLYJMTSG-UHFFFAOYSA-N

>  <compound_id>  (355) 
273

>  <target>  (355) 
A71EV2A

>  <tags>  (355) 
['GOOD count', 'MEDIOCRE count', '[Other] S1 site', 'hits', '[Other] S2 site', '[Other] P3 compound design', '[Other] upload_1 2025-02-12', 'Main status', '[Series] Piperidine series', 'BAD count', '[Other] S3 site']

>  <inspirations>  (355) 
None

>  <subsites>  (355) 
None

>  <reference>  (355) 


>  <observation_longname>  (355) 
A71EV2A-x4416_A_201_v1

>  <ConformerSites alias>  (355) 
1b - A0911/A/147

>  <CanonSites alias>  (355) 
1 - Active Site

>  <CrystalformSites alias>  (355) 
F5i - A3175/A/201

>  <Quatassemblies alias>  (355) 
A1 - monomer

>  <Crystalforms alias>  (355) 
F5 - A71EV2A_x3178_new_long_dials_041024

>  <ConformerSites upload name>  (355) 
1b - A71EV2A-x0911/A/147

>  <CanonSites upload name>  (355) 
1 - A71EV2A-x0911/A/147/1

>  <CrystalformSites upload name>  (355) 
F5i - A71EV2A-x3175/A/201/1

>  <Quatassemblies upload name>  (355) 
A1 - monomer

>  <Crystalforms upload name>  (355) 
F5 - A71EV2A_x3178_new_long_dials_041024

>  <ConformerSites short tag>  (355) 
1b - A0911/A/147

>  <CanonSites short tag>  (355) 
1 - A0911/A/147/1

>  <CrystalformSites short tag>  (355) 
F5i - A3175/A/201

>  <Quatassemblies short tag>  (355) 
A1 - monomer

>  <Crystalforms short tag>  (355) 
F5 - A71EV2A_x3178_new_long_dials_041024

>  <Centroid res>  (355) 
A71EV2A-x0911/A/133/A_v1

>  <Experiment code>  (355) 
A71EV2A-x4416

>  <Pose>  (355) 
A4416a

$$$$
A4418a
     RDKit          3D

 19 20  0  0  0  0  0  0  0  0999 V2000
   11.2280   14.6100   18.3660 O   0  0  0  0  0  0  0  0  0  0  0  0
   10.9160   15.3200   19.3440 C   0  0  0  0  0  0  0  0  0  0  0  0
   10.3950   16.5220   19.2070 N   0  0  0  0  0  0  0  0  0  0  0  0
   11.1100   14.8300   20.7730 C   0  0  1  0  0  0  0  0  0  0  0  0
   11.9230   15.7230   21.7470 C   0  0  0  0  0  0  0  0  0  0  0  0
   11.6100   15.1440   23.1120 C   0  0  0  0  0  0  0  0  0  0  0  0
    9.7940   14.6510   21.5420 C   0  0  0  0  0  0  0  0  0  0  0  0
   10.2390   14.6120   22.9430 N   0  0  0  0  0  0  0  0  0  0  0  0
    9.5900   13.9740   23.9550 C   0  0  0  0  0  0  0  0  0  0  0  0
   10.0790   13.8460   25.0810 O   0  0  0  0  0  0  0  0  0  0  0  0
    8.3340   13.5110   23.6680 N   0  0  0  0  0  0  0  0  0  0  0  0
    7.6320   12.6210   24.5310 C   0  0  0  0  0  0  0  0  0  0  0  0
    7.9230   11.2440   24.4300 C   0  0  0  0  0  0  0  0  0  0  0  0
    8.8620   10.8880   23.5120 O   0  0  0  0  0  0  0  0  0  0  0  0
    9.1470    9.4820   23.3550 C   0  0  0  0  0  0  0  0  0  0  0  0
    6.6650   13.0410   25.4270 C   0  0  0  0  0  0  0  0  0  0  0  0
    6.0150   12.0720   26.1830 C   0  0  0  0  0  0  0  0  0  0  0  0
    6.3550   10.7490   26.0100 C   0  0  0  0  0  0  0  0  0  0  0  0
    7.2970   10.3230   25.1530 N   0  0  0  0  0  0  0  0  0  0  0  0
 15 14  1  0
 14 13  1  0
 13 19  2  0
 19 18  1  0
 18 17  2  0
 17 16  1  0
 16 12  2  0
 13 12  1  0
 12 11  1  0
 11  9  1  0
 10  9  2  0
  9  8  1  0
  8  6  1  0
  6  5  1  0
  5  4  1  0
  4  2  1  6
  3  2  1  0
  2  1  2  0
  7  4  1  0
  8  7  1  0
M  END
>  <id>  (356) 
356

>  <inchikey>  (356) 
IOCUHOZGYZOKAP-QMMMGPOBSA-N

>  <alias>  (356) 
A4418a

>  <smiles>  (356) 
COc1ncccc1NC(=O)N1CC[C@H](C(N)=O)C1

>  <path>  (356) 
/opt/xchem-fragalysis-2/maxwin/BulkDock/TARGETS/A71EV2A/aligned_files/A4418a/A4418a.pdb

>  <distance_score>  (356) 
None

>  <energy_score>  (356) 
None

>  <compound>  (356) 
IOCUHOZGYZOKAP-UHFFFAOYSA-N

>  <compound_id>  (356) 
274

>  <target>  (356) 
A71EV2A

>  <tags>  (356) 
['GOOD count', 'MEDIOCRE count', '[Other] S1 site', 'hits', '[Other] S2 site', '[Other] P3 compound design', '[Other] upload_1 2025-02-12', 'Main status', 'BAD count']

>  <inspirations>  (356) 
None

>  <subsites>  (356) 
None

>  <reference>  (356) 


>  <observation_longname>  (356) 
A71EV2A-x4418_A_201_v1

>  <ConformerSites alias>  (356) 
1b - A0911/A/147

>  <CanonSites alias>  (356) 
1 - Active Site

>  <CrystalformSites alias>  (356) 
F5i - A3175/A/201

>  <Quatassemblies alias>  (356) 
A1 - monomer

>  <Crystalforms alias>  (356) 
F5 - A71EV2A_x3178_new_long_dials_041024

>  <ConformerSites upload name>  (356) 
1b - A71EV2A-x0911/A/147

>  <CanonSites upload name>  (356) 
1 - A71EV2A-x0911/A/147/1

>  <CrystalformSites upload name>  (356) 
F5i - A71EV2A-x3175/A/201/1

>  <Quatassemblies upload name>  (356) 
A1 - monomer

>  <Crystalforms upload name>  (356) 
F5 - A71EV2A_x3178_new_long_dials_041024

>  <ConformerSites short tag>  (356) 
1b - A0911/A/147

>  <CanonSites short tag>  (356) 
1 - A0911/A/147/1

>  <CrystalformSites short tag>  (356) 
F5i - A3175/A/201

>  <Quatassemblies short tag>  (356) 
A1 - monomer

>  <Crystalforms short tag>  (356) 
F5 - A71EV2A_x3178_new_long_dials_041024

>  <Centroid res>  (356) 
A71EV2A-x0911/A/133/A_v1

>  <Experiment code>  (356) 
A71EV2A-x4418

>  <Pose>  (356) 
A4418a

$$$$
A4420a
     RDKit          3D

 21 23  0  0  0  0  0  0  0  0999 V2000
    9.2330    9.8690   23.3890 Cl  0  0  0  0  0  0  0  0  0  0  0  0
    8.4750   11.2370   24.1510 C   0  0  0  0  0  0  0  0  0  0  0  0
    8.9550   12.5030   23.8620 C   0  0  0  0  0  0  0  0  0  0  0  0
    7.3840   11.0350   25.0040 C   0  0  0  0  0  0  0  0  0  0  0  0
    6.7480   12.1800   25.5310 C   0  0  0  0  0  0  0  0  0  0  0  0
    5.6880   11.8420   26.3060 N   0  0  0  0  0  0  0  0  0  0  0  0
    5.6900   10.4880   26.2710 N   0  0  0  0  0  0  0  0  0  0  0  0
    6.6490    9.9400   25.5380 C   0  0  0  0  0  0  0  0  0  0  0  0
    7.2390   13.4700   25.2390 C   0  0  0  0  0  0  0  0  0  0  0  0
    8.3540   13.6300   24.4220 C   0  0  0  0  0  0  0  0  0  0  0  0
    8.9380   15.0100   24.2210 C   0  0  0  0  0  0  0  0  0  0  0  0
   10.1170   15.0640   23.3540 N   0  0  0  0  0  0  0  0  0  0  0  0
   11.3560   14.9890   23.9160 C   0  0  0  0  0  0  0  0  0  0  0  0
   11.5290   14.9230   25.1290 O   0  0  0  0  0  0  0  0  0  0  0  0
   12.5430   15.0420   22.9900 C   0  0  0  0  0  0  0  0  0  0  0  0
   12.2440   15.5850   21.5930 C   0  0  0  0  0  0  0  0  0  0  0  0
    9.7890   15.3150   21.9460 C   0  0  0  0  0  0  0  0  0  0  0  0
   10.9600   14.9750   21.0130 C   0  0  1  0  0  0  0  0  0  0  0  0
   10.7410   15.4240   19.5770 C   0  0  0  0  0  0  0  0  0  0  0  0
   10.2200   16.5120   19.3230 O   0  0  0  0  0  0  0  0  0  0  0  0
   11.1660   14.5920   18.6340 N   0  0  0  0  0  0  0  0  0  0  0  0
 21 19  1  0
 20 19  2  0
 18 19  1  6
 18 16  1  0
 16 15  1  0
 15 13  1  0
 14 13  2  0
 13 12  1  0
 12 11  1  0
 11 10  1  0
 10  3  1  0
  3  2  2  0
  2  1  1  0
  4  2  1  0
  4  8  2  0
  8  7  1  0
  7  6  1  0
  6  5  2  0
  5  4  1  0
  9  5  1  0
 10  9  2  0
 17 12  1  0
 18 17  1  0
M  END
>  <id>  (357) 
357

>  <inchikey>  (357) 
BDECSFSJDRQDHY-VIFPVBQESA-N

>  <alias>  (357) 
A4420a

>  <smiles>  (357) 
NC(=O)[C@H]1CCC(=O)N(Cc2cc(Cl)c3c[nH]nc3c2)C1

>  <path>  (357) 
/opt/xchem-fragalysis-2/maxwin/BulkDock/TARGETS/A71EV2A/aligned_files/A4420a/A4420a.pdb

>  <distance_score>  (357) 
None

>  <energy_score>  (357) 
None

>  <compound>  (357) 
BDECSFSJDRQDHY-UHFFFAOYSA-N

>  <compound_id>  (357) 
275

>  <target>  (357) 
A71EV2A

>  <tags>  (357) 
['GOOD count', 'MEDIOCRE count', '[Other] S1 site', 'hits', '[Other] S2 site', '[Other] Lactam Series', '[Other] P3 compound design', '[Other] upload_1 2025-02-12', 'Main status', 'BAD count']

>  <inspirations>  (357) 
None

>  <subsites>  (357) 
None

>  <reference>  (357) 


>  <observation_longname>  (357) 
A71EV2A-x4420_A_201_v1

>  <ConformerSites alias>  (357) 
1b - A0911/A/147

>  <CanonSites alias>  (357) 
1 - Active Site

>  <CrystalformSites alias>  (357) 
F1a - A0375/A/201

>  <Quatassemblies alias>  (357) 
A1 - monomer

>  <Crystalforms alias>  (357) 
F1 - A71_2A_open

>  <ConformerSites upload name>  (357) 
1b - A71EV2A-x0911/A/147

>  <CanonSites upload name>  (357) 
1 - A71EV2A-x0911/A/147/1

>  <CrystalformSites upload name>  (357) 
F1a - A71EV2A-x0375/A/201/1

>  <Quatassemblies upload name>  (357) 
A1 - monomer

>  <Crystalforms upload name>  (357) 
F1 - A71_2A_open

>  <ConformerSites short tag>  (357) 
1b - A0911/A/147

>  <CanonSites short tag>  (357) 
1 - A0911/A/147/1

>  <CrystalformSites short tag>  (357) 
F1a - A0375/A/201

>  <Quatassemblies short tag>  (357) 
A1 - monomer

>  <Crystalforms short tag>  (357) 
F1 - A71_2A_open

>  <Centroid res>  (357) 
A71EV2A-x0911/A/133/A_v1

>  <Experiment code>  (357) 
A71EV2A-x4420

>  <Pose>  (357) 
A4420a

$$$$
A4421a
     RDKit          3D

 19 20  0  0  0  0  0  0  0  0999 V2000
   10.3110   16.4510   19.3420 O   0  0  0  0  0  0  0  0  0  0  0  0
   10.8910   15.3660   19.4690 C   0  0  0  0  0  0  0  0  0  0  0  0
   11.2570   14.6130   18.4360 N   0  0  0  0  0  0  0  0  0  0  0  0
   11.1520   14.7750   20.8440 C   0  0  1  0  0  0  0  0  0  0  0  0
   11.8920   15.6950   21.8340 C   0  0  0  0  0  0  0  0  0  0  0  0
   11.6340   15.0250   23.1810 C   0  0  0  0  0  0  0  0  0  0  0  0
    9.8480   14.5030   21.6140 C   0  0  0  0  0  0  0  0  0  0  0  0
   10.2920   14.4600   23.0150 N   0  0  0  0  0  0  0  0  0  0  0  0
    9.5610   13.9810   24.0420 C   0  0  0  0  0  0  0  0  0  0  0  0
    9.9910   13.9570   25.1920 O   0  0  0  0  0  0  0  0  0  0  0  0
    8.1630   13.4970   23.6960 C   0  0  0  0  0  0  0  0  0  0  0  0
    7.6400   12.4580   24.6650 C   0  0  0  0  0  0  0  0  0  0  0  0
    7.9200   11.1040   24.4740 C   0  0  0  0  0  0  0  0  0  0  0  0
    8.8080   10.8310   23.4670 O   0  0  0  0  0  0  0  0  0  0  0  0
    9.2210    9.4600   23.2830 C   0  0  0  0  0  0  0  0  0  0  0  0
    6.7460   12.7630   25.6770 C   0  0  0  0  0  0  0  0  0  0  0  0
    6.1080   11.8600   26.4340 N   0  0  0  0  0  0  0  0  0  0  0  0
    6.3850   10.5750   26.2040 C   0  0  0  0  0  0  0  0  0  0  0  0
    7.2860   10.1430   25.2500 C   0  0  0  0  0  0  0  0  0  0  0  0
 15 14  1  0
 14 13  1  0
 13 19  2  0
 19 18  1  0
 18 17  2  0
 17 16  1  0
 16 12  2  0
 13 12  1  0
 12 11  1  0
 11  9  1  0
 10  9  2  0
  9  8  1  0
  8  6  1  0
  6  5  1  0
  5  4  1  0
  4  2  1  6
  3  2  1  0
  2  1  2  0
  7  4  1  0
  8  7  1  0
M  END
>  <id>  (358) 
358

>  <inchikey>  (358) 
GNWVDSWMINQMLL-VIFPVBQESA-N

>  <alias>  (358) 
A4421a

>  <smiles>  (358) 
COc1ccncc1CC(=O)N1CC[C@H](C(N)=O)C1

>  <path>  (358) 
/opt/xchem-fragalysis-2/maxwin/BulkDock/TARGETS/A71EV2A/aligned_files/A4421a/A4421a.pdb

>  <distance_score>  (358) 
None

>  <energy_score>  (358) 
None

>  <compound>  (358) 
GNWVDSWMINQMLL-UHFFFAOYSA-N

>  <compound_id>  (358) 
276

>  <target>  (358) 
A71EV2A

>  <tags>  (358) 
['GOOD count', 'MEDIOCRE count', '[Other] S1 site', 'hits', '[Other] S2 site', '[Other] P3 compound design', '[Other] upload_1 2025-02-12', 'Main status', 'BAD count']

>  <inspirations>  (358) 
None

>  <subsites>  (358) 
None

>  <reference>  (358) 


>  <observation_longname>  (358) 
A71EV2A-x4421_A_201_v1

>  <ConformerSites alias>  (358) 
1b - A0911/A/147

>  <CanonSites alias>  (358) 
1 - Active Site

>  <CrystalformSites alias>  (358) 
F1a - A0375/A/201

>  <Quatassemblies alias>  (358) 
A1 - monomer

>  <Crystalforms alias>  (358) 
F1 - A71_2A_open

>  <ConformerSites upload name>  (358) 
1b - A71EV2A-x0911/A/147

>  <CanonSites upload name>  (358) 
1 - A71EV2A-x0911/A/147/1

>  <CrystalformSites upload name>  (358) 
F1a - A71EV2A-x0375/A/201/1

>  <Quatassemblies upload name>  (358) 
A1 - monomer

>  <Crystalforms upload name>  (358) 
F1 - A71_2A_open

>  <ConformerSites short tag>  (358) 
1b - A0911/A/147

>  <CanonSites short tag>  (358) 
1 - A0911/A/147/1

>  <CrystalformSites short tag>  (358) 
F1a - A0375/A/201

>  <Quatassemblies short tag>  (358) 
A1 - monomer

>  <Crystalforms short tag>  (358) 
F1 - A71_2A_open

>  <Centroid res>  (358) 
A71EV2A-x0911/A/133/A_v1

>  <Experiment code>  (358) 
A71EV2A-x4421

>  <Pose>  (358) 
A4421a

$$$$
A4423a
     RDKit          3D

 20 21  0  0  0  0  0  0  0  0999 V2000
    7.8680   13.1260   22.9750 O   0  0  0  0  0  0  0  0  0  0  0  0
    8.8550   13.4080   23.6420 C   0  0  0  0  0  0  0  0  0  0  0  0
    9.7090   14.3910   23.2800 N   0  0  0  0  0  0  0  0  0  0  0  0
    9.4890   15.1850   22.0690 C   0  0  0  0  0  0  0  0  0  0  0  0
   10.4350   14.7100   20.9700 C   0  0  1  0  0  0  0  0  0  0  0  0
   10.4570   15.6320   19.7540 C   0  0  0  0  0  0  0  0  0  0  0  0
   11.3150   14.9800   18.6920 C   0  0  0  0  0  0  0  0  0  0  0  0
   11.0360   15.5200   17.4150 O   0  0  0  0  0  0  0  0  0  0  0  0
   11.8320   14.4450   21.5630 C   0  0  0  0  0  0  0  0  0  0  0  0
   12.0720   15.0680   22.9350 C   0  0  0  0  0  0  0  0  0  0  0  0
   10.9950   14.6710   23.9420 C   0  0  0  0  0  0  0  0  0  0  0  0
    9.2210   12.6520   24.9070 C   0  0  0  0  0  0  0  0  0  0  0  0
    8.2260   11.5730   25.2560 C   0  0  0  0  0  0  0  0  0  0  0  0
    8.3010   10.3050   24.6760 C   0  0  0  0  0  0  0  0  0  0  0  0
    9.3080   10.1420   23.7580 O   0  0  0  0  0  0  0  0  0  0  0  0
    9.6030    8.8160   23.3030 C   0  0  0  0  0  0  0  0  0  0  0  0
    7.2230   11.7630   26.1850 C   0  0  0  0  0  0  0  0  0  0  0  0
    6.3320   10.8390   26.5530 N   0  0  0  0  0  0  0  0  0  0  0  0
    6.4310    9.6430   25.9710 C   0  0  0  0  0  0  0  0  0  0  0  0
    7.3950    9.3210   25.0360 C   0  0  0  0  0  0  0  0  0  0  0  0
 16 15  1  0
 15 14  1  0
 14 20  2  0
 20 19  1  0
 19 18  2  0
 18 17  1  0
 17 13  2  0
 14 13  1  0
 13 12  1  0
 12  2  1  0
  2  1  2  0
  3  2  1  0
  3 11  1  0
 11 10  1  0
 10  9  1  0
  9  5  1  0
  5  6  1  6
  7  6  1  0
  8  7  1  0
  5  4  1  0
  4  3  1  0
M  END
>  <id>  (359) 
359

>  <inchikey>  (359) 
ZXLDVMYOYPVIJI-GFCCVEGCSA-N

>  <alias>  (359) 
A4423a

>  <smiles>  (359) 
COc1ccncc1CC(=O)N1CCC[C@H](CCO)C1

>  <path>  (359) 
/opt/xchem-fragalysis-2/maxwin/BulkDock/TARGETS/A71EV2A/aligned_files/A4423a/A4423a.pdb

>  <distance_score>  (359) 
None

>  <energy_score>  (359) 
None

>  <compound>  (359) 
ZXLDVMYOYPVIJI-UHFFFAOYSA-N

>  <compound_id>  (359) 
277

>  <target>  (359) 
A71EV2A

>  <tags>  (359) 
['GOOD count', 'MEDIOCRE count', '[Other] S1 site', 'hits', '[Other] S2 site', '[Other] P3 compound design', '[Other] upload_1 2025-02-12', 'Main status', '[Series] Piperidine series', 'BAD count']

>  <inspirations>  (359) 
None

>  <subsites>  (359) 
None

>  <reference>  (359) 


>  <observation_longname>  (359) 
A71EV2A-x4423_A_201_v1

>  <ConformerSites alias>  (359) 
1b - A0911/A/147

>  <CanonSites alias>  (359) 
1 - Active Site

>  <CrystalformSites alias>  (359) 
F1a - A0375/A/201

>  <Quatassemblies alias>  (359) 
A1 - monomer

>  <Crystalforms alias>  (359) 
F1 - A71_2A_open

>  <ConformerSites upload name>  (359) 
1b - A71EV2A-x0911/A/147

>  <CanonSites upload name>  (359) 
1 - A71EV2A-x0911/A/147/1

>  <CrystalformSites upload name>  (359) 
F1a - A71EV2A-x0375/A/201/1

>  <Quatassemblies upload name>  (359) 
A1 - monomer

>  <Crystalforms upload name>  (359) 
F1 - A71_2A_open

>  <ConformerSites short tag>  (359) 
1b - A0911/A/147

>  <CanonSites short tag>  (359) 
1 - A0911/A/147/1

>  <CrystalformSites short tag>  (359) 
F1a - A0375/A/201

>  <Quatassemblies short tag>  (359) 
A1 - monomer

>  <Crystalforms short tag>  (359) 
F1 - A71_2A_open

>  <Centroid res>  (359) 
A71EV2A-x0911/A/133/A_v1

>  <Experiment code>  (359) 
A71EV2A-x4423

>  <Pose>  (359) 
A4423a

$$$$
A4426a
     RDKit          3D

 21 23  0  0  0  0  0  0  0  0999 V2000
   10.6380   14.9590   25.6980 C   0  0  0  0  0  0  0  0  0  0  0  0
   10.7540   14.0730   24.9180 C   0  0  0  0  0  0  0  0  0  0  0  0
   10.9830   13.0090   23.9230 C   0  0  1  0  0  0  0  0  0  0  0  0
   10.0060   11.8580   24.0140 C   0  0  0  0  0  0  0  0  0  0  0  0
    8.8370   11.7100   24.8750 C   0  0  0  0  0  0  0  0  0  0  0  0
    8.1050   12.5020   25.7560 C   0  0  0  0  0  0  0  0  0  0  0  0
    7.0060   11.9670   26.4150 C   0  0  0  0  0  0  0  0  0  0  0  0
    6.6310   10.6450   26.2130 C   0  0  0  0  0  0  0  0  0  0  0  0
    7.3420    9.8320   25.3440 C   0  0  0  0  0  0  0  0  0  0  0  0
    8.4320   10.3820   24.6760 C   0  0  0  0  0  0  0  0  0  0  0  0
    9.2980    9.8520   23.7690 N   0  0  0  0  0  0  0  0  0  0  0  0
    9.3800    8.4760   23.3010 C   0  0  0  0  0  0  0  0  0  0  0  0
   10.2310   10.7650   23.3600 N   0  0  0  0  0  0  0  0  0  0  0  0
   10.9880   13.5430   22.5630 N   0  0  0  0  0  0  0  0  0  0  0  0
   12.1400   14.4030   22.2700 C   0  0  0  0  0  0  0  0  0  0  0  0
   12.2580   14.6640   20.7790 C   0  0  0  0  0  0  0  0  0  0  0  0
   11.0810   15.4140   20.2430 C   0  0  0  0  0  0  0  0  0  0  0  0
   10.5700   15.1590   18.9840 N   0  0  0  0  0  0  0  0  0  0  0  0
    9.6000   15.9900   18.8680 C   0  0  0  0  0  0  0  0  0  0  0  0
    9.3980   16.8000   19.9260 O   0  0  0  0  0  0  0  0  0  0  0  0
   10.3700   16.4040   20.8010 C   0  0  0  0  0  0  0  0  0  0  0  0
  2  1  3  0
  3  2  1  1
 14  3  1  0
 15 14  1  0
 16 15  1  0
 17 16  1  0
 17 21  2  0
 21 20  1  0
 20 19  1  0
 19 18  2  0
 18 17  1  0
  4  3  1  0
  4 13  2  0
 13 11  1  0
 12 11  1  0
 11 10  1  0
 10  9  1  0
  9  8  2  0
  8  7  1  0
  7  6  2  0
  6  5  1  0
  5  4  1  0
 10  5  2  0
M  END
>  <id>  (360) 
360

>  <inchikey>  (360) 
MQYDMMMAXHURPN-AWEZNQCLSA-N

>  <alias>  (360) 
A4426a

>  <smiles>  (360) 
C#C[C@H](NCCc1cocn1)c1nn(C)c2ccccc12

>  <path>  (360) 
/opt/xchem-fragalysis-2/maxwin/BulkDock/TARGETS/A71EV2A/aligned_files/A4426a/A4426a.pdb

>  <distance_score>  (360) 
None

>  <energy_score>  (360) 
None

>  <compound>  (360) 
MQYDMMMAXHURPN-UHFFFAOYSA-N

>  <compound_id>  (360) 
278

>  <target>  (360) 
A71EV2A

>  <tags>  (360) 
['GOOD count', 'MEDIOCRE count', '[Other] S1 site', 'hits', '[Other] upload_3 2025-03-06', '[Other] S2 site', '[Other] P3 compound design', '[Series] Indazole series', 'Main status', 'BAD count']

>  <inspirations>  (360) 
None

>  <subsites>  (360) 
None

>  <reference>  (360) 


>  <observation_longname>  (360) 
A71EV2A-x4426_A_201_v3

>  <ConformerSites alias>  (360) 
1b - A0911/A/147

>  <CanonSites alias>  (360) 
1 - Active Site

>  <CrystalformSites alias>  (360) 
F1a - A0375/A/201

>  <Quatassemblies alias>  (360) 
A1 - monomer

>  <Crystalforms alias>  (360) 
F1 - A71_2A_open

>  <ConformerSites upload name>  (360) 
1b - A71EV2A-x0911/A/147

>  <CanonSites upload name>  (360) 
1 - A71EV2A-x0911/A/147/1

>  <CrystalformSites upload name>  (360) 
F1a - A71EV2A-x0375/A/201/1

>  <Quatassemblies upload name>  (360) 
A1 - monomer

>  <Crystalforms upload name>  (360) 
F1 - A71_2A_open

>  <ConformerSites short tag>  (360) 
1b - A0911/A/147

>  <CanonSites short tag>  (360) 
1 - A0911/A/147/1

>  <CrystalformSites short tag>  (360) 
F1a - A0375/A/201

>  <Quatassemblies short tag>  (360) 
A1 - monomer

>  <Crystalforms short tag>  (360) 
F1 - A71_2A_open

>  <Centroid res>  (360) 
A71EV2A-x0911/A/133/A_v1

>  <Experiment code>  (360) 
A71EV2A-x4426

>  <Pose>  (360) 
A4426a

$$$$
A4429a
     RDKit          3D

 24 25  0  0  0  0  0  0  0  0999 V2000
   10.4170   16.6790   19.2490 O   0  0  0  0  0  0  0  0  0  0  0  0
   10.7740   15.5160   19.4760 C   0  0  0  0  0  0  0  0  0  0  0  0
   11.1060   14.6640   18.5190 N   0  0  0  0  0  0  0  0  0  0  0  0
   10.7870   14.9630   20.8910 C   0  0  1  0  0  0  0  0  0  0  0  0
   11.8110   15.6900   21.7770 C   0  0  0  0  0  0  0  0  0  0  0  0
   11.8600   15.0600   23.1700 C   0  0  0  0  0  0  0  0  0  0  0  0
   10.4890   15.0860   23.8080 C   0  0  0  0  0  0  0  0  0  0  0  0
    9.4220   15.1050   21.5630 C   0  0  0  0  0  0  0  0  0  0  0  0
    9.4600   14.5300   22.9140 N   0  0  0  0  0  0  0  0  0  0  0  0
    8.5570   13.5660   23.2590 C   0  0  0  0  0  0  0  0  0  0  0  0
    7.7060   13.1710   22.4710 O   0  0  0  0  0  0  0  0  0  0  0  0
    8.5950   13.1530   24.5510 N   0  0  0  0  0  0  0  0  0  0  0  0
    7.7710   12.1520   25.1120 C   0  0  0  0  0  0  0  0  0  0  0  0
    7.9950   10.8290   24.7160 C   0  0  0  0  0  0  0  0  0  0  0  0
    9.0010   10.6670   23.8020 O   0  0  0  0  0  0  0  0  0  0  0  0
    9.3730    9.3330   23.4530 C   0  0  0  0  0  0  0  0  0  0  0  0
    6.7600   12.4290   26.0280 C   0  0  0  0  0  0  0  0  0  0  0  0
    5.9760   11.4020   26.5380 C   0  0  0  0  0  0  0  0  0  0  0  0
    4.8860   11.7190   27.5110 C   0  0  0  0  0  0  0  0  0  0  0  0
    4.2110   12.8070   27.1930 F   0  0  0  0  0  0  0  0  0  0  0  0
    3.9530   10.7670   27.5870 F   0  0  0  0  0  0  0  0  0  0  0  0
    5.3560   11.9320   28.7350 F   0  0  0  0  0  0  0  0  0  0  0  0
    6.2150   10.0940   26.1420 C   0  0  0  0  0  0  0  0  0  0  0  0
    7.2170    9.8000   25.2310 C   0  0  0  0  0  0  0  0  0  0  0  0
 16 15  1  0
 15 14  1  0
 14 24  2  0
 24 23  1  0
 23 18  2  0
 19 18  1  0
 22 19  1  0
 21 19  1  0
 20 19  1  0
 18 17  1  0
 17 13  2  0
 14 13  1  0
 13 12  1  0
 12 10  1  0
 11 10  2  0
 10  9  1  0
  9  7  1  0
  7  6  1  0
  6  5  1  0
  5  4  1  0
  4  2  1  6
  3  2  1  0
  2  1  2  0
  8  4  1  0
  9  8  1  0
M  END
>  <id>  (361) 
361

>  <inchikey>  (361) 
UHMSXUXAJDYIHG-VIFPVBQESA-N

>  <alias>  (361) 
A4429a

>  <smiles>  (361) 
COc1ccc(C(F)(F)F)cc1NC(=O)N1CCC[C@H](C(N)=O)C1

>  <path>  (361) 
/opt/xchem-fragalysis-2/maxwin/BulkDock/TARGETS/A71EV2A/aligned_files/A4429a/A4429a.pdb

>  <distance_score>  (361) 
None

>  <energy_score>  (361) 
None

>  <compound>  (361) 
UHMSXUXAJDYIHG-UHFFFAOYSA-N

>  <compound_id>  (361) 
279

>  <target>  (361) 
A71EV2A

>  <tags>  (361) 
['GOOD count', 'MEDIOCRE count', '[Other] S1 site', 'hits', '[Other] S2 site', '[Other] P3 compound design', '[Other] upload_1 2025-02-12', 'Main status', '[Series] Piperidine series', 'BAD count']

>  <inspirations>  (361) 
None

>  <subsites>  (361) 
None

>  <reference>  (361) 


>  <observation_longname>  (361) 
A71EV2A-x4429_A_201_v1

>  <ConformerSites alias>  (361) 
1b - A0911/A/147

>  <CanonSites alias>  (361) 
1 - Active Site

>  <CrystalformSites alias>  (361) 
F8h - A0884/A/147

>  <Quatassemblies alias>  (361) 
A1 - monomer

>  <Crystalforms alias>  (361) 
F8 - A712A_x4271_2.1_refmac1_1st_ref

>  <ConformerSites upload name>  (361) 
1b - A71EV2A-x0911/A/147

>  <CanonSites upload name>  (361) 
1 - A71EV2A-x0911/A/147/1

>  <CrystalformSites upload name>  (361) 
F8h - A71EV2A-x0884/A/147/1

>  <Quatassemblies upload name>  (361) 
A1 - monomer

>  <Crystalforms upload name>  (361) 
F8 - A712A_x4271_2.1_refmac1_1st_ref

>  <ConformerSites short tag>  (361) 
1b - A0911/A/147

>  <CanonSites short tag>  (361) 
1 - A0911/A/147/1

>  <CrystalformSites short tag>  (361) 
F8h - A0884/A/147

>  <Quatassemblies short tag>  (361) 
A1 - monomer

>  <Crystalforms short tag>  (361) 
F8 - A712A_x4271_2.1_refmac1_1st_ref

>  <Centroid res>  (361) 
A71EV2A-x0911/A/133/A_v1

>  <Experiment code>  (361) 
A71EV2A-x4429

>  <Pose>  (361) 
A4429a

$$$$
A4431a
     RDKit          3D

 21 22  0  0  0  0  0  0  0  0999 V2000
   10.2610   16.6690   19.0880 O   0  0  0  0  0  0  0  0  0  0  0  0
   10.6510   15.5390   19.3840 C   0  0  0  0  0  0  0  0  0  0  0  0
   11.1010   14.6750   18.4850 N   0  0  0  0  0  0  0  0  0  0  0  0
   10.6980   15.0770   20.8290 C   0  0  1  0  0  0  0  0  0  0  0  0
   11.7860   15.8150   21.6140 C   0  0  0  0  0  0  0  0  0  0  0  0
   11.9100   15.2630   23.0330 C   0  0  0  0  0  0  0  0  0  0  0  0
   10.5820   15.3470   23.7500 C   0  0  0  0  0  0  0  0  0  0  0  0
    9.3800   15.2550   21.5850 C   0  0  0  0  0  0  0  0  0  0  0  0
    9.5080   14.7360   22.9510 N   0  0  0  0  0  0  0  0  0  0  0  0
    8.6740   13.7770   23.4020 C   0  0  0  0  0  0  0  0  0  0  0  0
    7.8020   13.2900   22.6920 O   0  0  0  0  0  0  0  0  0  0  0  0
    8.9150   13.2990   24.8210 C   0  0  0  0  0  0  0  0  0  0  0  0
    8.0470   12.1220   25.2040 C   0  0  0  0  0  0  0  0  0  0  0  0
    8.2280   10.8140   24.7340 C   0  0  0  0  0  0  0  0  0  0  0  0
    9.5400   10.5390   23.5870 S   0  0  0  0  0  0  0  0  0  0  0  0
    9.5310    8.7660   23.3420 C   0  0  0  0  0  0  0  0  0  0  0  0
    7.0320   12.3750   26.1130 C   0  0  0  0  0  0  0  0  0  0  0  0
    6.2220   11.3530   26.5350 C   0  0  0  0  0  0  0  0  0  0  0  0
    4.8390   11.7460   27.7690 Br  0  0  0  0  0  0  0  0  0  0  0  0
    6.3840   10.0620   26.0850 C   0  0  0  0  0  0  0  0  0  0  0  0
    7.3920    9.7890   25.1780 C   0  0  0  0  0  0  0  0  0  0  0  0
 16 15  1  0
 15 14  1  0
 14 21  2  0
 21 20  1  0
 20 18  2  0
 19 18  1  0
 18 17  1  0
 17 13  2  0
 14 13  1  0
 13 12  1  0
 12 10  1  0
 11 10  2  0
 10  9  1  0
  9  7  1  0
  7  6  1  0
  6  5  1  0
  5  4  1  0
  4  2  1  6
  3  2  1  0
  2  1  2  0
  8  4  1  0
  9  8  1  0
M  END
>  <id>  (362) 
362

>  <inchikey>  (362) 
CJGWUQPZRLLSPL-JTQLQIEISA-N

>  <alias>  (362) 
A4431a

>  <smiles>  (362) 
CSc1ccc(Br)cc1CC(=O)N1CCC[C@H](C(N)=O)C1

>  <path>  (362) 
/opt/xchem-fragalysis-2/maxwin/BulkDock/TARGETS/A71EV2A/aligned_files/A4431a/A4431a.pdb

>  <distance_score>  (362) 
None

>  <energy_score>  (362) 
None

>  <compound>  (362) 
CJGWUQPZRLLSPL-UHFFFAOYSA-N

>  <compound_id>  (362) 
280

>  <target>  (362) 
A71EV2A

>  <tags>  (362) 
['GOOD count', 'MEDIOCRE count', '[Other] S1 site', 'hits', '[Other] S2 site', '[Other] P3 compound design', '[Other] upload_1 2025-02-12', 'Main status', '[Series] Piperidine series', 'BAD count']

>  <inspirations>  (362) 
None

>  <subsites>  (362) 
None

>  <reference>  (362) 


>  <observation_longname>  (362) 
A71EV2A-x4431_A_201_v1

>  <ConformerSites alias>  (362) 
1b - A0911/A/147

>  <CanonSites alias>  (362) 
1 - Active Site

>  <CrystalformSites alias>  (362) 
F8h - A0884/A/147

>  <Quatassemblies alias>  (362) 
A1 - monomer

>  <Crystalforms alias>  (362) 
F8 - A712A_x4271_2.1_refmac1_1st_ref

>  <ConformerSites upload name>  (362) 
1b - A71EV2A-x0911/A/147

>  <CanonSites upload name>  (362) 
1 - A71EV2A-x0911/A/147/1

>  <CrystalformSites upload name>  (362) 
F8h - A71EV2A-x0884/A/147/1

>  <Quatassemblies upload name>  (362) 
A1 - monomer

>  <Crystalforms upload name>  (362) 
F8 - A712A_x4271_2.1_refmac1_1st_ref

>  <ConformerSites short tag>  (362) 
1b - A0911/A/147

>  <CanonSites short tag>  (362) 
1 - A0911/A/147/1

>  <CrystalformSites short tag>  (362) 
F8h - A0884/A/147

>  <Quatassemblies short tag>  (362) 
A1 - monomer

>  <Crystalforms short tag>  (362) 
F8 - A712A_x4271_2.1_refmac1_1st_ref

>  <Centroid res>  (362) 
A71EV2A-x0911/A/133/A_v1

>  <Experiment code>  (362) 
A71EV2A-x4431

>  <Pose>  (362) 
A4431a

$$$$
A4445a
     RDKit          3D

 21 22  0  0  0  0  0  0  0  0999 V2000
   10.1300   16.5490   19.3600 O   0  0  0  0  0  0  0  0  0  0  0  0
   10.4710   15.3860   19.5830 C   0  0  0  0  0  0  0  0  0  0  0  0
   10.7600   14.5370   18.6040 N   0  0  0  0  0  0  0  0  0  0  0  0
   10.6090   14.8700   21.0050 C   0  0  1  0  0  0  0  0  0  0  0  0
   11.7840   15.5360   21.7410 C   0  0  0  0  0  0  0  0  0  0  0  0
   11.9150   14.9800   23.1580 C   0  0  0  0  0  0  0  0  0  0  0  0
   10.5740   15.0480   23.9030 C   0  0  0  0  0  0  0  0  0  0  0  0
    9.3150   15.0030   21.8140 C   0  0  0  0  0  0  0  0  0  0  0  0
    9.4950   14.4030   23.1420 N   0  0  0  0  0  0  0  0  0  0  0  0
    8.6950   13.3640   23.5160 C   0  0  0  0  0  0  0  0  0  0  0  0
    7.7200   13.0480   22.8440 O   0  0  0  0  0  0  0  0  0  0  0  0
    9.0370   12.5340   24.7500 C   0  0  1  0  0  0  0  0  0  0  0  0
   10.3010   13.0010   25.4750 C   0  0  0  0  0  0  0  0  0  0  0  0
    7.8390   12.4220   25.6890 C   0  0  0  0  0  0  0  0  0  0  0  0
    7.3530   13.5520   26.3500 C   0  0  0  0  0  0  0  0  0  0  0  0
    8.0440   14.7090   26.1100 O   0  0  0  0  0  0  0  0  0  0  0  0
    7.5640   15.9110   26.7280 C   0  0  0  0  0  0  0  0  0  0  0  0
    7.2020   11.2080   25.9130 C   0  0  0  0  0  0  0  0  0  0  0  0
    6.0820   11.1300   26.7230 C   0  0  0  0  0  0  0  0  0  0  0  0
    5.6100   12.2510   27.3610 C   0  0  0  0  0  0  0  0  0  0  0  0
    6.2490   13.4690   27.1960 C   0  0  0  0  0  0  0  0  0  0  0  0
 17 16  1  0
 16 15  1  0
 15 21  2  0
 21 20  1  0
 20 19  2  0
 19 18  1  0
 18 14  2  0
 15 14  1  0
 14 12  1  0
 12 13  1  1
 12 10  1  0
 11 10  2  0
 10  9  1  0
  9  7  1  0
  7  6  1  0
  6  5  1  0
  5  4  1  0
  4  2  1  6
  3  2  1  0
  2  1  2  0
  8  4  1  0
  9  8  1  0
M  END
>  <id>  (363) 
363

>  <inchikey>  (363) 
PMVJSDCMAGKMNB-RYUDHWBXSA-N

>  <alias>  (363) 
A4445a

>  <smiles>  (363) 
COc1ccccc1[C@H](C)C(=O)N1CCC[C@H](C(N)=O)C1

>  <path>  (363) 
/opt/xchem-fragalysis-2/maxwin/BulkDock/TARGETS/A71EV2A/aligned_files/A4445a/A4445a_hippo.pdb

>  <distance_score>  (363) 
None

>  <energy_score>  (363) 
None

>  <compound>  (363) 
PMVJSDCMAGKMNB-UHFFFAOYSA-N

>  <compound_id>  (363) 
281

>  <target>  (363) 
A71EV2A

>  <tags>  (363) 
['GOOD count', "[Other] S1' site", 'MEDIOCRE count', '[Other] S1 site', 'hits', '[Other] S2 site', '[Other] P3 compound design', '[Other] upload_1 2025-02-12', 'Main status', '[Series] Piperidine series', 'BAD count']

>  <inspirations>  (363) 
None

>  <subsites>  (363) 
None

>  <reference>  (363) 


>  <observation_longname>  (363) 
A71EV2A-x4445_A_201_v1

>  <ConformerSites alias>  (363) 
1b - A0911/A/147

>  <CanonSites alias>  (363) 
1 - Active Site

>  <CrystalformSites alias>  (363) 
F6o - A4214/A/201

>  <Quatassemblies alias>  (363) 
A1 - monomer

>  <Crystalforms alias>  (363) 
F6 - short_long_x4018

>  <ConformerSites upload name>  (363) 
1b - A71EV2A-x0911/A/147

>  <CanonSites upload name>  (363) 
1 - A71EV2A-x0911/A/147/1

>  <CrystalformSites upload name>  (363) 
F6o - A71EV2A-x4214/A/201/1

>  <Quatassemblies upload name>  (363) 
A1 - monomer

>  <Crystalforms upload name>  (363) 
F6 - short_long_x4018

>  <ConformerSites short tag>  (363) 
1b - A0911/A/147

>  <CanonSites short tag>  (363) 
1 - A0911/A/147/1

>  <CrystalformSites short tag>  (363) 
F6o - A4214/A/201

>  <Quatassemblies short tag>  (363) 
A1 - monomer

>  <Crystalforms short tag>  (363) 
F6 - short_long_x4018

>  <Centroid res>  (363) 
A71EV2A-x0911/A/133/A_v1

>  <Experiment code>  (363) 
A71EV2A-x4445

>  <Pose>  (363) 
A4445a

$$$$
A4445b
     RDKit          3D

 21 22  0  0  0  0  0  0  0  0999 V2000
   10.2460   16.6790   19.3080 O   0  0  0  0  0  0  0  0  0  0  0  0
   10.5800   15.5020   19.5380 C   0  0  0  0  0  0  0  0  0  0  0  0
   10.8380   14.6230   18.5710 N   0  0  0  0  0  0  0  0  0  0  0  0
   10.7200   14.9970   20.9640 C   0  0  1  0  0  0  0  0  0  0  0  0
   11.8600   15.7240   21.7050 C   0  0  0  0  0  0  0  0  0  0  0  0
   11.9770   15.1950   23.1360 C   0  0  0  0  0  0  0  0  0  0  0  0
   10.6130   15.2750   23.8520 C   0  0  0  0  0  0  0  0  0  0  0  0
    9.4080   15.1190   21.7520 C   0  0  0  0  0  0  0  0  0  0  0  0
    9.5680   14.5560   23.1000 N   0  0  0  0  0  0  0  0  0  0  0  0
    8.7850   13.4810   23.4560 C   0  0  0  0  0  0  0  0  0  0  0  0
    7.8100   13.1410   22.7780 O   0  0  0  0  0  0  0  0  0  0  0  0
    9.1370   12.6520   24.6880 C   0  0  1  0  0  0  0  0  0  0  0  0
   10.3720   13.1670   25.4280 C   0  0  0  0  0  0  0  0  0  0  0  0
    7.9180   12.4790   25.5900 C   0  0  0  0  0  0  0  0  0  0  0  0
    7.3970   13.5790   26.2710 C   0  0  0  0  0  0  0  0  0  0  0  0
    8.0370   14.7630   26.0300 O   0  0  0  0  0  0  0  0  0  0  0  0
    7.6020   15.9240   26.7450 C   0  0  0  0  0  0  0  0  0  0  0  0
    7.2910   11.2470   25.7550 C   0  0  0  0  0  0  0  0  0  0  0  0
    6.1710   11.1210   26.5630 C   0  0  0  0  0  0  0  0  0  0  0  0
    5.6920   12.2080   27.2510 C   0  0  0  0  0  0  0  0  0  0  0  0
    6.3030   13.4430   27.1200 C   0  0  0  0  0  0  0  0  0  0  0  0
 17 16  1  0
 16 15  1  0
 15 21  2  0
 21 20  1  0
 20 19  2  0
 19 18  1  0
 18 14  2  0
 15 14  1  0
 14 12  1  0
 12 13  1  1
 12 10  1  0
 11 10  2  0
 10  9  1  0
  9  7  1  0
  7  6  1  0
  6  5  1  0
  5  4  1  0
  4  2  1  6
  3  2  1  0
  2  1  2  0
  8  4  1  0
  9  8  1  0
M  END
>  <id>  (364) 
364

>  <inchikey>  (364) 
PMVJSDCMAGKMNB-RYUDHWBXSA-N

>  <alias>  (364) 
A4445b

>  <smiles>  (364) 
COc1ccccc1[C@H](C)C(=O)N1CCC[C@H](C(N)=O)C1

>  <path>  (364) 
/opt/xchem-fragalysis-2/maxwin/BulkDock/TARGETS/A71EV2A/aligned_files/A4445b/A4445b_hippo.pdb

>  <distance_score>  (364) 
None

>  <energy_score>  (364) 
None

>  <compound>  (364) 
PMVJSDCMAGKMNB-UHFFFAOYSA-N

>  <compound_id>  (364) 
281

>  <target>  (364) 
A71EV2A

>  <tags>  (364) 
['GOOD count', "[Other] S1' site", 'MEDIOCRE count', '[Other] S1 site', 'hits', '[Other] S2 site', '[Other] P3 compound design', '[Other] upload_1 2025-02-12', 'Main status', '[Series] Piperidine series', 'BAD count']

>  <inspirations>  (364) 
None

>  <subsites>  (364) 
None

>  <reference>  (364) 


>  <observation_longname>  (364) 
A71EV2A-x4445_C_201_v1

>  <ConformerSites alias>  (364) 
1b - A0911/A/147

>  <CanonSites alias>  (364) 
1 - Active Site

>  <CrystalformSites alias>  (364) 
F6p - A4214/C/201

>  <Quatassemblies alias>  (364) 
A1 - monomer

>  <Crystalforms alias>  (364) 
F6 - short_long_x4018

>  <ConformerSites upload name>  (364) 
1b - A71EV2A-x0911/A/147

>  <CanonSites upload name>  (364) 
1 - A71EV2A-x0911/A/147/1

>  <CrystalformSites upload name>  (364) 
F6p - A71EV2A-x4214/C/201/1

>  <Quatassemblies upload name>  (364) 
A1 - monomer

>  <Crystalforms upload name>  (364) 
F6 - short_long_x4018

>  <ConformerSites short tag>  (364) 
1b - A0911/A/147

>  <CanonSites short tag>  (364) 
1 - A0911/A/147/1

>  <CrystalformSites short tag>  (364) 
F6p - A4214/C/201

>  <Quatassemblies short tag>  (364) 
A1 - monomer

>  <Crystalforms short tag>  (364) 
F6 - short_long_x4018

>  <Centroid res>  (364) 
A71EV2A-x0911/A/133/A_v1

>  <Experiment code>  (364) 
A71EV2A-x4445

>  <Pose>  (364) 
A4445a

$$$$
A4447a
     RDKit          3D

 22 24  0  0  0  0  0  0  0  0999 V2000
   10.2630   16.6530   19.1000 O   0  0  0  0  0  0  0  0  0  0  0  0
   10.6260   15.5050   19.3630 C   0  0  0  0  0  0  0  0  0  0  0  0
   10.9550   14.6190   18.4360 N   0  0  0  0  0  0  0  0  0  0  0  0
   10.6710   15.0070   20.7970 C   0  0  1  0  0  0  0  0  0  0  0  0
   11.8440   15.6220   21.5680 C   0  0  0  0  0  0  0  0  0  0  0  0
   11.8410   15.1510   23.0200 C   0  0  0  0  0  0  0  0  0  0  0  0
   10.5040   15.4670   23.6760 C   0  0  0  0  0  0  0  0  0  0  0  0
    9.3590   15.3990   21.4750 C   0  0  0  0  0  0  0  0  0  0  0  0
    9.3720   14.9610   22.8720 N   0  0  0  0  0  0  0  0  0  0  0  0
    8.7140   13.7990   23.1350 C   0  0  0  0  0  0  0  0  0  0  0  0
    7.7260   13.4450   22.5000 O   0  0  0  0  0  0  0  0  0  0  0  0
    9.2580   13.0200   24.0850 N   0  0  0  0  0  0  0  0  0  0  0  0
    8.6640   11.8020   24.4190 C   0  0  0  0  0  0  0  0  0  0  0  0
    9.0740   10.5610   23.9260 C   0  0  0  0  0  0  0  0  0  0  0  0
    8.4010    9.3950   24.2770 C   0  0  0  0  0  0  0  0  0  0  0  0
    7.3170    9.4300   25.1440 C   0  0  0  0  0  0  0  0  0  0  0  0
    6.9350   10.6630   25.6480 C   0  0  0  0  0  0  0  0  0  0  0  0
    5.9590   11.0270   26.5460 N   0  0  0  0  0  0  0  0  0  0  0  0
    5.1840   10.1200   27.3810 C   0  0  0  0  0  0  0  0  0  0  0  0
    7.5600   11.8440   25.2840 C   0  0  0  0  0  0  0  0  0  0  0  0
    6.9520   12.9290   25.8980 N   0  0  0  0  0  0  0  0  0  0  0  0
    6.0080   12.3830   26.6260 C   0  0  0  0  0  0  0  0  0  0  0  0
 19 18  1  0
 18 22  1  0
 22 21  2  0
 21 20  1  0
 20 13  1  0
 13 12  1  0
 12 10  1  0
 11 10  2  0
 10  9  1  0
  9  7  1  0
  7  6  1  0
  6  5  1  0
  5  4  1  0
  4  2  1  6
  3  2  1  0
  2  1  2  0
  8  4  1  0
  9  8  1  0
 14 13  2  0
 15 14  1  0
 16 15  2  0
 17 16  1  0
 20 17  2  0
 18 17  1  0
M  END
>  <id>  (365) 
365

>  <inchikey>  (365) 
NNNNPICOGNGKIS-JTQLQIEISA-N

>  <alias>  (365) 
A4447a

>  <smiles>  (365) 
Cn1cnc2c(NC(=O)N3CCC[C@H](C(N)=O)C3)cccc21

>  <path>  (365) 
/opt/xchem-fragalysis-2/maxwin/BulkDock/TARGETS/A71EV2A/aligned_files/A4447a/A4447a_hippo.pdb

>  <distance_score>  (365) 
None

>  <energy_score>  (365) 
None

>  <compound>  (365) 
NNNNPICOGNGKIS-UHFFFAOYSA-N

>  <compound_id>  (365) 
282

>  <target>  (365) 
A71EV2A

>  <tags>  (365) 
['GOOD count', 'MEDIOCRE count', '[Other] S1 site', 'hits', '[Other] S2 site', '[Other] P3 compound design', '[Other] upload_1 2025-02-12', 'Main status', '[Series] Piperidine series', 'BAD count']

>  <inspirations>  (365) 
None

>  <subsites>  (365) 
None

>  <reference>  (365) 


>  <observation_longname>  (365) 
A71EV2A-x4447_A_201_v1

>  <ConformerSites alias>  (365) 
1b - A0911/A/147

>  <CanonSites alias>  (365) 
1 - Active Site

>  <CrystalformSites alias>  (365) 
F7q - A4303/A/201

>  <Quatassemblies alias>  (365) 
A1 - monomer

>  <Crystalforms alias>  (365) 
F7 - A712A_x4207_8.1_refmac1_1st_ref

>  <ConformerSites upload name>  (365) 
1b - A71EV2A-x0911/A/147

>  <CanonSites upload name>  (365) 
1 - A71EV2A-x0911/A/147/1

>  <CrystalformSites upload name>  (365) 
F7q - A71EV2A-x4303/A/201/1

>  <Quatassemblies upload name>  (365) 
A1 - monomer

>  <Crystalforms upload name>  (365) 
F7 - A712A_x4207_8.1_refmac1_1st_ref

>  <ConformerSites short tag>  (365) 
1b - A0911/A/147

>  <CanonSites short tag>  (365) 
1 - A0911/A/147/1

>  <CrystalformSites short tag>  (365) 
F7q - A4303/A/201

>  <Quatassemblies short tag>  (365) 
A1 - monomer

>  <Crystalforms short tag>  (365) 
F7 - A712A_x4207_8.1_refmac1_1st_ref

>  <Centroid res>  (365) 
A71EV2A-x0911/A/133/A_v1

>  <Experiment code>  (365) 
A71EV2A-x4447

>  <Pose>  (365) 
A4447a

$$$$
A4447b
     RDKit          3D

 22 24  0  0  0  0  0  0  0  0999 V2000
   10.4510   16.7540   19.1340 O   0  0  0  0  0  0  0  0  0  0  0  0
   10.8400   15.6020   19.3670 C   0  0  0  0  0  0  0  0  0  0  0  0
   11.0290   14.6900   18.4210 N   0  0  0  0  0  0  0  0  0  0  0  0
   11.0180   15.1120   20.7930 C   0  0  1  0  0  0  0  0  0  0  0  0
   12.2130   15.7910   21.4770 C   0  0  0  0  0  0  0  0  0  0  0  0
   12.3320   15.3580   22.9420 C   0  0  0  0  0  0  0  0  0  0  0  0
   11.0150   15.5830   23.6900 C   0  0  0  0  0  0  0  0  0  0  0  0
    9.7510   15.4580   21.5750 C   0  0  0  0  0  0  0  0  0  0  0  0
    9.8860   14.9880   22.9550 N   0  0  0  0  0  0  0  0  0  0  0  0
    9.2290   13.8250   23.2450 C   0  0  0  0  0  0  0  0  0  0  0  0
    8.1600   13.5230   22.7090 O   0  0  0  0  0  0  0  0  0  0  0  0
    9.7980   13.0420   24.1880 N   0  0  0  0  0  0  0  0  0  0  0  0
    9.2130   11.7890   24.4800 C   0  0  0  0  0  0  0  0  0  0  0  0
    9.6220   10.6090   23.8450 C   0  0  0  0  0  0  0  0  0  0  0  0
    8.9810    9.3950   24.0800 C   0  0  0  0  0  0  0  0  0  0  0  0
    7.9160    9.3140   24.9670 C   0  0  0  0  0  0  0  0  0  0  0  0
    7.5160   10.4840   25.5960 C   0  0  0  0  0  0  0  0  0  0  0  0
    6.5100   10.7390   26.5030 N   0  0  0  0  0  0  0  0  0  0  0  0
    5.5470    9.7710   27.0100 C   0  0  0  0  0  0  0  0  0  0  0  0
    8.1220   11.7120   25.3620 C   0  0  0  0  0  0  0  0  0  0  0  0
    7.4960   12.7110   26.0940 N   0  0  0  0  0  0  0  0  0  0  0  0
    6.5600   12.0730   26.7530 C   0  0  0  0  0  0  0  0  0  0  0  0
 19 18  1  0
 18 22  1  0
 22 21  2  0
 21 20  1  0
 20 13  1  0
 13 12  1  0
 12 10  1  0
 11 10  2  0
 10  9  1  0
  9  7  1  0
  7  6  1  0
  6  5  1  0
  5  4  1  0
  4  2  1  6
  3  2  1  0
  2  1  2  0
  8  4  1  0
  9  8  1  0
 14 13  2  0
 15 14  1  0
 16 15  2  0
 17 16  1  0
 20 17  2  0
 18 17  1  0
M  END
>  <id>  (366) 
366

>  <inchikey>  (366) 
NNNNPICOGNGKIS-JTQLQIEISA-N

>  <alias>  (366) 
A4447b

>  <smiles>  (366) 
Cn1cnc2c(NC(=O)N3CCC[C@H](C(N)=O)C3)cccc21

>  <path>  (366) 
/opt/xchem-fragalysis-2/maxwin/BulkDock/TARGETS/A71EV2A/aligned_files/A4447b/A4447b.pdb

>  <distance_score>  (366) 
None

>  <energy_score>  (366) 
None

>  <compound>  (366) 
NNNNPICOGNGKIS-UHFFFAOYSA-N

>  <compound_id>  (366) 
282

>  <target>  (366) 
A71EV2A

>  <tags>  (366) 
['GOOD count', 'MEDIOCRE count', '[Other] S1 site', 'hits', '[Other] S2 site', '[Other] P3 compound design', '[Other] upload_1 2025-02-12', 'Main status', '[Series] Piperidine series', 'BAD count']

>  <inspirations>  (366) 
None

>  <subsites>  (366) 
None

>  <reference>  (366) 


>  <observation_longname>  (366) 
A71EV2A-x4447_C_201_v1

>  <ConformerSites alias>  (366) 
1b - A0911/A/147

>  <CanonSites alias>  (366) 
1 - Active Site

>  <CrystalformSites alias>  (366) 
F7r - A4303/C/201

>  <Quatassemblies alias>  (366) 
A1 - monomer

>  <Crystalforms alias>  (366) 
F7 - A712A_x4207_8.1_refmac1_1st_ref

>  <ConformerSites upload name>  (366) 
1b - A71EV2A-x0911/A/147

>  <CanonSites upload name>  (366) 
1 - A71EV2A-x0911/A/147/1

>  <CrystalformSites upload name>  (366) 
F7r - A71EV2A-x4303/C/201/1

>  <Quatassemblies upload name>  (366) 
A1 - monomer

>  <Crystalforms upload name>  (366) 
F7 - A712A_x4207_8.1_refmac1_1st_ref

>  <ConformerSites short tag>  (366) 
1b - A0911/A/147

>  <CanonSites short tag>  (366) 
1 - A0911/A/147/1

>  <CrystalformSites short tag>  (366) 
F7r - A4303/C/201

>  <Quatassemblies short tag>  (366) 
A1 - monomer

>  <Crystalforms short tag>  (366) 
F7 - A712A_x4207_8.1_refmac1_1st_ref

>  <Centroid res>  (366) 
A71EV2A-x0911/A/133/A_v1

>  <Experiment code>  (366) 
A71EV2A-x4447

>  <Pose>  (366) 
A4447a

$$$$
A4449a
     RDKit          3D

 24 25  0  0  0  0  0  0  0  0999 V2000
   10.3000   16.6260   19.2230 O   0  0  0  0  0  0  0  0  0  0  0  0
   10.7080   15.4780   19.4300 C   0  0  0  0  0  0  0  0  0  0  0  0
   10.9920   14.6260   18.4490 N   0  0  0  0  0  0  0  0  0  0  0  0
   10.8160   14.9250   20.8400 C   0  0  1  0  0  0  0  0  0  0  0  0
   11.9350   15.6100   21.6410 C   0  0  0  0  0  0  0  0  0  0  0  0
   12.0230   15.0050   23.0430 C   0  0  0  0  0  0  0  0  0  0  0  0
   10.6780   15.1030   23.7580 C   0  0  0  0  0  0  0  0  0  0  0  0
    9.4810   15.0970   21.5740 C   0  0  0  0  0  0  0  0  0  0  0  0
    9.5610   14.5830   22.9450 N   0  0  0  0  0  0  0  0  0  0  0  0
    8.6100   13.7390   23.4090 C   0  0  0  0  0  0  0  0  0  0  0  0
    7.7240   13.3140   22.6870 O   0  0  0  0  0  0  0  0  0  0  0  0
    8.6570   13.3160   24.9130 C   0  0  1  0  0  0  0  0  0  0  0  0
    8.4080   14.4670   25.7780 N   0  0  0  0  0  0  0  0  0  0  0  0
    9.2320   14.8050   26.7830 C   0  0  0  0  0  0  0  0  0  0  0  0
   10.2920   14.2150   26.9860 O   0  0  0  0  0  0  0  0  0  0  0  0
    8.7720   15.9250   27.6670 C   0  0  0  0  0  0  0  0  0  0  0  0
    7.7030   12.1600   25.1990 C   0  0  0  0  0  0  0  0  0  0  0  0
    7.9630   10.8670   24.7230 C   0  0  0  0  0  0  0  0  0  0  0  0
    9.0720   10.7500   23.9280 O   0  0  0  0  0  0  0  0  0  0  0  0
    9.5280    9.4350   23.5920 C   0  0  0  0  0  0  0  0  0  0  0  0
    6.5680   12.3540   25.9840 C   0  0  0  0  0  0  0  0  0  0  0  0
    5.7240   11.3000   26.2950 C   0  0  0  0  0  0  0  0  0  0  0  0
    5.9980   10.0360   25.8260 C   0  0  0  0  0  0  0  0  0  0  0  0
    7.1230    9.8080   25.0480 C   0  0  0  0  0  0  0  0  0  0  0  0
 20 19  1  0
 19 18  1  0
 18 24  2  0
 24 23  1  0
 23 22  2  0
 22 21  1  0
 21 17  2  0
 18 17  1  0
 17 12  1  0
 12 13  1  1
 14 13  1  0
 16 14  1  0
 15 14  2  0
 12 10  1  0
 11 10  2  0
 10  9  1  0
  9  7  1  0
  7  6  1  0
  6  5  1  0
  5  4  1  0
  4  2  1  6
  3  2  1  0
  2  1  2  0
  8  4  1  0
  9  8  1  0
M  END
>  <id>  (367) 
367

>  <inchikey>  (367) 
KEZJHWCQWSCOQQ-WFASDCNBSA-N

>  <alias>  (367) 
A4449a

>  <smiles>  (367) 
COc1ccccc1[C@H](NC(C)=O)C(=O)N1CCC[C@H](C(N)=O)C1

>  <path>  (367) 
/opt/xchem-fragalysis-2/maxwin/BulkDock/TARGETS/A71EV2A/aligned_files/A4449a/A4449a_hippo.pdb

>  <distance_score>  (367) 
None

>  <energy_score>  (367) 
None

>  <compound>  (367) 
KEZJHWCQWSCOQQ-UHFFFAOYSA-N

>  <compound_id>  (367) 
257

>  <target>  (367) 
A71EV2A

>  <tags>  (367) 
['GOOD count', "[Other] S1' site", 'MEDIOCRE count', '[Other] S1 site', 'hits', '[Other] S2 site', '[Other] P3 compound design', '[Other] upload_1 2025-02-12', 'Main status', '[Series] Piperidine series', 'BAD count']

>  <inspirations>  (367) 
None

>  <subsites>  (367) 
None

>  <reference>  (367) 


>  <observation_longname>  (367) 
A71EV2A-x4449_A_201_v1

>  <ConformerSites alias>  (367) 
1b - A0911/A/147

>  <CanonSites alias>  (367) 
1 - Active Site

>  <CrystalformSites alias>  (367) 
F7q - A4303/A/201

>  <Quatassemblies alias>  (367) 
A1 - monomer

>  <Crystalforms alias>  (367) 
F7 - A712A_x4207_8.1_refmac1_1st_ref

>  <ConformerSites upload name>  (367) 
1b - A71EV2A-x0911/A/147

>  <CanonSites upload name>  (367) 
1 - A71EV2A-x0911/A/147/1

>  <CrystalformSites upload name>  (367) 
F7q - A71EV2A-x4303/A/201/1

>  <Quatassemblies upload name>  (367) 
A1 - monomer

>  <Crystalforms upload name>  (367) 
F7 - A712A_x4207_8.1_refmac1_1st_ref

>  <ConformerSites short tag>  (367) 
1b - A0911/A/147

>  <CanonSites short tag>  (367) 
1 - A0911/A/147/1

>  <CrystalformSites short tag>  (367) 
F7q - A4303/A/201

>  <Quatassemblies short tag>  (367) 
A1 - monomer

>  <Crystalforms short tag>  (367) 
F7 - A712A_x4207_8.1_refmac1_1st_ref

>  <Centroid res>  (367) 
A71EV2A-x0911/A/133/A_v1

>  <Experiment code>  (367) 
A71EV2A-x4449

>  <Pose>  (367) 
A4449a

$$$$
A4449b
     RDKit          3D

 24 25  0  0  0  0  0  0  0  0999 V2000
   10.3990   16.6280   19.2010 O   0  0  0  0  0  0  0  0  0  0  0  0
   10.8170   15.4750   19.3960 C   0  0  0  0  0  0  0  0  0  0  0  0
   11.0830   14.6220   18.4200 N   0  0  0  0  0  0  0  0  0  0  0  0
   10.9800   14.9250   20.8020 C   0  0  1  0  0  0  0  0  0  0  0  0
   12.1100   15.6440   21.5630 C   0  0  0  0  0  0  0  0  0  0  0  0
   12.2430   15.0720   22.9770 C   0  0  0  0  0  0  0  0  0  0  0  0
   10.9050   15.1610   23.7190 C   0  0  0  0  0  0  0  0  0  0  0  0
    9.6640   15.0800   21.5720 C   0  0  0  0  0  0  0  0  0  0  0  0
    9.7970   14.5690   22.9410 N   0  0  0  0  0  0  0  0  0  0  0  0
    8.8720   13.7060   23.4350 C   0  0  0  0  0  0  0  0  0  0  0  0
    7.9590   13.2710   22.7450 O   0  0  0  0  0  0  0  0  0  0  0  0
    8.9630   13.3010   24.9390 C   0  0  1  0  0  0  0  0  0  0  0  0
    8.6560   14.4680   25.7660 N   0  0  0  0  0  0  0  0  0  0  0  0
    9.4670   14.8630   26.7620 C   0  0  0  0  0  0  0  0  0  0  0  0
   10.5580   14.3240   26.9720 O   0  0  0  0  0  0  0  0  0  0  0  0
    8.9800   16.0280   27.5760 C   0  0  0  0  0  0  0  0  0  0  0  0
    8.0270   12.1320   25.2500 C   0  0  0  0  0  0  0  0  0  0  0  0
    8.2670   10.8470   24.7460 C   0  0  0  0  0  0  0  0  0  0  0  0
    9.3600   10.7280   23.9280 O   0  0  0  0  0  0  0  0  0  0  0  0
    9.7750    9.4090   23.5470 C   0  0  0  0  0  0  0  0  0  0  0  0
    6.9520   12.2970   26.1210 C   0  0  0  0  0  0  0  0  0  0  0  0
    6.1500   11.2260   26.4880 C   0  0  0  0  0  0  0  0  0  0  0  0
    6.4070    9.9730   25.9930 C   0  0  0  0  0  0  0  0  0  0  0  0
    7.4610    9.7730   25.1140 C   0  0  0  0  0  0  0  0  0  0  0  0
 20 19  1  0
 19 18  1  0
 18 24  2  0
 24 23  1  0
 23 22  2  0
 22 21  1  0
 21 17  2  0
 18 17  1  0
 17 12  1  0
 12 13  1  1
 14 13  1  0
 16 14  1  0
 15 14  2  0
 12 10  1  0
 11 10  2  0
 10  9  1  0
  9  7  1  0
  7  6  1  0
  6  5  1  0
  5  4  1  0
  4  2  1  6
  3  2  1  0
  2  1  2  0
  8  4  1  0
  9  8  1  0
M  END
>  <id>  (368) 
368

>  <inchikey>  (368) 
KEZJHWCQWSCOQQ-WFASDCNBSA-N

>  <alias>  (368) 
A4449b

>  <smiles>  (368) 
COc1ccccc1[C@H](NC(C)=O)C(=O)N1CCC[C@H](C(N)=O)C1

>  <path>  (368) 
/opt/xchem-fragalysis-2/maxwin/BulkDock/TARGETS/A71EV2A/aligned_files/A4449b/A4449b.pdb

>  <distance_score>  (368) 
None

>  <energy_score>  (368) 
None

>  <compound>  (368) 
KEZJHWCQWSCOQQ-UHFFFAOYSA-N

>  <compound_id>  (368) 
257

>  <target>  (368) 
A71EV2A

>  <tags>  (368) 
['GOOD count', "[Other] S1' site", 'MEDIOCRE count', '[Other] S1 site', 'hits', '[Other] S2 site', '[Other] P3 compound design', '[Other] upload_1 2025-02-12', 'Main status', '[Series] Piperidine series', 'BAD count']

>  <inspirations>  (368) 
None

>  <subsites>  (368) 
None

>  <reference>  (368) 


>  <observation_longname>  (368) 
A71EV2A-x4449_C_201_v1

>  <ConformerSites alias>  (368) 
1b - A0911/A/147

>  <CanonSites alias>  (368) 
1 - Active Site

>  <CrystalformSites alias>  (368) 
F7r - A4303/C/201

>  <Quatassemblies alias>  (368) 
A1 - monomer

>  <Crystalforms alias>  (368) 
F7 - A712A_x4207_8.1_refmac1_1st_ref

>  <ConformerSites upload name>  (368) 
1b - A71EV2A-x0911/A/147

>  <CanonSites upload name>  (368) 
1 - A71EV2A-x0911/A/147/1

>  <CrystalformSites upload name>  (368) 
F7r - A71EV2A-x4303/C/201/1

>  <Quatassemblies upload name>  (368) 
A1 - monomer

>  <Crystalforms upload name>  (368) 
F7 - A712A_x4207_8.1_refmac1_1st_ref

>  <ConformerSites short tag>  (368) 
1b - A0911/A/147

>  <CanonSites short tag>  (368) 
1 - A0911/A/147/1

>  <CrystalformSites short tag>  (368) 
F7r - A4303/C/201

>  <Quatassemblies short tag>  (368) 
A1 - monomer

>  <Crystalforms short tag>  (368) 
F7 - A712A_x4207_8.1_refmac1_1st_ref

>  <Centroid res>  (368) 
A71EV2A-x0911/A/133/A_v1

>  <Experiment code>  (368) 
A71EV2A-x4449

>  <Pose>  (368) 
A4449a

$$$$
A4451a
     RDKit          3D

 23 25  0  0  0  0  0  0  0  0999 V2000
    7.8130   13.2640   22.7780 O   0  0  0  0  0  0  0  0  0  0  0  0
    8.6550   13.8390   23.4410 C   0  0  0  0  0  0  0  0  0  0  0  0
    9.3670   14.8680   22.9540 N   0  0  0  0  0  0  0  0  0  0  0  0
   10.3730   15.6160   23.7210 C   0  0  0  0  0  0  0  0  0  0  0  0
   11.7440   15.4310   23.1020 C   0  0  0  0  0  0  0  0  0  0  0  0
   11.7030   15.8430   21.6350 C   0  0  0  0  0  0  0  0  0  0  0  0
    9.2750   15.2480   21.5430 C   0  0  0  0  0  0  0  0  0  0  0  0
   10.6330   15.0570   20.8700 C   0  0  1  0  0  0  0  0  0  0  0  0
   10.5090   15.5360   19.4350 C   0  0  0  0  0  0  0  0  0  0  0  0
   10.1500   16.6920   19.1760 O   0  0  0  0  0  0  0  0  0  0  0  0
   10.7550   14.6200   18.4990 N   0  0  0  0  0  0  0  0  0  0  0  0
    8.9530   13.3850   24.8790 C   0  0  1  0  0  0  0  0  0  0  0  0
    8.1900   14.1590   25.8740 N   0  0  0  0  0  0  0  0  0  0  0  0
    8.8180   14.5820   27.0020 N   0  0  0  0  0  0  0  0  0  0  0  0
    7.8800   15.2560   27.6610 C   0  0  0  0  0  0  0  0  0  0  0  0
    6.6700   15.2770   26.9720 C   0  0  0  0  0  0  0  0  0  0  0  0
    6.9030   14.5590   25.8300 C   0  0  0  0  0  0  0  0  0  0  0  0
    8.7750   11.8980   25.0340 C   0  0  0  0  0  0  0  0  0  0  0  0
    9.7200   11.0310   24.5170 C   0  0  0  0  0  0  0  0  0  0  0  0
    9.4540    9.6830   24.4170 C   0  0  0  0  0  0  0  0  0  0  0  0
    8.2610    9.1920   24.8400 C   0  0  0  0  0  0  0  0  0  0  0  0
    7.3340   10.0300   25.4000 C   0  0  0  0  0  0  0  0  0  0  0  0
    7.5860   11.3780   25.4960 C   0  0  0  0  0  0  0  0  0  0  0  0
 11  9  1  0
 10  9  2  0
  8  9  1  6
  8  6  1  0
  6  5  1  0
  5  4  1  0
  4  3  1  0
  3  2  1  0
  2  1  2  0
 12  2  1  0
 18 12  1  0
 18 23  2  0
 23 22  1  0
 22 21  2  0
 21 20  1  0
 20 19  2  0
 19 18  1  0
 12 13  1  1
 13 17  1  0
 17 16  2  0
 16 15  1  0
 15 14  2  0
 14 13  1  0
  7  3  1  0
  8  7  1  0
M  END
>  <id>  (369) 
369

>  <inchikey>  (369) 
QFDXKCWZNOGADA-GJZGRUSLSA-N

>  <alias>  (369) 
A4451a

>  <smiles>  (369) 
NC(=O)[C@H]1CCCN(C(=O)[C@H](c2ccccc2)n2cccn2)C1

>  <path>  (369) 
/opt/xchem-fragalysis-2/maxwin/BulkDock/TARGETS/A71EV2A/aligned_files/A4451a/A4451a_hippo.pdb

>  <distance_score>  (369) 
None

>  <energy_score>  (369) 
None

>  <compound>  (369) 
QFDXKCWZNOGADA-UHFFFAOYSA-N

>  <compound_id>  (369) 
283

>  <target>  (369) 
A71EV2A

>  <tags>  (369) 
['GOOD count', 'MEDIOCRE count', '[Other] S1 site', 'hits', '[Other] S2 site', '[Other] P3 compound design', '[Other] upload_1 2025-02-12', 'Main status', '[Series] Piperidine series', 'BAD count']

>  <inspirations>  (369) 
None

>  <subsites>  (369) 
None

>  <reference>  (369) 


>  <observation_longname>  (369) 
A71EV2A-x4451_A_201_v1

>  <ConformerSites alias>  (369) 
1b - A0911/A/147

>  <CanonSites alias>  (369) 
1 - Active Site

>  <CrystalformSites alias>  (369) 
F7q - A4303/A/201

>  <Quatassemblies alias>  (369) 
A1 - monomer

>  <Crystalforms alias>  (369) 
F7 - A712A_x4207_8.1_refmac1_1st_ref

>  <ConformerSites upload name>  (369) 
1b - A71EV2A-x0911/A/147

>  <CanonSites upload name>  (369) 
1 - A71EV2A-x0911/A/147/1

>  <CrystalformSites upload name>  (369) 
F7q - A71EV2A-x4303/A/201/1

>  <Quatassemblies upload name>  (369) 
A1 - monomer

>  <Crystalforms upload name>  (369) 
F7 - A712A_x4207_8.1_refmac1_1st_ref

>  <ConformerSites short tag>  (369) 
1b - A0911/A/147

>  <CanonSites short tag>  (369) 
1 - A0911/A/147/1

>  <CrystalformSites short tag>  (369) 
F7q - A4303/A/201

>  <Quatassemblies short tag>  (369) 
A1 - monomer

>  <Crystalforms short tag>  (369) 
F7 - A712A_x4207_8.1_refmac1_1st_ref

>  <Centroid res>  (369) 
A71EV2A-x0911/A/133/A_v1

>  <Experiment code>  (369) 
A71EV2A-x4451

>  <Pose>  (369) 
A4451a

$$$$
A4451b
     RDKit          3D

 23 25  0  0  0  0  0  0  0  0999 V2000
    8.0160   13.2840   22.7990 O   0  0  0  0  0  0  0  0  0  0  0  0
    8.8790   13.8710   23.4520 C   0  0  0  0  0  0  0  0  0  0  0  0
    9.5750   14.9080   22.9590 N   0  0  0  0  0  0  0  0  0  0  0  0
   10.5760   15.6900   23.7060 C   0  0  0  0  0  0  0  0  0  0  0  0
   11.9380   15.5510   23.0630 C   0  0  0  0  0  0  0  0  0  0  0  0
   11.8660   15.9450   21.5850 C   0  0  0  0  0  0  0  0  0  0  0  0
    9.4440   15.2860   21.5480 C   0  0  0  0  0  0  0  0  0  0  0  0
   10.7940   15.1180   20.8460 C   0  0  1  0  0  0  0  0  0  0  0  0
   10.6360   15.5940   19.4150 C   0  0  0  0  0  0  0  0  0  0  0  0
   10.2940   16.7640   19.1670 O   0  0  0  0  0  0  0  0  0  0  0  0
   10.8230   14.6640   18.4820 N   0  0  0  0  0  0  0  0  0  0  0  0
    9.1920   13.4120   24.8850 C   0  0  1  0  0  0  0  0  0  0  0  0
    8.4130   14.1810   25.8810 N   0  0  0  0  0  0  0  0  0  0  0  0
    9.0250   14.5800   27.0280 N   0  0  0  0  0  0  0  0  0  0  0  0
    8.0730   15.2310   27.6930 C   0  0  0  0  0  0  0  0  0  0  0  0
    6.8700   15.2590   26.9940 C   0  0  0  0  0  0  0  0  0  0  0  0
    7.1210   14.5730   25.8330 C   0  0  0  0  0  0  0  0  0  0  0  0
    8.9920   11.9200   25.0280 C   0  0  0  0  0  0  0  0  0  0  0  0
    9.9240   11.0510   24.4990 C   0  0  0  0  0  0  0  0  0  0  0  0
    9.6460    9.7030   24.3960 C   0  0  0  0  0  0  0  0  0  0  0  0
    8.4480    9.2180   24.8250 C   0  0  0  0  0  0  0  0  0  0  0  0
    7.5290   10.0580   25.3870 C   0  0  0  0  0  0  0  0  0  0  0  0
    7.7940   11.4050   25.4870 C   0  0  0  0  0  0  0  0  0  0  0  0
 11  9  1  0
 10  9  2  0
  8  9  1  6
  8  6  1  0
  6  5  1  0
  5  4  1  0
  4  3  1  0
  3  2  1  0
  2  1  2  0
 12  2  1  0
 18 12  1  0
 18 23  2  0
 23 22  1  0
 22 21  2  0
 21 20  1  0
 20 19  2  0
 19 18  1  0
 12 13  1  1
 13 17  1  0
 17 16  2  0
 16 15  1  0
 15 14  2  0
 14 13  1  0
  7  3  1  0
  8  7  1  0
M  END
>  <id>  (370) 
370

>  <inchikey>  (370) 
QFDXKCWZNOGADA-GJZGRUSLSA-N

>  <alias>  (370) 
A4451b

>  <smiles>  (370) 
NC(=O)[C@H]1CCCN(C(=O)[C@H](c2ccccc2)n2cccn2)C1

>  <path>  (370) 
/opt/xchem-fragalysis-2/maxwin/BulkDock/TARGETS/A71EV2A/aligned_files/A4451b/A4451b.pdb

>  <distance_score>  (370) 
None

>  <energy_score>  (370) 
None

>  <compound>  (370) 
QFDXKCWZNOGADA-UHFFFAOYSA-N

>  <compound_id>  (370) 
283

>  <target>  (370) 
A71EV2A

>  <tags>  (370) 
['GOOD count', 'MEDIOCRE count', '[Other] S1 site', 'hits', '[Other] S2 site', '[Other] P3 compound design', '[Other] upload_1 2025-02-12', 'Main status', '[Series] Piperidine series', 'BAD count']

>  <inspirations>  (370) 
None

>  <subsites>  (370) 
None

>  <reference>  (370) 


>  <observation_longname>  (370) 
A71EV2A-x4451_C_201_v1

>  <ConformerSites alias>  (370) 
1b - A0911/A/147

>  <CanonSites alias>  (370) 
1 - Active Site

>  <CrystalformSites alias>  (370) 
F7r - A4303/C/201

>  <Quatassemblies alias>  (370) 
A1 - monomer

>  <Crystalforms alias>  (370) 
F7 - A712A_x4207_8.1_refmac1_1st_ref

>  <ConformerSites upload name>  (370) 
1b - A71EV2A-x0911/A/147

>  <CanonSites upload name>  (370) 
1 - A71EV2A-x0911/A/147/1

>  <CrystalformSites upload name>  (370) 
F7r - A71EV2A-x4303/C/201/1

>  <Quatassemblies upload name>  (370) 
A1 - monomer

>  <Crystalforms upload name>  (370) 
F7 - A712A_x4207_8.1_refmac1_1st_ref

>  <ConformerSites short tag>  (370) 
1b - A0911/A/147

>  <CanonSites short tag>  (370) 
1 - A0911/A/147/1

>  <CrystalformSites short tag>  (370) 
F7r - A4303/C/201

>  <Quatassemblies short tag>  (370) 
A1 - monomer

>  <Crystalforms short tag>  (370) 
F7 - A712A_x4207_8.1_refmac1_1st_ref

>  <Centroid res>  (370) 
A71EV2A-x0911/A/133/A_v1

>  <Experiment code>  (370) 
A71EV2A-x4451

>  <Pose>  (370) 
A4451a

$$$$
A4456a
     RDKit          3D

 21 23  0  0  0  0  0  0  0  0999 V2000
    7.5770   13.3890   22.4230 O   0  0  0  0  0  0  0  0  0  0  0  0
    8.5050   13.6060   23.1390 C   0  0  0  0  0  0  0  0  0  0  0  0
    9.3950   14.6210   22.9130 N   0  0  0  0  0  0  0  0  0  0  0  0
   10.4420   15.2470   23.7470 C   0  0  0  0  0  0  0  0  0  0  0  0
   11.8240   15.1810   23.0910 C   0  0  0  0  0  0  0  0  0  0  0  0
   11.7840   15.7250   21.6520 C   0  0  0  0  0  0  0  0  0  0  0  0
    9.3550   15.2100   21.5680 C   0  0  0  0  0  0  0  0  0  0  0  0
   10.6850   14.9880   20.8480 C   0  0  1  0  0  0  0  0  0  0  0  0
   10.5970   15.4990   19.4200 C   0  0  0  0  0  0  0  0  0  0  0  0
   10.2250   16.6490   19.1750 O   0  0  0  0  0  0  0  0  0  0  0  0
   10.9290   14.6270   18.4660 N   0  0  0  0  0  0  0  0  0  0  0  0
    8.8130   12.3160   23.8820 C   0  0  2  0  0  0  0  0  0  0  0  0
    7.8670   12.0320   25.0260 C   0  0  0  0  0  0  0  0  0  0  0  0
    8.0640   10.6580   24.9530 C   0  0  0  0  0  0  0  0  0  0  0  0
    9.5170   10.4380   24.5830 C   0  0  0  0  0  0  0  0  0  0  0  0
   10.0110   11.8730   24.4020 C   0  0  0  0  0  0  0  0  0  0  0  0
    6.7370   12.5350   25.6840 C   0  0  0  0  0  0  0  0  0  0  0  0
    6.5470   13.8680   25.8880 O   0  0  0  0  0  0  0  0  0  0  0  0
    5.7720   11.6490   26.1760 C   0  0  0  0  0  0  0  0  0  0  0  0
    5.9180   10.2810   25.9730 C   0  0  0  0  0  0  0  0  0  0  0  0
    7.0590    9.7870   25.3550 C   0  0  0  0  0  0  0  0  0  0  0  0
 11  9  1  0
 10  9  2  0
  8  9  1  6
  8  6  1  0
  6  5  1  0
  5  4  1  0
  4  3  1  0
  3  2  1  0
  2  1  2  0
 12  2  1  1
 12 16  1  0
 16 15  1  0
 15 14  1  0
 14 21  2  0
 21 20  1  0
 20 19  2  0
 19 17  1  0
 18 17  1  0
 17 13  2  0
 14 13  1  0
 13 12  1  0
  7  3  1  0
  8  7  1  0
M  END
>  <id>  (371) 
371

>  <inchikey>  (371) 
ICZSVGPDCFQROW-RYUDHWBXSA-N

>  <alias>  (371) 
A4456a

>  <smiles>  (371) 
NC(=O)[C@H]1CCCN(C(=O)[C@H]2CCc3cccc(O)c32)C1

>  <path>  (371) 
/opt/xchem-fragalysis-2/maxwin/BulkDock/TARGETS/A71EV2A/aligned_files/A4456a/A4456a_hippo.pdb

>  <distance_score>  (371) 
None

>  <energy_score>  (371) 
None

>  <compound>  (371) 
ICZSVGPDCFQROW-UHFFFAOYSA-N

>  <compound_id>  (371) 
284

>  <target>  (371) 
A71EV2A

>  <tags>  (371) 
['GOOD count', 'MEDIOCRE count', '[Other] S1 site', 'hits', '[Other] S2 site', '[Other] P3 compound design', '[Other] upload_1 2025-02-12', 'Main status', '[Series] Piperidine series', 'BAD count']

>  <inspirations>  (371) 
None

>  <subsites>  (371) 
None

>  <reference>  (371) 


>  <observation_longname>  (371) 
A71EV2A-x4456_A_201_v1

>  <ConformerSites alias>  (371) 
1b - A0911/A/147

>  <CanonSites alias>  (371) 
1 - Active Site

>  <CrystalformSites alias>  (371) 
F7q - A4303/A/201

>  <Quatassemblies alias>  (371) 
A1 - monomer

>  <Crystalforms alias>  (371) 
F7 - A712A_x4207_8.1_refmac1_1st_ref

>  <ConformerSites upload name>  (371) 
1b - A71EV2A-x0911/A/147

>  <CanonSites upload name>  (371) 
1 - A71EV2A-x0911/A/147/1

>  <CrystalformSites upload name>  (371) 
F7q - A71EV2A-x4303/A/201/1

>  <Quatassemblies upload name>  (371) 
A1 - monomer

>  <Crystalforms upload name>  (371) 
F7 - A712A_x4207_8.1_refmac1_1st_ref

>  <ConformerSites short tag>  (371) 
1b - A0911/A/147

>  <CanonSites short tag>  (371) 
1 - A0911/A/147/1

>  <CrystalformSites short tag>  (371) 
F7q - A4303/A/201

>  <Quatassemblies short tag>  (371) 
A1 - monomer

>  <Crystalforms short tag>  (371) 
F7 - A712A_x4207_8.1_refmac1_1st_ref

>  <Centroid res>  (371) 
A71EV2A-x0911/A/133/A_v1

>  <Experiment code>  (371) 
A71EV2A-x4456

>  <Pose>  (371) 
A4456a

$$$$
A4456b
     RDKit          3D

 21 23  0  0  0  0  0  0  0  0999 V2000
    8.4350   14.9400   24.9290 O   0  0  0  0  0  0  0  0  0  0  0  0
    9.0240   14.3060   24.0530 C   0  0  0  0  0  0  0  0  0  0  0  0
    9.6860   14.9230   23.0520 N   0  0  0  0  0  0  0  0  0  0  0  0
   10.7930   15.6130   23.7230 C   0  0  0  0  0  0  0  0  0  0  0  0
   12.0690   15.3590   22.9980 C   0  0  0  0  0  0  0  0  0  0  0  0
   11.9460   15.8350   21.5490 C   0  0  0  0  0  0  0  0  0  0  0  0
    9.4900   15.2270   21.6220 C   0  0  0  0  0  0  0  0  0  0  0  0
   10.8070   15.0760   20.8450 C   0  0  1  0  0  0  0  0  0  0  0  0
   10.6760   15.5640   19.4140 C   0  0  0  0  0  0  0  0  0  0  0  0
   10.2880   16.7150   19.1710 O   0  0  0  0  0  0  0  0  0  0  0  0
   10.9450   14.6680   18.4610 N   0  0  0  0  0  0  0  0  0  0  0  0
    9.0160   12.7840   24.0980 C   0  0  2  0  0  0  0  0  0  0  0  0
    8.2190   12.2030   25.2470 C   0  0  0  0  0  0  0  0  0  0  0  0
    8.4020   10.8340   25.0620 C   0  0  0  0  0  0  0  0  0  0  0  0
    9.6870   10.6000   24.3090 C   0  0  0  0  0  0  0  0  0  0  0  0
   10.2860   12.0020   24.2810 C   0  0  0  0  0  0  0  0  0  0  0  0
    7.1830   12.6660   26.0590 C   0  0  0  0  0  0  0  0  0  0  0  0
    7.0080   14.0200   26.2260 O   0  0  0  0  0  0  0  0  0  0  0  0
    6.3020   11.7500   26.6320 C   0  0  0  0  0  0  0  0  0  0  0  0
    6.4550   10.3920   26.3910 C   0  0  0  0  0  0  0  0  0  0  0  0
    7.4970    9.9310   25.6050 C   0  0  0  0  0  0  0  0  0  0  0  0
 11  9  1  0
 10  9  2  0
  8  9  1  6
  8  6  1  0
  6  5  1  0
  5  4  1  0
  4  3  1  0
  3  2  1  0
  2  1  2  0
 12  2  1  1
 12 16  1  0
 16 15  1  0
 15 14  1  0
 14 21  2  0
 21 20  1  0
 20 19  2  0
 19 17  1  0
 18 17  1  0
 17 13  2  0
 14 13  1  0
 13 12  1  0
  7  3  1  0
  8  7  1  0
M  END
>  <id>  (372) 
372

>  <inchikey>  (372) 
ICZSVGPDCFQROW-RYUDHWBXSA-N

>  <alias>  (372) 
A4456b

>  <smiles>  (372) 
NC(=O)[C@H]1CCCN(C(=O)[C@H]2CCc3cccc(O)c32)C1

>  <path>  (372) 
/opt/xchem-fragalysis-2/maxwin/BulkDock/TARGETS/A71EV2A/aligned_files/A4456b/A4456b.pdb

>  <distance_score>  (372) 
None

>  <energy_score>  (372) 
None

>  <compound>  (372) 
ICZSVGPDCFQROW-UHFFFAOYSA-N

>  <compound_id>  (372) 
284

>  <target>  (372) 
A71EV2A

>  <tags>  (372) 
['GOOD count', 'MEDIOCRE count', '[Other] S1 site', 'hits', '[Other] S2 site', '[Other] P3 compound design', '[Other] upload_1 2025-02-12', 'Main status', '[Series] Piperidine series', 'BAD count']

>  <inspirations>  (372) 
None

>  <subsites>  (372) 
None

>  <reference>  (372) 


>  <observation_longname>  (372) 
A71EV2A-x4456_C_201_v1

>  <ConformerSites alias>  (372) 
1b - A0911/A/147

>  <CanonSites alias>  (372) 
1 - Active Site

>  <CrystalformSites alias>  (372) 
F7r - A4303/C/201

>  <Quatassemblies alias>  (372) 
A1 - monomer

>  <Crystalforms alias>  (372) 
F7 - A712A_x4207_8.1_refmac1_1st_ref

>  <ConformerSites upload name>  (372) 
1b - A71EV2A-x0911/A/147

>  <CanonSites upload name>  (372) 
1 - A71EV2A-x0911/A/147/1

>  <CrystalformSites upload name>  (372) 
F7r - A71EV2A-x4303/C/201/1

>  <Quatassemblies upload name>  (372) 
A1 - monomer

>  <Crystalforms upload name>  (372) 
F7 - A712A_x4207_8.1_refmac1_1st_ref

>  <ConformerSites short tag>  (372) 
1b - A0911/A/147

>  <CanonSites short tag>  (372) 
1 - A0911/A/147/1

>  <CrystalformSites short tag>  (372) 
F7r - A4303/C/201

>  <Quatassemblies short tag>  (372) 
A1 - monomer

>  <Crystalforms short tag>  (372) 
F7 - A712A_x4207_8.1_refmac1_1st_ref

>  <Centroid res>  (372) 
A71EV2A-x0911/A/133/A_v1

>  <Experiment code>  (372) 
A71EV2A-x4456

>  <Pose>  (372) 
A4456a

$$$$
A4461a
     RDKit          3D

 19 20  0  0  0  0  0  0  0  0999 V2000
    9.2990   10.1620   23.6400 Cl  0  0  0  0  0  0  0  0  0  0  0  0
    8.1590   10.6910   24.8350 C   0  0  0  0  0  0  0  0  0  0  0  0
    7.2830    9.7780   25.3980 C   0  0  0  0  0  0  0  0  0  0  0  0
    6.3520   10.1230   26.2960 N   0  0  0  0  0  0  0  0  0  0  0  0
    6.3000   11.4090   26.6490 C   0  0  0  0  0  0  0  0  0  0  0  0
    7.1430   12.3790   26.1430 C   0  0  0  0  0  0  0  0  0  0  0  0
    8.1100   12.0290   25.2060 C   0  0  0  0  0  0  0  0  0  0  0  0
    9.1100   13.0470   24.7090 C   0  0  0  0  0  0  0  0  0  0  0  0
    8.7530   13.6340   23.3540 C   0  0  0  0  0  0  0  0  0  0  0  0
    7.8250   13.1990   22.6870 O   0  0  0  0  0  0  0  0  0  0  0  0
    9.5220   14.6640   22.9330 N   0  0  0  0  0  0  0  0  0  0  0  0
   10.4950   15.3860   23.7680 C   0  0  0  0  0  0  0  0  0  0  0  0
   11.8880   15.2980   23.1660 C   0  0  0  0  0  0  0  0  0  0  0  0
   11.8820   15.7580   21.7040 C   0  0  0  0  0  0  0  0  0  0  0  0
    9.4450   15.1690   21.5590 C   0  0  0  0  0  0  0  0  0  0  0  0
   10.8090   15.0340   20.8720 C   0  0  1  0  0  0  0  0  0  0  0  0
   10.7800   15.5440   19.4400 C   0  0  0  0  0  0  0  0  0  0  0  0
   10.5310   16.7240   19.1860 O   0  0  0  0  0  0  0  0  0  0  0  0
   11.0280   14.6480   18.5020 N   0  0  0  0  0  0  0  0  0  0  0  0
 19 17  1  0
 18 17  2  0
 16 17  1  6
 16 14  1  0
 14 13  1  0
 13 12  1  0
 12 11  1  0
 11  9  1  0
 10  9  2  0
  9  8  1  0
  8  7  1  0
  7  6  2  0
  6  5  1  0
  5  4  2  0
  4  3  1  0
  3  2  2  0
  7  2  1  0
  2  1  1  0
 15 11  1  0
 16 15  1  0
M  END
>  <id>  (373) 
373

>  <inchikey>  (373) 
KLQSXSCJLXMZBZ-JTQLQIEISA-N

>  <alias>  (373) 
A4461a

>  <smiles>  (373) 
NC(=O)[C@H]1CCCN(C(=O)Cc2ccncc2Cl)C1

>  <path>  (373) 
/opt/xchem-fragalysis-2/maxwin/BulkDock/TARGETS/A71EV2A/aligned_files/A4461a/A4461a.pdb

>  <distance_score>  (373) 
None

>  <energy_score>  (373) 
None

>  <compound>  (373) 
KLQSXSCJLXMZBZ-UHFFFAOYSA-N

>  <compound_id>  (373) 
285

>  <target>  (373) 
A71EV2A

>  <tags>  (373) 
['GOOD count', 'MEDIOCRE count', '[Other] S1 site', 'hits', '[Other] S2 site', '[Other] P3 compound design', '[Other] upload_1 2025-02-12', 'Main status', '[Series] Piperidine series', 'BAD count']

>  <inspirations>  (373) 
None

>  <subsites>  (373) 
None

>  <reference>  (373) 


>  <observation_longname>  (373) 
A71EV2A-x4461_A_201_v1

>  <ConformerSites alias>  (373) 
1b - A0911/A/147

>  <CanonSites alias>  (373) 
1 - Active Site

>  <CrystalformSites alias>  (373) 
F8h - A0884/A/147

>  <Quatassemblies alias>  (373) 
A1 - monomer

>  <Crystalforms alias>  (373) 
F8 - A712A_x4271_2.1_refmac1_1st_ref

>  <ConformerSites upload name>  (373) 
1b - A71EV2A-x0911/A/147

>  <CanonSites upload name>  (373) 
1 - A71EV2A-x0911/A/147/1

>  <CrystalformSites upload name>  (373) 
F8h - A71EV2A-x0884/A/147/1

>  <Quatassemblies upload name>  (373) 
A1 - monomer

>  <Crystalforms upload name>  (373) 
F8 - A712A_x4271_2.1_refmac1_1st_ref

>  <ConformerSites short tag>  (373) 
1b - A0911/A/147

>  <CanonSites short tag>  (373) 
1 - A0911/A/147/1

>  <CrystalformSites short tag>  (373) 
F8h - A0884/A/147

>  <Quatassemblies short tag>  (373) 
A1 - monomer

>  <Crystalforms short tag>  (373) 
F8 - A712A_x4271_2.1_refmac1_1st_ref

>  <Centroid res>  (373) 
A71EV2A-x0911/A/133/A_v1

>  <Experiment code>  (373) 
A71EV2A-x4461

>  <Pose>  (373) 
A4461a

$$$$
A4463a
     RDKit          3D

 21 23  0  0  0  0  0  0  0  0999 V2000
    7.9580   13.3260   22.6900 O   0  0  0  0  0  0  0  0  0  0  0  0
    8.7580   13.8810   23.4280 C   0  0  0  0  0  0  0  0  0  0  0  0
    9.5530   14.8890   23.0000 N   0  0  0  0  0  0  0  0  0  0  0  0
   10.6110   15.5300   23.7970 C   0  0  0  0  0  0  0  0  0  0  0  0
   11.9720   15.3030   23.1500 C   0  0  0  0  0  0  0  0  0  0  0  0
   11.9650   15.7180   21.6710 C   0  0  0  0  0  0  0  0  0  0  0  0
    9.4790   15.4070   21.6290 C   0  0  0  0  0  0  0  0  0  0  0  0
   10.7880   15.1000   20.8890 C   0  0  1  0  0  0  0  0  0  0  0  0
   10.7640   15.5670   19.4410 C   0  0  0  0  0  0  0  0  0  0  0  0
   10.4130   16.7140   19.1430 O   0  0  0  0  0  0  0  0  0  0  0  0
   11.1020   14.6670   18.5360 N   0  0  0  0  0  0  0  0  0  0  0  0
    8.9030   13.4610   24.8800 C   0  0  0  0  0  0  0  0  0  0  0  0
    8.2190   12.1400   25.1580 C   0  0  0  0  0  0  0  0  0  0  0  0
    8.6390   10.9580   24.5160 C   0  0  0  0  0  0  0  0  0  0  0  0
    9.6720   10.8090   23.6390 N   0  0  0  0  0  0  0  0  0  0  0  0
    9.7270    9.2000   23.2620 S   0  0  0  0  0  0  0  0  0  0  0  0
    8.4550    8.6770   24.1620 N   0  0  0  0  0  0  0  0  0  0  0  0
    7.9490    9.7410   24.7990 C   0  0  0  0  0  0  0  0  0  0  0  0
    6.8570    9.7280   25.6810 C   0  0  0  0  0  0  0  0  0  0  0  0
    6.4710   10.8990   26.3020 C   0  0  0  0  0  0  0  0  0  0  0  0
    7.1500   12.0810   26.0520 C   0  0  0  0  0  0  0  0  0  0  0  0
 11  9  1  0
 10  9  2  0
  8  9  1  6
  8  6  1  0
  6  5  1  0
  5  4  1  0
  4  3  1  0
  3  2  1  0
  2  1  2  0
 12  2  1  0
 13 12  1  0
 13 21  2  0
 21 20  1  0
 20 19  2  0
 19 18  1  0
 18 17  2  0
 17 16  1  0
 16 15  1  0
 15 14  2  0
 14 13  1  0
 18 14  1  0
  7  3  1  0
  8  7  1  0
M  END
>  <id>  (374) 
374

>  <inchikey>  (374) 
MSPQKNPSTZGBCJ-JTQLQIEISA-N

>  <alias>  (374) 
A4463a

>  <smiles>  (374) 
NC(=O)[C@H]1CCCN(C(=O)Cc2cccc3nsnc23)C1

>  <path>  (374) 
/opt/xchem-fragalysis-2/maxwin/BulkDock/TARGETS/A71EV2A/aligned_files/A4463a/A4463a.pdb

>  <distance_score>  (374) 
None

>  <energy_score>  (374) 
None

>  <compound>  (374) 
MSPQKNPSTZGBCJ-UHFFFAOYSA-N

>  <compound_id>  (374) 
286

>  <target>  (374) 
A71EV2A

>  <tags>  (374) 
['GOOD count', 'MEDIOCRE count', '[Other] S1 site', 'hits', '[Other] S2 site', '[Other] P3 compound design', '[Other] upload_1 2025-02-12', 'Main status', '[Series] Piperidine series', 'BAD count']

>  <inspirations>  (374) 
None

>  <subsites>  (374) 
None

>  <reference>  (374) 


>  <observation_longname>  (374) 
A71EV2A-x4463_A_201_v1

>  <ConformerSites alias>  (374) 
1b - A0911/A/147

>  <CanonSites alias>  (374) 
1 - Active Site

>  <CrystalformSites alias>  (374) 
F8h - A0884/A/147

>  <Quatassemblies alias>  (374) 
A1 - monomer

>  <Crystalforms alias>  (374) 
F8 - A712A_x4271_2.1_refmac1_1st_ref

>  <ConformerSites upload name>  (374) 
1b - A71EV2A-x0911/A/147

>  <CanonSites upload name>  (374) 
1 - A71EV2A-x0911/A/147/1

>  <CrystalformSites upload name>  (374) 
F8h - A71EV2A-x0884/A/147/1

>  <Quatassemblies upload name>  (374) 
A1 - monomer

>  <Crystalforms upload name>  (374) 
F8 - A712A_x4271_2.1_refmac1_1st_ref

>  <ConformerSites short tag>  (374) 
1b - A0911/A/147

>  <CanonSites short tag>  (374) 
1 - A0911/A/147/1

>  <CrystalformSites short tag>  (374) 
F8h - A0884/A/147

>  <Quatassemblies short tag>  (374) 
A1 - monomer

>  <Crystalforms short tag>  (374) 
F8 - A712A_x4271_2.1_refmac1_1st_ref

>  <Centroid res>  (374) 
A71EV2A-x0911/A/133/A_v1

>  <Experiment code>  (374) 
A71EV2A-x4463

>  <Pose>  (374) 
A4463a

$$$$
A4464a
     RDKit          3D

 20 21  0  0  0  0  0  0  0  0999 V2000
   10.4620   16.7240   19.2400 O   0  0  0  0  0  0  0  0  0  0  0  0
   10.8100   15.5530   19.4070 C   0  0  0  0  0  0  0  0  0  0  0  0
   11.0420   14.7290   18.4050 N   0  0  0  0  0  0  0  0  0  0  0  0
   10.9420   14.9600   20.8010 C   0  0  1  0  0  0  0  0  0  0  0  0
   12.0360   15.6630   21.6280 C   0  0  0  0  0  0  0  0  0  0  0  0
   12.1840   15.0330   23.0200 C   0  0  0  0  0  0  0  0  0  0  0  0
   10.8540   15.0000   23.7580 C   0  0  0  0  0  0  0  0  0  0  0  0
    9.6460   15.0830   21.6080 C   0  0  0  0  0  0  0  0  0  0  0  0
    9.7990   14.4210   22.9080 N   0  0  0  0  0  0  0  0  0  0  0  0
    8.9970   13.3930   23.2670 C   0  0  0  0  0  0  0  0  0  0  0  0
    8.0410   13.0350   22.5870 O   0  0  0  0  0  0  0  0  0  0  0  0
    9.3380   12.6990   24.5700 C   0  0  0  0  0  0  0  0  0  0  0  0
    8.2800   11.6960   24.9750 C   0  0  0  0  0  0  0  0  0  0  0  0
    8.4020   10.3550   24.6180 C   0  0  0  0  0  0  0  0  0  0  0  0
    9.4980    9.8700   23.7160 C   0  0  0  0  0  0  0  0  0  0  0  0
    7.2080   12.0580   25.7880 C   0  0  0  0  0  0  0  0  0  0  0  0
    6.9560   13.4840   26.1860 C   0  0  0  0  0  0  0  0  0  0  0  0
    6.3430   11.1480   26.2550 N   0  0  0  0  0  0  0  0  0  0  0  0
    6.5850    9.8940   25.8770 C   0  0  0  0  0  0  0  0  0  0  0  0
    7.5500    9.4340   25.0770 N   0  0  0  0  0  0  0  0  0  0  0  0
 15 14  1  0
 14 20  2  0
 20 19  1  0
 19 18  2  0
 18 16  1  0
 17 16  1  0
 16 13  2  0
 14 13  1  0
 13 12  1  0
 12 10  1  0
 11 10  2  0
 10  9  1  0
  9  7  1  0
  7  6  1  0
  6  5  1  0
  5  4  1  0
  4  2  1  6
  3  2  1  0
  2  1  2  0
  8  4  1  0
  9  8  1  0
M  END
>  <id>  (375) 
375

>  <inchikey>  (375) 
YTDTZVUMJMJXOJ-NSHDSACASA-N

>  <alias>  (375) 
A4464a

>  <smiles>  (375) 
Cc1ncnc(C)c1CC(=O)N1CCC[C@H](C(N)=O)C1

>  <path>  (375) 
/opt/xchem-fragalysis-2/maxwin/BulkDock/TARGETS/A71EV2A/aligned_files/A4464a/A4464a.pdb

>  <distance_score>  (375) 
None

>  <energy_score>  (375) 
None

>  <compound>  (375) 
YTDTZVUMJMJXOJ-UHFFFAOYSA-N

>  <compound_id>  (375) 
287

>  <target>  (375) 
A71EV2A

>  <tags>  (375) 
['GOOD count', 'MEDIOCRE count', '[Other] S1 site', 'hits', '[Other] S2 site', '[Other] P3 compound design', '[Other] upload_1 2025-02-12', 'Main status', '[Series] Piperidine series', 'BAD count']

>  <inspirations>  (375) 
None

>  <subsites>  (375) 
None

>  <reference>  (375) 


>  <observation_longname>  (375) 
A71EV2A-x4464_A_201_v1

>  <ConformerSites alias>  (375) 
1b - A0911/A/147

>  <CanonSites alias>  (375) 
1 - Active Site

>  <CrystalformSites alias>  (375) 
F8h - A0884/A/147

>  <Quatassemblies alias>  (375) 
A1 - monomer

>  <Crystalforms alias>  (375) 
F8 - A712A_x4271_2.1_refmac1_1st_ref

>  <ConformerSites upload name>  (375) 
1b - A71EV2A-x0911/A/147

>  <CanonSites upload name>  (375) 
1 - A71EV2A-x0911/A/147/1

>  <CrystalformSites upload name>  (375) 
F8h - A71EV2A-x0884/A/147/1

>  <Quatassemblies upload name>  (375) 
A1 - monomer

>  <Crystalforms upload name>  (375) 
F8 - A712A_x4271_2.1_refmac1_1st_ref

>  <ConformerSites short tag>  (375) 
1b - A0911/A/147

>  <CanonSites short tag>  (375) 
1 - A0911/A/147/1

>  <CrystalformSites short tag>  (375) 
F8h - A0884/A/147

>  <Quatassemblies short tag>  (375) 
A1 - monomer

>  <Crystalforms short tag>  (375) 
F8 - A712A_x4271_2.1_refmac1_1st_ref

>  <Centroid res>  (375) 
A71EV2A-x0911/A/133/A_v1

>  <Experiment code>  (375) 
A71EV2A-x4464

>  <Pose>  (375) 
A4464a

$$$$
A4467a
     RDKit          3D

 21 23  0  0  0  0  0  0  0  0999 V2000
    7.2040   13.0360   22.5250 O   0  0  0  0  0  0  0  0  0  0  0  0
    7.9360   13.6260   23.2850 C   0  0  0  0  0  0  0  0  0  0  0  0
    8.8820   14.4770   22.8420 N   0  0  0  0  0  0  0  0  0  0  0  0
   10.0130   14.9470   23.6580 C   0  0  0  0  0  0  0  0  0  0  0  0
   11.3660   14.6840   23.0510 C   0  0  0  0  0  0  0  0  0  0  0  0
   11.4170   15.1480   21.6280 C   0  0  0  0  0  0  0  0  0  0  0  0
    8.8800   15.1310   21.5410 C   0  0  0  0  0  0  0  0  0  0  0  0
   10.1690   14.7380   20.8320 C   0  0  1  0  0  0  0  0  0  0  0  0
   10.1880   15.2770   19.4120 C   0  0  0  0  0  0  0  0  0  0  0  0
    9.8420   16.4040   19.1350 O   0  0  0  0  0  0  0  0  0  0  0  0
   10.3610   14.3810   18.4990 N   0  0  0  0  0  0  0  0  0  0  0  0
    7.7220   13.4110   24.8180 C   0  0  0  0  0  0  0  0  0  0  0  0
    8.3540   14.1710   25.9900 C   0  0  0  0  0  0  0  0  0  0  0  0
    7.2710   14.3390   27.0700 C   0  0  0  0  0  0  0  0  0  0  0  0
    6.0110   13.6290   26.6020 C   0  0  0  0  0  0  0  0  0  0  0  0
    6.1980   13.4350   25.0570 C   0  0  0  0  0  0  0  0  0  0  0  0
    8.3560   12.0540   24.9500 N   0  0  0  0  0  0  0  0  0  0  0  0
    9.6710   11.7350   25.0570 N   0  0  0  0  0  0  0  0  0  0  0  0
    9.6730   10.4190   25.0970 C   0  0  0  0  0  0  0  0  0  0  0  0
    8.3890    9.8950   25.0510 C   0  0  0  0  0  0  0  0  0  0  0  0
    7.5750   10.9570   24.9100 C   0  0  0  0  0  0  0  0  0  0  0  0
 11  9  1  0
 10  9  2  0
  8  9  1  6
  8  6  1  0
  6  5  1  0
  5  4  1  0
  4  3  1  0
  3  2  1  0
  2  1  2  0
 12  2  1  0
 17 12  1  0
 17 21  1  0
 21 20  2  0
 20 19  1  0
 19 18  2  0
 18 17  1  0
 12 16  1  0
 16 15  1  0
 15 14  1  0
 14 13  1  0
 13 12  1  0
  7  3  1  0
  8  7  1  0
M  END
>  <id>  (376) 
376

>  <inchikey>  (376) 
YQFLIUDOUNFRNX-LBPRGKRZSA-N

>  <alias>  (376) 
A4467a

>  <smiles>  (376) 
NC(=O)[C@H]1CCCN(C(=O)C2(n3cccn3)CCCC2)C1

>  <path>  (376) 
/opt/xchem-fragalysis-2/maxwin/BulkDock/TARGETS/A71EV2A/aligned_files/A4467a/A4467a.pdb

>  <distance_score>  (376) 
None

>  <energy_score>  (376) 
None

>  <compound>  (376) 
YQFLIUDOUNFRNX-UHFFFAOYSA-N

>  <compound_id>  (376) 
288

>  <target>  (376) 
A71EV2A

>  <tags>  (376) 
['GOOD count', 'MEDIOCRE count', '[Other] S1 site', 'hits', '[Other] upload_3 2025-03-06', '[Other] S2 site', '[Other] P3 compound design', '[Series] Piperidine series', 'Main status', 'BAD count']

>  <inspirations>  (376) 
None

>  <subsites>  (376) 
None

>  <reference>  (376) 


>  <observation_longname>  (376) 
A71EV2A-x4467_A_201_v3

>  <ConformerSites alias>  (376) 
1b - A0911/A/147

>  <CanonSites alias>  (376) 
1 - Active Site

>  <CrystalformSites alias>  (376) 
F5i - A3175/A/201

>  <Quatassemblies alias>  (376) 
A1 - monomer

>  <Crystalforms alias>  (376) 
F5 - A71EV2A_x3178_new_long_dials_041024

>  <ConformerSites upload name>  (376) 
1b - A71EV2A-x0911/A/147

>  <CanonSites upload name>  (376) 
1 - A71EV2A-x0911/A/147/1

>  <CrystalformSites upload name>  (376) 
F5i - A71EV2A-x3175/A/201/1

>  <Quatassemblies upload name>  (376) 
A1 - monomer

>  <Crystalforms upload name>  (376) 
F5 - A71EV2A_x3178_new_long_dials_041024

>  <ConformerSites short tag>  (376) 
1b - A0911/A/147

>  <CanonSites short tag>  (376) 
1 - A0911/A/147/1

>  <CrystalformSites short tag>  (376) 
F5i - A3175/A/201

>  <Quatassemblies short tag>  (376) 
A1 - monomer

>  <Crystalforms short tag>  (376) 
F5 - A71EV2A_x3178_new_long_dials_041024

>  <Centroid res>  (376) 
A71EV2A-x0911/A/133/A_v1

>  <Experiment code>  (376) 
A71EV2A-x4467

>  <Pose>  (376) 
A4467a

$$$$
A4472a
     RDKit          3D

 19 21  0  0  0  0  0  0  0  0999 V2000
    7.6410   13.0950   22.7760 O   0  0  0  0  0  0  0  0  0  0  0  0
    8.4620   13.6540   23.4720 C   0  0  0  0  0  0  0  0  0  0  0  0
    8.3820   13.5660   24.9950 C   0  0  2  0  0  0  0  0  0  0  0  0
    7.4830   12.4770   25.5310 C   0  0  0  0  0  0  0  0  0  0  0  0
    7.5840   11.1260   25.6760 N   0  0  0  0  0  0  0  0  0  0  0  0
    6.6260   10.5990   26.3710 N   0  0  0  0  0  0  0  0  0  0  0  0
    5.5240   11.7600   26.8960 S   0  0  0  0  0  0  0  0  0  0  0  0
    6.3910   13.0120   26.1420 C   0  0  0  0  0  0  0  0  0  0  0  0
    6.3360   14.4990   25.9940 C   0  0  0  0  0  0  0  0  0  0  0  0
    7.7840   14.8330   25.6590 C   0  0  0  0  0  0  0  0  0  0  0  0
    9.3980   14.4540   22.9230 N   0  0  0  0  0  0  0  0  0  0  0  0
   10.5610   14.9420   23.6890 C   0  0  0  0  0  0  0  0  0  0  0  0
   11.8470   14.8560   22.8890 C   0  0  0  0  0  0  0  0  0  0  0  0
   11.6570   15.5040   21.5280 C   0  0  0  0  0  0  0  0  0  0  0  0
    9.2400   14.9620   21.5500 C   0  0  0  0  0  0  0  0  0  0  0  0
   10.5360   14.7850   20.7600 C   0  0  1  0  0  0  0  0  0  0  0  0
   10.4810   15.2540   19.3170 C   0  0  0  0  0  0  0  0  0  0  0  0
    9.9880   16.3480   19.0240 O   0  0  0  0  0  0  0  0  0  0  0  0
   11.0900   14.4800   18.4340 N   0  0  0  0  0  0  0  0  0  0  0  0
 19 17  1  0
 18 17  2  0
 16 17  1  6
 16 14  1  0
 14 13  1  0
 13 12  1  0
 12 11  1  0
 11  2  1  0
  2  1  2  0
  3  2  1  6
  3 10  1  0
 10  9  1  0
  9  8  1  0
  8  7  1  0
  7  6  1  0
  6  5  2  0
  5  4  1  0
  8  4  2  0
  4  3  1  0
 15 11  1  0
 16 15  1  0
M  END
>  <id>  (377) 
377

>  <inchikey>  (377) 
FSHIEOXXSXYCQT-YUMQZZPRSA-N

>  <alias>  (377) 
A4472a

>  <smiles>  (377) 
NC(=O)[C@H]1CCCN(C(=O)[C@H]2CCc3snnc32)C1

>  <path>  (377) 
/opt/xchem-fragalysis-2/maxwin/BulkDock/TARGETS/A71EV2A/aligned_files/A4472a/A4472a.pdb

>  <distance_score>  (377) 
None

>  <energy_score>  (377) 
None

>  <compound>  (377) 
FSHIEOXXSXYCQT-UHFFFAOYSA-N

>  <compound_id>  (377) 
289

>  <target>  (377) 
A71EV2A

>  <tags>  (377) 
['GOOD count', 'MEDIOCRE count', '[Other] S1 site', 'hits', '[Other] upload_3 2025-03-06', '[Other] S2 site', '[Other] P3 compound design', '[Series] Piperidine series', 'Main status', 'BAD count']

>  <inspirations>  (377) 
None

>  <subsites>  (377) 
None

>  <reference>  (377) 


>  <observation_longname>  (377) 
A71EV2A-x4472_A_201_v3

>  <ConformerSites alias>  (377) 
1b - A0911/A/147

>  <CanonSites alias>  (377) 
1 - Active Site

>  <CrystalformSites alias>  (377) 
F5i - A3175/A/201

>  <Quatassemblies alias>  (377) 
A1 - monomer

>  <Crystalforms alias>  (377) 
F5 - A71EV2A_x3178_new_long_dials_041024

>  <ConformerSites upload name>  (377) 
1b - A71EV2A-x0911/A/147

>  <CanonSites upload name>  (377) 
1 - A71EV2A-x0911/A/147/1

>  <CrystalformSites upload name>  (377) 
F5i - A71EV2A-x3175/A/201/1

>  <Quatassemblies upload name>  (377) 
A1 - monomer

>  <Crystalforms upload name>  (377) 
F5 - A71EV2A_x3178_new_long_dials_041024

>  <ConformerSites short tag>  (377) 
1b - A0911/A/147

>  <CanonSites short tag>  (377) 
1 - A0911/A/147/1

>  <CrystalformSites short tag>  (377) 
F5i - A3175/A/201

>  <Quatassemblies short tag>  (377) 
A1 - monomer

>  <Crystalforms short tag>  (377) 
F5 - A71EV2A_x3178_new_long_dials_041024

>  <Centroid res>  (377) 
A71EV2A-x0911/A/133/A_v1

>  <Experiment code>  (377) 
A71EV2A-x4472

>  <Pose>  (377) 
A4472a

$$$$
A4476a
     RDKit          3D

 21 23  0  0  0  0  0  0  0  0999 V2000
   10.2470   16.7230   18.9160 O   0  0  0  0  0  0  0  0  0  0  0  0
   10.5680   15.5890   19.2750 C   0  0  0  0  0  0  0  0  0  0  0  0
   10.9750   14.6490   18.4360 N   0  0  0  0  0  0  0  0  0  0  0  0
   10.5730   15.2300   20.7210 C   0  0  2  0  0  0  0  0  0  0  0  0
    9.3410   14.5250   21.3190 C   0  0  0  0  0  0  0  0  0  0  0  0
   10.7180   16.3810   21.7190 C   0  0  0  0  0  0  0  0  0  0  0  0
   10.7340   15.5030   22.9690 C   0  0  2  0  0  0  0  0  0  0  0  0
   11.8250   14.4620   22.6880 C   0  0  0  0  0  0  0  0  0  0  0  0
   11.7820   14.3440   21.1440 C   0  0  0  0  0  0  0  0  0  0  0  0
    9.5590   14.6370   22.7680 N   0  0  0  0  0  0  0  0  0  0  0  0
    8.7630   14.2260   23.7660 C   0  0  0  0  0  0  0  0  0  0  0  0
    9.0220   14.4720   24.9380 O   0  0  0  0  0  0  0  0  0  0  0  0
    7.5180   13.4610   23.3650 C   0  0  0  0  0  0  0  0  0  0  0  0
    7.1360   12.4380   24.4110 C   0  0  0  0  0  0  0  0  0  0  0  0
    7.6090   11.1290   24.3160 C   0  0  0  0  0  0  0  0  0  0  0  0
    8.5790   10.9390   23.3690 O   0  0  0  0  0  0  0  0  0  0  0  0
    9.5340    9.8990   23.5810 C   0  0  0  0  0  0  0  0  0  0  0  0
    6.2160   12.7340   25.4120 C   0  0  0  0  0  0  0  0  0  0  0  0
    5.7440   11.7460   26.2600 C   0  0  0  0  0  0  0  0  0  0  0  0
    6.1850   10.4500   26.1220 C   0  0  0  0  0  0  0  0  0  0  0  0
    7.1170   10.1300   25.1440 C   0  0  0  0  0  0  0  0  0  0  0  0
 17 16  1  0
 16 15  1  0
 15 21  2  0
 21 20  1  0
 20 19  2  0
 19 18  1  0
 18 14  2  0
 15 14  1  0
 14 13  1  0
 13 11  1  0
 12 11  2  0
 11 10  1  0
 10  5  1  0
  5  4  1  0
  4  2  1  6
  3  2  1  0
  2  1  2  0
  4  9  1  0
  9  8  1  0
  7  8  1  6
 10  7  1  0
  7  6  1  0
  6  4  1  0
M  END
>  <id>  (378) 
378

>  <inchikey>  (378) 
SHHPINGYNRIYNK-LRDDRELGSA-N

>  <alias>  (378) 
A4476a

>  <smiles>  (378) 
COc1ccccc1CC(=O)N1C[C@]2(C(N)=O)CC[C@H]1C2

>  <path>  (378) 
/opt/xchem-fragalysis-2/maxwin/BulkDock/TARGETS/A71EV2A/aligned_files/A4476a/A4476a.pdb

>  <distance_score>  (378) 
None

>  <energy_score>  (378) 
None

>  <compound>  (378) 
SHHPINGYNRIYNK-UHFFFAOYSA-N

>  <compound_id>  (378) 
290

>  <target>  (378) 
A71EV2A

>  <tags>  (378) 
['GOOD count', 'MEDIOCRE count', '[Other] S1 site', 'hits', '[Other] S2 site', '[Other] P3 compound design', '[Other] upload_1 2025-02-12', 'Main status', 'BAD count']

>  <inspirations>  (378) 
None

>  <subsites>  (378) 
None

>  <reference>  (378) 


>  <observation_longname>  (378) 
A71EV2A-x4476_A_201_v1

>  <ConformerSites alias>  (378) 
1b - A0911/A/147

>  <CanonSites alias>  (378) 
1 - Active Site

>  <CrystalformSites alias>  (378) 
F5i - A3175/A/201

>  <Quatassemblies alias>  (378) 
A1 - monomer

>  <Crystalforms alias>  (378) 
F5 - A71EV2A_x3178_new_long_dials_041024

>  <ConformerSites upload name>  (378) 
1b - A71EV2A-x0911/A/147

>  <CanonSites upload name>  (378) 
1 - A71EV2A-x0911/A/147/1

>  <CrystalformSites upload name>  (378) 
F5i - A71EV2A-x3175/A/201/1

>  <Quatassemblies upload name>  (378) 
A1 - monomer

>  <Crystalforms upload name>  (378) 
F5 - A71EV2A_x3178_new_long_dials_041024

>  <ConformerSites short tag>  (378) 
1b - A0911/A/147

>  <CanonSites short tag>  (378) 
1 - A0911/A/147/1

>  <CrystalformSites short tag>  (378) 
F5i - A3175/A/201

>  <Quatassemblies short tag>  (378) 
A1 - monomer

>  <Crystalforms short tag>  (378) 
F5 - A71EV2A_x3178_new_long_dials_041024

>  <Centroid res>  (378) 
A71EV2A-x0911/A/133/A_v1

>  <Experiment code>  (378) 
A71EV2A-x4476

>  <Pose>  (378) 
A4476a

$$$$
A4489a
     RDKit          3D

 19 20  0  0  0  0  0  0  0  0999 V2000
    7.6140   13.3020   22.4970 O   0  0  0  0  0  0  0  0  0  0  0  0
    8.5570   13.6370   23.1890 C   0  0  0  0  0  0  0  0  0  0  0  0
    9.3380   14.6860   22.8680 N   0  0  0  0  0  0  0  0  0  0  0  0
   10.3790   15.2580   23.7370 C   0  0  0  0  0  0  0  0  0  0  0  0
   11.7560   15.1090   23.1210 C   0  0  0  0  0  0  0  0  0  0  0  0
   11.7730   15.6390   21.6860 C   0  0  0  0  0  0  0  0  0  0  0  0
    9.2970   15.2470   21.5160 C   0  0  0  0  0  0  0  0  0  0  0  0
   10.6570   15.0010   20.8540 C   0  0  1  0  0  0  0  0  0  0  0  0
   10.6630   15.5240   19.4290 C   0  0  0  0  0  0  0  0  0  0  0  0
   10.3760   16.6960   19.1770 O   0  0  0  0  0  0  0  0  0  0  0  0
   10.9500   14.6390   18.4940 N   0  0  0  0  0  0  0  0  0  0  0  0
    8.9510   12.9010   24.4560 C   0  0  0  0  0  0  0  0  0  0  0  0
    7.9570   11.8460   24.8740 C   0  0  0  0  0  0  0  0  0  0  0  0
    8.1410   10.4570   24.5770 C   0  0  0  0  0  0  0  0  0  0  0  0
    9.1590   10.0320   23.8080 N   0  0  0  0  0  0  0  0  0  0  0  0
    7.3330    9.5110   25.1000 N   0  0  0  0  0  0  0  0  0  0  0  0
    6.3540    9.8950   25.9330 C   0  0  0  0  0  0  0  0  0  0  0  0
    6.1040   11.2010   26.2620 C   0  0  0  0  0  0  0  0  0  0  0  0
    6.9070   12.1810   25.7190 C   0  0  0  0  0  0  0  0  0  0  0  0
 11  9  1  0
 10  9  2  0
  8  9  1  6
  8  6  1  0
  6  5  1  0
  5  4  1  0
  4  3  1  0
  3  2  1  0
  2  1  2  0
 12  2  1  0
 13 12  1  0
 13 19  2  0
 19 18  1  0
 18 17  2  0
 17 16  1  0
 16 14  2  0
 14 13  1  0
 15 14  1  0
  7  3  1  0
  8  7  1  0
M  END
>  <id>  (379) 
379

>  <inchikey>  (379) 
UWGHAGSZEJRSBU-JTQLQIEISA-N

>  <alias>  (379) 
A4489a

>  <smiles>  (379) 
NC(=O)[C@H]1CCCN(C(=O)Cc2cccnc2N)C1

>  <path>  (379) 
/opt/xchem-fragalysis-2/maxwin/BulkDock/TARGETS/A71EV2A/aligned_files/A4489a/A4489a_hippo.pdb

>  <distance_score>  (379) 
None

>  <energy_score>  (379) 
None

>  <compound>  (379) 
UWGHAGSZEJRSBU-UHFFFAOYSA-N

>  <compound_id>  (379) 
199

>  <target>  (379) 
A71EV2A

>  <tags>  (379) 
['GOOD count', 'MEDIOCRE count', '[Other] S1 site', 'hits', '[Other] S2 site', '[Other] P3 compound design', '[Other] upload_1 2025-02-12', 'Main status', '[Series] Piperidine series', 'BAD count']

>  <inspirations>  (379) 
None

>  <subsites>  (379) 
None

>  <reference>  (379) 


>  <observation_longname>  (379) 
A71EV2A-x4489_A_201_v1

>  <ConformerSites alias>  (379) 
1b - A0911/A/147

>  <CanonSites alias>  (379) 
1 - Active Site

>  <CrystalformSites alias>  (379) 
F7q - A4303/A/201

>  <Quatassemblies alias>  (379) 
A1 - monomer

>  <Crystalforms alias>  (379) 
F7 - A712A_x4207_8.1_refmac1_1st_ref

>  <ConformerSites upload name>  (379) 
1b - A71EV2A-x0911/A/147

>  <CanonSites upload name>  (379) 
1 - A71EV2A-x0911/A/147/1

>  <CrystalformSites upload name>  (379) 
F7q - A71EV2A-x4303/A/201/1

>  <Quatassemblies upload name>  (379) 
A1 - monomer

>  <Crystalforms upload name>  (379) 
F7 - A712A_x4207_8.1_refmac1_1st_ref

>  <ConformerSites short tag>  (379) 
1b - A0911/A/147

>  <CanonSites short tag>  (379) 
1 - A0911/A/147/1

>  <CrystalformSites short tag>  (379) 
F7q - A4303/A/201

>  <Quatassemblies short tag>  (379) 
A1 - monomer

>  <Crystalforms short tag>  (379) 
F7 - A712A_x4207_8.1_refmac1_1st_ref

>  <Centroid res>  (379) 
A71EV2A-x0911/A/133/A_v1

>  <Experiment code>  (379) 
A71EV2A-x4489

>  <Pose>  (379) 
A4489a

$$$$
A4489b
     RDKit          3D

 19 20  0  0  0  0  0  0  0  0999 V2000
    7.8530   13.3190   22.6200 O   0  0  0  0  0  0  0  0  0  0  0  0
    8.8250   13.6770   23.2820 C   0  0  0  0  0  0  0  0  0  0  0  0
    9.5810   14.7410   22.9360 N   0  0  0  0  0  0  0  0  0  0  0  0
   10.6130   15.3850   23.7620 C   0  0  0  0  0  0  0  0  0  0  0  0
   11.9800   15.2660   23.1010 C   0  0  0  0  0  0  0  0  0  0  0  0
   11.9340   15.7700   21.6560 C   0  0  0  0  0  0  0  0  0  0  0  0
    9.4820   15.2840   21.5790 C   0  0  0  0  0  0  0  0  0  0  0  0
   10.8150   15.0660   20.8650 C   0  0  1  0  0  0  0  0  0  0  0  0
   10.7510   15.5590   19.4320 C   0  0  0  0  0  0  0  0  0  0  0  0
   10.4260   16.7270   19.1810 O   0  0  0  0  0  0  0  0  0  0  0  0
   11.0090   14.6470   18.4910 N   0  0  0  0  0  0  0  0  0  0  0  0
    9.2810   12.9490   24.5360 C   0  0  0  0  0  0  0  0  0  0  0  0
    8.3060   11.8810   24.9770 C   0  0  0  0  0  0  0  0  0  0  0  0
    8.4620   10.4960   24.6460 C   0  0  0  0  0  0  0  0  0  0  0  0
    9.4440   10.0730   23.8430 N   0  0  0  0  0  0  0  0  0  0  0  0
    7.6500    9.5500   25.1670 N   0  0  0  0  0  0  0  0  0  0  0  0
    6.6980    9.9320   26.0350 C   0  0  0  0  0  0  0  0  0  0  0  0
    6.4810   11.2330   26.4050 C   0  0  0  0  0  0  0  0  0  0  0  0
    7.2810   12.2140   25.8580 C   0  0  0  0  0  0  0  0  0  0  0  0
 11  9  1  0
 10  9  2  0
  8  9  1  6
  8  6  1  0
  6  5  1  0
  5  4  1  0
  4  3  1  0
  3  2  1  0
  2  1  2  0
 12  2  1  0
 13 12  1  0
 13 19  2  0
 19 18  1  0
 18 17  2  0
 17 16  1  0
 16 14  2  0
 14 13  1  0
 15 14  1  0
  7  3  1  0
  8  7  1  0
M  END
>  <id>  (380) 
380

>  <inchikey>  (380) 
UWGHAGSZEJRSBU-JTQLQIEISA-N

>  <alias>  (380) 
A4489b

>  <smiles>  (380) 
NC(=O)[C@H]1CCCN(C(=O)Cc2cccnc2N)C1

>  <path>  (380) 
/opt/xchem-fragalysis-2/maxwin/BulkDock/TARGETS/A71EV2A/aligned_files/A4489b/A4489b_hippo.pdb

>  <distance_score>  (380) 
None

>  <energy_score>  (380) 
None

>  <compound>  (380) 
UWGHAGSZEJRSBU-UHFFFAOYSA-N

>  <compound_id>  (380) 
199

>  <target>  (380) 
A71EV2A

>  <tags>  (380) 
['GOOD count', 'MEDIOCRE count', '[Other] S1 site', 'hits', '[Other] S2 site', '[Other] P3 compound design', '[Other] upload_1 2025-02-12', 'Main status', '[Series] Piperidine series', 'BAD count']

>  <inspirations>  (380) 
None

>  <subsites>  (380) 
None

>  <reference>  (380) 


>  <observation_longname>  (380) 
A71EV2A-x4489_C_201_v1

>  <ConformerSites alias>  (380) 
1b - A0911/A/147

>  <CanonSites alias>  (380) 
1 - Active Site

>  <CrystalformSites alias>  (380) 
F7r - A4303/C/201

>  <Quatassemblies alias>  (380) 
A1 - monomer

>  <Crystalforms alias>  (380) 
F7 - A712A_x4207_8.1_refmac1_1st_ref

>  <ConformerSites upload name>  (380) 
1b - A71EV2A-x0911/A/147

>  <CanonSites upload name>  (380) 
1 - A71EV2A-x0911/A/147/1

>  <CrystalformSites upload name>  (380) 
F7r - A71EV2A-x4303/C/201/1

>  <Quatassemblies upload name>  (380) 
A1 - monomer

>  <Crystalforms upload name>  (380) 
F7 - A712A_x4207_8.1_refmac1_1st_ref

>  <ConformerSites short tag>  (380) 
1b - A0911/A/147

>  <CanonSites short tag>  (380) 
1 - A0911/A/147/1

>  <CrystalformSites short tag>  (380) 
F7r - A4303/C/201

>  <Quatassemblies short tag>  (380) 
A1 - monomer

>  <Crystalforms short tag>  (380) 
F7 - A712A_x4207_8.1_refmac1_1st_ref

>  <Centroid res>  (380) 
A71EV2A-x0911/A/133/A_v1

>  <Experiment code>  (380) 
A71EV2A-x4489

>  <Pose>  (380) 
A4489a

$$$$
A4490a
     RDKit          3D

 20 22  0  0  0  0  0  0  0  0999 V2000
   11.4170   14.5900   25.0130 O   0  0  0  0  0  0  0  0  0  0  0  0
   11.3000   14.7700   23.8110 C   0  0  0  0  0  0  0  0  0  0  0  0
   12.4560   15.3330   23.0200 C   0  0  0  0  0  0  0  0  0  0  0  0
   12.1190   15.8670   21.6230 C   0  0  0  0  0  0  0  0  0  0  0  0
   10.1320   14.5640   23.1560 N   0  0  0  0  0  0  0  0  0  0  0  0
    9.8750   14.8090   21.7290 C   0  0  0  0  0  0  0  0  0  0  0  0
   11.1660   14.8930   20.9030 C   0  0  1  0  0  0  0  0  0  0  0  0
   10.8990   15.3160   19.4660 C   0  0  0  0  0  0  0  0  0  0  0  0
   11.1370   14.5570   18.5280 O   0  0  0  0  0  0  0  0  0  0  0  0
   10.3510   16.5040   19.2900 N   0  0  0  0  0  0  0  0  0  0  0  0
    8.9470   14.1600   23.9160 C   0  0  0  0  0  0  0  0  0  0  0  0
    8.7800   12.6580   24.0010 C   0  0  0  0  0  0  0  0  0  0  0  0
    7.8120   12.0730   24.8320 C   0  0  0  0  0  0  0  0  0  0  0  0
    6.9120   12.6620   25.6900 N   0  0  0  0  0  0  0  0  0  0  0  0
    6.1630   11.6760   26.2880 C   0  0  0  0  0  0  0  0  0  0  0  0
    6.5590   10.4580   25.8440 C   0  0  0  0  0  0  0  0  0  0  0  0
    7.6340   10.6760   24.9170 C   0  0  0  0  0  0  0  0  0  0  0  0
    8.4830    9.8560   24.1640 C   0  0  0  0  0  0  0  0  0  0  0  0
    9.4640   10.4170   23.3620 C   0  0  0  0  0  0  0  0  0  0  0  0
    9.6060   11.7980   23.2780 C   0  0  0  0  0  0  0  0  0  0  0  0
 10  8  1  0
  9  8  2  0
  7  8  1  6
  7  4  1  0
  4  3  1  0
  3  2  1  0
  2  1  2  0
  5  2  1  0
 11  5  1  0
 12 11  1  0
 12 20  1  0
 20 19  2  0
 19 18  1  0
 18 17  2  0
 17 16  1  0
 16 15  2  0
 15 14  1  0
 14 13  1  0
 13 12  2  0
 17 13  1  0
  6  5  1  0
  7  6  1  0
M  END
>  <id>  (381) 
381

>  <inchikey>  (381) 
RWCNWFREGHVLHP-LBPRGKRZSA-N

>  <alias>  (381) 
A4490a

>  <smiles>  (381) 
NC(=O)[C@H]1CCC(=O)N(Cc2cccc3cc[nH]c23)C1

>  <path>  (381) 
/opt/xchem-fragalysis-2/maxwin/BulkDock/TARGETS/A71EV2A/aligned_files/A4490a/A4490a.pdb

>  <distance_score>  (381) 
None

>  <energy_score>  (381) 
None

>  <compound>  (381) 
RWCNWFREGHVLHP-UHFFFAOYSA-N

>  <compound_id>  (381) 
291

>  <target>  (381) 
A71EV2A

>  <tags>  (381) 
['GOOD count', 'MEDIOCRE count', '[Other] S1 site', 'hits', '[Other] S2 site', '[Other] P3 compound design', '[Other] upload_1 2025-02-12', 'Main status', '[Series] Piperidine series', 'BAD count']

>  <inspirations>  (381) 
None

>  <subsites>  (381) 
None

>  <reference>  (381) 


>  <observation_longname>  (381) 
A71EV2A-x4490_A_201_v1

>  <ConformerSites alias>  (381) 
1b - A0911/A/147

>  <CanonSites alias>  (381) 
1 - Active Site

>  <CrystalformSites alias>  (381) 
F8h - A0884/A/147

>  <Quatassemblies alias>  (381) 
A1 - monomer

>  <Crystalforms alias>  (381) 
F8 - A712A_x4271_2.1_refmac1_1st_ref

>  <ConformerSites upload name>  (381) 
1b - A71EV2A-x0911/A/147

>  <CanonSites upload name>  (381) 
1 - A71EV2A-x0911/A/147/1

>  <CrystalformSites upload name>  (381) 
F8h - A71EV2A-x0884/A/147/1

>  <Quatassemblies upload name>  (381) 
A1 - monomer

>  <Crystalforms upload name>  (381) 
F8 - A712A_x4271_2.1_refmac1_1st_ref

>  <ConformerSites short tag>  (381) 
1b - A0911/A/147

>  <CanonSites short tag>  (381) 
1 - A0911/A/147/1

>  <CrystalformSites short tag>  (381) 
F8h - A0884/A/147

>  <Quatassemblies short tag>  (381) 
A1 - monomer

>  <Crystalforms short tag>  (381) 
F8 - A712A_x4271_2.1_refmac1_1st_ref

>  <Centroid res>  (381) 
A71EV2A-x0911/A/133/A_v1

>  <Experiment code>  (381) 
A71EV2A-x4490

>  <Pose>  (381) 
A4490a

$$$$
A4494a
     RDKit          3D

 22 24  0  0  0  0  0  0  0  0999 V2000
   10.4500   17.1070   19.2550 O   0  0  0  0  0  0  0  0  0  0  0  0
   10.5710   15.9110   19.5280 C   0  0  0  0  0  0  0  0  0  0  0  0
   10.7510   14.9820   18.6050 N   0  0  0  0  0  0  0  0  0  0  0  0
   10.5420   15.4270   20.9690 C   0  0  1  0  0  0  0  0  0  0  0  0
   11.7430   15.9680   21.7410 C   0  0  0  0  0  0  0  0  0  0  0  0
   11.7480   15.4430   23.1720 C   0  0  0  0  0  0  0  0  0  0  0  0
   10.4460   15.7500   23.8710 C   0  0  0  0  0  0  0  0  0  0  0  0
    9.3190   15.9090   21.7510 C   0  0  0  0  0  0  0  0  0  0  0  0
    9.2900   15.3040   23.0850 N   0  0  0  0  0  0  0  0  0  0  0  0
    8.2750   14.4280   23.2950 C   0  0  0  0  0  0  0  0  0  0  0  0
    7.9320   13.6640   22.4230 O   0  0  0  0  0  0  0  0  0  0  0  0
    7.4710   14.4450   24.5840 C   0  0  2  0  0  0  0  0  0  0  0  0
    8.2610   14.9680   25.7770 C   0  0  0  0  0  0  0  0  0  0  0  0
    7.1220   13.0040   24.8990 C   0  0  0  0  0  0  0  0  0  0  0  0
    7.9740   11.8540   24.6160 C   0  0  0  0  0  0  0  0  0  0  0  0
    7.1880   10.7780   24.9890 C   0  0  0  0  0  0  0  0  0  0  0  0
    6.0000   11.2100   25.4820 O   0  0  0  0  0  0  0  0  0  0  0  0
    5.9940   12.6420   25.4010 N   0  0  0  0  0  0  0  0  0  0  0  0
    9.1850   11.5940   23.9790 C   0  0  0  0  0  0  0  0  0  0  0  0
    9.5630   10.2830   23.7300 C   0  0  0  0  0  0  0  0  0  0  0  0
    8.7570    9.2290   24.1230 C   0  0  0  0  0  0  0  0  0  0  0  0
    7.5530    9.4680   24.7640 C   0  0  0  0  0  0  0  0  0  0  0  0
 12 13  1  1
 12 10  1  0
 11 10  2  0
 10  9  1  0
  9  7  1  0
  7  6  1  0
  6  5  1  0
  5  4  1  0
  4  2  1  6
  3  2  1  0
  2  1  2  0
  8  4  1  0
  9  8  1  0
 14 12  1  0
 14 18  2  0
 18 17  1  0
 17 16  1  0
 16 22  2  0
 22 21  1  0
 21 20  2  0
 20 19  1  0
 19 15  2  0
 15 14  1  0
 16 15  1  0
M  END
>  <id>  (382) 
382

>  <inchikey>  (382) 
YGQQTIGGJIFJGJ-MNOVXSKESA-N

>  <alias>  (382) 
A4494a

>  <smiles>  (382) 
C[C@@H](C(=O)N1CCC[C@H](C(N)=O)C1)c1noc2ccccc12

>  <path>  (382) 
/opt/xchem-fragalysis-2/maxwin/BulkDock/TARGETS/A71EV2A/aligned_files/A4494a/A4494a.pdb

>  <distance_score>  (382) 
None

>  <energy_score>  (382) 
None

>  <compound>  (382) 
YGQQTIGGJIFJGJ-UHFFFAOYSA-N

>  <compound_id>  (382) 
292

>  <target>  (382) 
A71EV2A

>  <tags>  (382) 
['GOOD count', 'MEDIOCRE count', '[Other] S1 site', 'hits', '[Other] S2 site', '[Other] upload_6_2025-02-13', '[Other] P3 compound design', '[Series] Piperidine series', 'Main status', 'BAD count']

>  <inspirations>  (382) 
None

>  <subsites>  (382) 
None

>  <reference>  (382) 


>  <observation_longname>  (382) 
A71EV2A-x4494_A_201_v1

>  <ConformerSites alias>  (382) 
1b - A0911/A/147

>  <CanonSites alias>  (382) 
1 - Active Site

>  <CrystalformSites alias>  (382) 
F8h - A0884/A/147

>  <Quatassemblies alias>  (382) 
A1 - monomer

>  <Crystalforms alias>  (382) 
F8 - A712A_x4271_2.1_refmac1_1st_ref

>  <ConformerSites upload name>  (382) 
1b - A71EV2A-x0911/A/147

>  <CanonSites upload name>  (382) 
1 - A71EV2A-x0911/A/147/1

>  <CrystalformSites upload name>  (382) 
F8h - A71EV2A-x0884/A/147/1

>  <Quatassemblies upload name>  (382) 
A1 - monomer

>  <Crystalforms upload name>  (382) 
F8 - A712A_x4271_2.1_refmac1_1st_ref

>  <ConformerSites short tag>  (382) 
1b - A0911/A/147

>  <CanonSites short tag>  (382) 
1 - A0911/A/147/1

>  <CrystalformSites short tag>  (382) 
F8h - A0884/A/147

>  <Quatassemblies short tag>  (382) 
A1 - monomer

>  <Crystalforms short tag>  (382) 
F8 - A712A_x4271_2.1_refmac1_1st_ref

>  <Centroid res>  (382) 
A71EV2A-x0911/A/133/A_v1

>  <Experiment code>  (382) 
A71EV2A-x4494

>  <Pose>  (382) 
A4494a

$$$$
A4496a
     RDKit          3D

 23 25  0  0  0  0  0  0  0  0999 V2000
    8.2130   10.6510   24.5630 F   0  0  0  0  0  0  0  0  0  0  0  0
    9.4630   11.0120   24.3910 C   0  0  0  0  0  0  0  0  0  0  0  0
    9.6600   11.1920   23.1000 F   0  0  0  0  0  0  0  0  0  0  0  0
   10.2190   10.0240   24.7710 F   0  0  0  0  0  0  0  0  0  0  0  0
    9.7690   12.2610   25.1850 N   0  0  0  0  0  0  0  0  0  0  0  0
   10.8860   12.3470   25.9810 N   0  0  0  0  0  0  0  0  0  0  0  0
   10.7690   13.5260   26.5730 C   0  0  0  0  0  0  0  0  0  0  0  0
    9.6240   14.2090   26.1890 C   0  0  0  0  0  0  0  0  0  0  0  0
    8.9880   13.3760   25.2910 C   0  0  0  0  0  0  0  0  0  0  0  0
    7.7460   13.5740   24.6180 C   0  0  0  0  0  0  0  0  0  0  0  0
    6.6540   14.3830   25.3180 C   0  0  0  0  0  0  0  0  0  0  0  0
    6.4670   12.9250   25.1500 C   0  0  0  0  0  0  0  0  0  0  0  0
    7.7920   13.7270   23.0910 C   0  0  0  0  0  0  0  0  0  0  0  0
    7.0150   13.0460   22.4590 O   0  0  0  0  0  0  0  0  0  0  0  0
    8.6020   14.6490   22.5370 N   0  0  0  0  0  0  0  0  0  0  0  0
    9.3890   15.6060   23.3170 C   0  0  0  0  0  0  0  0  0  0  0  0
   10.8630   15.4090   23.0790 C   0  0  0  0  0  0  0  0  0  0  0  0
   11.1740   15.6290   21.6080 C   0  0  0  0  0  0  0  0  0  0  0  0
    8.7700   14.9000   21.1080 C   0  0  0  0  0  0  0  0  0  0  0  0
   10.2430   14.8010   20.7030 C   0  0  1  0  0  0  0  0  0  0  0  0
   10.3500   15.2540   19.2550 C   0  0  0  0  0  0  0  0  0  0  0  0
   10.0080   16.3880   18.9130 O   0  0  0  0  0  0  0  0  0  0  0  0
   10.9310   14.4040   18.4310 N   0  0  0  0  0  0  0  0  0  0  0  0
 23 21  1  0
 22 21  2  0
 20 21  1  6
 20 18  1  0
 18 17  1  0
 17 16  1  0
 16 15  1  0
 15 13  1  0
 14 13  2  0
 13 10  1  0
 10  9  1  0
  9  8  2  0
  8  7  1  0
  7  6  2  0
  6  5  1  0
  9  5  1  0
  5  2  1  0
  3  2  1  0
  4  2  1  0
  2  1  1  0
 10 12  1  0
 12 11  1  0
 11 10  1  0
 19 15  1  0
 20 19  1  0
M  END
>  <id>  (383) 
383

>  <inchikey>  (383) 
QCOUSVMUBLQHPP-VIFPVBQESA-N

>  <alias>  (383) 
A4496a

>  <smiles>  (383) 
NC(=O)[C@H]1CCCN(C(=O)C2(c3ccnn3C(F)(F)F)CC2)C1

>  <path>  (383) 
/opt/xchem-fragalysis-2/maxwin/BulkDock/TARGETS/A71EV2A/aligned_files/A4496a/A4496a.pdb

>  <distance_score>  (383) 
None

>  <energy_score>  (383) 
None

>  <compound>  (383) 
QCOUSVMUBLQHPP-UHFFFAOYSA-N

>  <compound_id>  (383) 
293

>  <target>  (383) 
A71EV2A

>  <tags>  (383) 
['GOOD count', 'MEDIOCRE count', '[Other] S1 site', 'hits', '[Other] S2 site', '[Other] P3 compound design', '[Other] upload_1 2025-02-12', 'Main status', '[Series] Piperidine series', 'BAD count']

>  <inspirations>  (383) 
None

>  <subsites>  (383) 
None

>  <reference>  (383) 


>  <observation_longname>  (383) 
A71EV2A-x4496_A_201_v1

>  <ConformerSites alias>  (383) 
1b - A0911/A/147

>  <CanonSites alias>  (383) 
1 - Active Site

>  <CrystalformSites alias>  (383) 
F5i - A3175/A/201

>  <Quatassemblies alias>  (383) 
A1 - monomer

>  <Crystalforms alias>  (383) 
F5 - A71EV2A_x3178_new_long_dials_041024

>  <ConformerSites upload name>  (383) 
1b - A71EV2A-x0911/A/147

>  <CanonSites upload name>  (383) 
1 - A71EV2A-x0911/A/147/1

>  <CrystalformSites upload name>  (383) 
F5i - A71EV2A-x3175/A/201/1

>  <Quatassemblies upload name>  (383) 
A1 - monomer

>  <Crystalforms upload name>  (383) 
F5 - A71EV2A_x3178_new_long_dials_041024

>  <ConformerSites short tag>  (383) 
1b - A0911/A/147

>  <CanonSites short tag>  (383) 
1 - A0911/A/147/1

>  <CrystalformSites short tag>  (383) 
F5i - A3175/A/201

>  <Quatassemblies short tag>  (383) 
A1 - monomer

>  <Crystalforms short tag>  (383) 
F5 - A71EV2A_x3178_new_long_dials_041024

>  <Centroid res>  (383) 
A71EV2A-x0911/A/133/A_v1

>  <Experiment code>  (383) 
A71EV2A-x4496

>  <Pose>  (383) 
A4496a

$$$$
A4509a
     RDKit          3D

 20 21  0  0  0  0  0  0  0  0999 V2000
    9.9490    9.0240   23.4600 F   0  0  0  0  0  0  0  0  0  0  0  0
    9.1130    9.8720   24.1230 C   0  0  0  0  0  0  0  0  0  0  0  0
    7.9890    9.3800   24.7290 C   0  0  0  0  0  0  0  0  0  0  0  0
    7.1470   10.1830   25.3910 N   0  0  0  0  0  0  0  0  0  0  0  0
    7.4320   11.4920   25.4240 C   0  0  0  0  0  0  0  0  0  0  0  0
    9.4160   11.2040   24.1620 C   0  0  0  0  0  0  0  0  0  0  0  0
    8.5410   12.0650   24.8140 C   0  0  0  0  0  0  0  0  0  0  0  0
    8.7360   13.5690   24.6840 C   0  0  2  0  0  0  0  0  0  0  0  0
    7.7660   14.4370   25.4940 C   0  0  0  0  0  0  0  0  0  0  0  0
    8.6770   13.9580   23.2160 C   0  0  0  0  0  0  0  0  0  0  0  0
    7.8770   13.4230   22.4640 O   0  0  0  0  0  0  0  0  0  0  0  0
    9.5530   14.8910   22.7700 N   0  0  0  0  0  0  0  0  0  0  0  0
    9.4870   15.3750   21.3880 C   0  0  0  0  0  0  0  0  0  0  0  0
   10.8270   15.1380   20.6860 C   0  0  1  0  0  0  0  0  0  0  0  0
   10.7380   15.6520   19.2590 C   0  0  0  0  0  0  0  0  0  0  0  0
   10.8550   14.8850   18.3000 O   0  0  0  0  0  0  0  0  0  0  0  0
   10.5020   16.9470   19.1210 N   0  0  0  0  0  0  0  0  0  0  0  0
   11.9420   15.8460   21.4710 C   0  0  0  0  0  0  0  0  0  0  0  0
   11.9650   15.4120   22.9360 C   0  0  0  0  0  0  0  0  0  0  0  0
   10.5940   15.5590   23.5730 C   0  0  0  0  0  0  0  0  0  0  0  0
  8  9  1  1
 10  8  1  0
 11 10  2  0
 12 10  1  0
 12 20  1  0
 20 19  1  0
 19 18  1  0
 18 14  1  0
 14 15  1  6
 17 15  1  0
 16 15  2  0
 14 13  1  0
 13 12  1  0
  8  7  1  0
  7  5  1  0
  5  4  2  0
  4  3  1  0
  3  2  2  0
  2  1  1  0
  6  2  1  0
  7  6  2  0
M  END
>  <id>  (384) 
384

>  <inchikey>  (384) 
RPBBANSDGLBREC-UWVGGRQHSA-N

>  <alias>  (384) 
A4509a

>  <smiles>  (384) 
C[C@H](C(=O)N1CCC[C@H](C(N)=O)C1)c1cncc(F)c1

>  <path>  (384) 
/opt/xchem-fragalysis-2/maxwin/BulkDock/TARGETS/A71EV2A/aligned_files/A4509a/A4509a.pdb

>  <distance_score>  (384) 
None

>  <energy_score>  (384) 
None

>  <compound>  (384) 
RPBBANSDGLBREC-UHFFFAOYSA-N

>  <compound_id>  (384) 
294

>  <target>  (384) 
A71EV2A

>  <tags>  (384) 
['GOOD count', 'MEDIOCRE count', '[Other] S1 site', 'hits', '[Other] S2 site', '[Other] P3 compound design', '[Other] upload_1 2025-02-12', 'Main status', '[Series] Piperidine series', 'BAD count']

>  <inspirations>  (384) 
None

>  <subsites>  (384) 
None

>  <reference>  (384) 


>  <observation_longname>  (384) 
A71EV2A-x4509_A_201_v1

>  <ConformerSites alias>  (384) 
1b - A0911/A/147

>  <CanonSites alias>  (384) 
1 - Active Site

>  <CrystalformSites alias>  (384) 
F8h - A0884/A/147

>  <Quatassemblies alias>  (384) 
A1 - monomer

>  <Crystalforms alias>  (384) 
F8 - A712A_x4271_2.1_refmac1_1st_ref

>  <ConformerSites upload name>  (384) 
1b - A71EV2A-x0911/A/147

>  <CanonSites upload name>  (384) 
1 - A71EV2A-x0911/A/147/1

>  <CrystalformSites upload name>  (384) 
F8h - A71EV2A-x0884/A/147/1

>  <Quatassemblies upload name>  (384) 
A1 - monomer

>  <Crystalforms upload name>  (384) 
F8 - A712A_x4271_2.1_refmac1_1st_ref

>  <ConformerSites short tag>  (384) 
1b - A0911/A/147

>  <CanonSites short tag>  (384) 
1 - A0911/A/147/1

>  <CrystalformSites short tag>  (384) 
F8h - A0884/A/147

>  <Quatassemblies short tag>  (384) 
A1 - monomer

>  <Crystalforms short tag>  (384) 
F8 - A712A_x4271_2.1_refmac1_1st_ref

>  <Centroid res>  (384) 
A71EV2A-x0911/A/133/A_v1

>  <Experiment code>  (384) 
A71EV2A-x4509

>  <Pose>  (384) 
A4509a

$$$$
A4510a
     RDKit          3D

 23 24  0  0  0  0  0  0  0  0999 V2000
    9.4390    8.9130   23.8770 F   0  0  0  0  0  0  0  0  0  0  0  0
    9.5020   10.1810   24.2460 C   0  0  0  0  0  0  0  0  0  0  0  0
    9.7840   10.8740   23.1360 F   0  0  0  0  0  0  0  0  0  0  0  0
   10.5530   10.2530   25.0340 F   0  0  0  0  0  0  0  0  0  0  0  0
    8.2420   10.6570   24.9330 C   0  0  0  0  0  0  0  0  0  0  0  0
    7.4630    9.7480   25.4650 N   0  0  0  0  0  0  0  0  0  0  0  0
    6.4900   10.5160   26.0460 N   0  0  0  0  0  0  0  0  0  0  0  0
    5.4790    9.8780   26.8780 C   0  0  0  0  0  0  0  0  0  0  0  0
    6.6540   11.8360   25.8410 C   0  0  0  0  0  0  0  0  0  0  0  0
    7.8000   11.9690   25.1400 C   0  0  0  0  0  0  0  0  0  0  0  0
    8.4620   13.2990   24.8270 C   0  0  2  0  0  0  0  0  0  0  0  0
    7.7580   14.4610   25.5420 C   0  0  0  0  0  0  0  0  0  0  0  0
    8.5300   13.5790   23.3350 C   0  0  0  0  0  0  0  0  0  0  0  0
    7.6220   13.2400   22.5980 O   0  0  0  0  0  0  0  0  0  0  0  0
    9.5540   14.3430   22.8810 N   0  0  0  0  0  0  0  0  0  0  0  0
    9.4530   14.9730   21.5560 C   0  0  0  0  0  0  0  0  0  0  0  0
   10.7440   14.7590   20.7630 C   0  0  1  0  0  0  0  0  0  0  0  0
   10.6970   15.2420   19.3250 C   0  0  0  0  0  0  0  0  0  0  0  0
   10.2550   16.3620   19.0420 O   0  0  0  0  0  0  0  0  0  0  0  0
   11.1630   14.3980   18.4180 N   0  0  0  0  0  0  0  0  0  0  0  0
   11.8380   15.4670   21.5690 C   0  0  0  0  0  0  0  0  0  0  0  0
   12.0320   14.7620   22.9090 C   0  0  0  0  0  0  0  0  0  0  0  0
   10.7320   14.7060   23.6990 C   0  0  0  0  0  0  0  0  0  0  0  0
 11 12  1  1
 13 11  1  0
 14 13  2  0
 15 13  1  0
 15 23  1  0
 23 22  1  0
 22 21  1  0
 21 17  1  0
 17 18  1  6
 20 18  1  0
 19 18  2  0
 17 16  1  0
 16 15  1  0
 11 10  1  0
 10  9  2  0
  9  7  1  0
  8  7  1  0
  7  6  1  0
  6  5  2  0
 10  5  1  0
  5  2  1  0
  3  2  1  0
  4  2  1  0
  2  1  1  0
M  END
>  <id>  (385) 
385

>  <inchikey>  (385) 
CYDVRWFNSPMYQH-IUCAKERBSA-N

>  <alias>  (385) 
A4510a

>  <smiles>  (385) 
C[C@H](C(=O)N1CCC[C@H](C(N)=O)C1)c1cn(C)nc1C(F)(F)F

>  <path>  (385) 
/opt/xchem-fragalysis-2/maxwin/BulkDock/TARGETS/A71EV2A/aligned_files/A4510a/A4510a.pdb

>  <distance_score>  (385) 
None

>  <energy_score>  (385) 
None

>  <compound>  (385) 
CYDVRWFNSPMYQH-UHFFFAOYSA-N

>  <compound_id>  (385) 
295

>  <target>  (385) 
A71EV2A

>  <tags>  (385) 
['GOOD count', 'MEDIOCRE count', '[Other] S1 site', 'hits', '[Other] S2 site', '[Other] upload_6_2025-02-13', '[Other] P3 compound design', '[Series] Piperidine series', 'Main status', 'BAD count']

>  <inspirations>  (385) 
None

>  <subsites>  (385) 
None

>  <reference>  (385) 


>  <observation_longname>  (385) 
A71EV2A-x4510_A_201_v1

>  <ConformerSites alias>  (385) 
1b - A0911/A/147

>  <CanonSites alias>  (385) 
1 - Active Site

>  <CrystalformSites alias>  (385) 
F5i - A3175/A/201

>  <Quatassemblies alias>  (385) 
A1 - monomer

>  <Crystalforms alias>  (385) 
F5 - A71EV2A_x3178_new_long_dials_041024

>  <ConformerSites upload name>  (385) 
1b - A71EV2A-x0911/A/147

>  <CanonSites upload name>  (385) 
1 - A71EV2A-x0911/A/147/1

>  <CrystalformSites upload name>  (385) 
F5i - A71EV2A-x3175/A/201/1

>  <Quatassemblies upload name>  (385) 
A1 - monomer

>  <Crystalforms upload name>  (385) 
F5 - A71EV2A_x3178_new_long_dials_041024

>  <ConformerSites short tag>  (385) 
1b - A0911/A/147

>  <CanonSites short tag>  (385) 
1 - A0911/A/147/1

>  <CrystalformSites short tag>  (385) 
F5i - A3175/A/201

>  <Quatassemblies short tag>  (385) 
A1 - monomer

>  <Crystalforms short tag>  (385) 
F5 - A71EV2A_x3178_new_long_dials_041024

>  <Centroid res>  (385) 
A71EV2A-x0911/A/133/A_v1

>  <Experiment code>  (385) 
A71EV2A-x4510

>  <Pose>  (385) 
A4510a

$$$$
A4514a
     RDKit          3D

 20 22  0  0  0  0  0  0  0  0999 V2000
    7.1590   13.1980   22.3790 O   0  0  0  0  0  0  0  0  0  0  0  0
    7.9140   13.6450   23.2210 C   0  0  0  0  0  0  0  0  0  0  0  0
    8.9370   14.4650   22.8930 N   0  0  0  0  0  0  0  0  0  0  0  0
   10.0340   14.8490   23.7970 C   0  0  0  0  0  0  0  0  0  0  0  0
   11.4030   14.6750   23.1530 C   0  0  0  0  0  0  0  0  0  0  0  0
   11.4430   15.3500   21.7840 C   0  0  0  0  0  0  0  0  0  0  0  0
    8.9750   15.0840   21.5620 C   0  0  0  0  0  0  0  0  0  0  0  0
   10.3230   14.8110   20.8820 C   0  0  1  0  0  0  0  0  0  0  0  0
   10.4430   15.3640   19.4720 C   0  0  0  0  0  0  0  0  0  0  0  0
   10.0450   16.4990   19.1990 O   0  0  0  0  0  0  0  0  0  0  0  0
   10.9690   14.5470   18.5690 N   0  0  0  0  0  0  0  0  0  0  0  0
    7.6340   13.2550   24.6940 C   0  0  0  0  0  0  0  0  0  0  0  0
    8.0570   14.1760   25.8750 C   0  0  0  0  0  0  0  0  0  0  0  0
    6.6800   13.9640   26.5110 C   0  0  0  0  0  0  0  0  0  0  0  0
    6.1660   13.4200   25.1670 C   0  0  0  0  0  0  0  0  0  0  0  0
    8.1210   11.8330   24.8460 C   0  0  0  0  0  0  0  0  0  0  0  0
    7.5260   10.7760   25.4590 C   0  0  0  0  0  0  0  0  0  0  0  0
    8.2110    9.6200   25.2040 O   0  0  0  0  0  0  0  0  0  0  0  0
    9.3020    9.9760   24.4280 C   0  0  0  0  0  0  0  0  0  0  0  0
    9.2930   11.2960   24.1940 C   0  0  0  0  0  0  0  0  0  0  0  0
 11  9  1  0
 10  9  2  0
  8  9  1  6
  8  6  1  0
  6  5  1  0
  5  4  1  0
  4  3  1  0
  3  2  1  0
  2  1  2  0
 12  2  1  0
 16 12  1  0
 16 20  1  0
 20 19  2  0
 19 18  1  0
 18 17  1  0
 17 16  2  0
 12 15  1  0
 15 14  1  0
 14 13  1  0
 13 12  1  0
  7  3  1  0
  8  7  1  0
M  END
>  <id>  (386) 
386

>  <inchikey>  (386) 
GKBXREDGVWBKIB-NSHDSACASA-N

>  <alias>  (386) 
A4514a

>  <smiles>  (386) 
NC(=O)[C@H]1CCCN(C(=O)C2(c3ccoc3)CCC2)C1

>  <path>  (386) 
/opt/xchem-fragalysis-2/maxwin/BulkDock/TARGETS/A71EV2A/aligned_files/A4514a/A4514a.pdb

>  <distance_score>  (386) 
None

>  <energy_score>  (386) 
None

>  <compound>  (386) 
GKBXREDGVWBKIB-UHFFFAOYSA-N

>  <compound_id>  (386) 
296

>  <target>  (386) 
A71EV2A

>  <tags>  (386) 
['GOOD count', 'MEDIOCRE count', '[Other] S1 site', 'hits', '[Other] S2 site', '[Other] P3 compound design', '[Other] upload_1 2025-02-12', 'Main status', '[Series] Piperidine series', 'BAD count']

>  <inspirations>  (386) 
None

>  <subsites>  (386) 
None

>  <reference>  (386) 


>  <observation_longname>  (386) 
A71EV2A-x4514_A_201_v1

>  <ConformerSites alias>  (386) 
1b - A0911/A/147

>  <CanonSites alias>  (386) 
1 - Active Site

>  <CrystalformSites alias>  (386) 
F1a - A0375/A/201

>  <Quatassemblies alias>  (386) 
A1 - monomer

>  <Crystalforms alias>  (386) 
F1 - A71_2A_open

>  <ConformerSites upload name>  (386) 
1b - A71EV2A-x0911/A/147

>  <CanonSites upload name>  (386) 
1 - A71EV2A-x0911/A/147/1

>  <CrystalformSites upload name>  (386) 
F1a - A71EV2A-x0375/A/201/1

>  <Quatassemblies upload name>  (386) 
A1 - monomer

>  <Crystalforms upload name>  (386) 
F1 - A71_2A_open

>  <ConformerSites short tag>  (386) 
1b - A0911/A/147

>  <CanonSites short tag>  (386) 
1 - A0911/A/147/1

>  <CrystalformSites short tag>  (386) 
F1a - A0375/A/201

>  <Quatassemblies short tag>  (386) 
A1 - monomer

>  <Crystalforms short tag>  (386) 
F1 - A71_2A_open

>  <Centroid res>  (386) 
A71EV2A-x0911/A/133/A_v1

>  <Experiment code>  (386) 
A71EV2A-x4514

>  <Pose>  (386) 
A4514a

$$$$
A4516a
     RDKit          3D

 20 21  0  0  0  0  0  0  0  0999 V2000
    9.4150   10.2790   23.3220 Cl  0  0  0  0  0  0  0  0  0  0  0  0
    8.3120   10.7650   24.5320 C   0  0  0  0  0  0  0  0  0  0  0  0
    7.2130    9.6610   25.2210 S   0  0  0  0  0  0  0  0  0  0  0  0
    6.5440   10.7930   26.2480 N   0  0  0  0  0  0  0  0  0  0  0  0
    7.1370   11.9710   26.0650 C   0  0  0  0  0  0  0  0  0  0  0  0
    8.1550   11.9980   25.1020 C   0  0  0  0  0  0  0  0  0  0  0  0
    8.9790   13.2470   24.8290 C   0  0  0  0  0  0  0  0  0  0  0  0
    8.5930   14.2600   25.6690 F   0  0  0  0  0  0  0  0  0  0  0  0
   10.2960   13.0090   25.1150 F   0  0  0  0  0  0  0  0  0  0  0  0
    8.8430   13.7000   23.3490 C   0  0  0  0  0  0  0  0  0  0  0  0
    7.9460   13.1910   22.7000 O   0  0  0  0  0  0  0  0  0  0  0  0
    9.6230   14.6690   22.8210 N   0  0  0  0  0  0  0  0  0  0  0  0
   10.5560   15.4920   23.6090 C   0  0  0  0  0  0  0  0  0  0  0  0
   11.9220   15.5300   22.9640 C   0  0  0  0  0  0  0  0  0  0  0  0
   11.8190   16.0000   21.5130 C   0  0  0  0  0  0  0  0  0  0  0  0
    9.4870   15.0900   21.4200 C   0  0  0  0  0  0  0  0  0  0  0  0
   10.8430   15.1340   20.7020 C   0  0  1  0  0  0  0  0  0  0  0  0
   10.7580   15.6270   19.2650 C   0  0  0  0  0  0  0  0  0  0  0  0
   10.5070   16.8070   19.0090 O   0  0  0  0  0  0  0  0  0  0  0  0
   11.0280   14.7380   18.3270 N   0  0  0  0  0  0  0  0  0  0  0  0
 20 18  1  0
 19 18  2  0
 17 18  1  6
 17 15  1  0
 15 14  1  0
 14 13  1  0
 13 12  1  0
 12 10  1  0
 11 10  2  0
 10  7  1  0
  8  7  1  0
  9  7  1  0
  7  6  1  0
  6  5  1  0
  5  4  2  0
  4  3  1  0
  3  2  1  0
  6  2  2  0
  2  1  1  0
 16 12  1  0
 17 16  1  0
M  END
>  <id>  (387) 
387

>  <inchikey>  (387) 
GAJBKOBGGSAGFE-LURJTMIESA-N

>  <alias>  (387) 
A4516a

>  <smiles>  (387) 
NC(=O)[C@H]1CCCN(C(=O)C(F)(F)c2cnsc2Cl)C1

>  <path>  (387) 
/opt/xchem-fragalysis-2/maxwin/BulkDock/TARGETS/A71EV2A/aligned_files/A4516a/A4516a.pdb

>  <distance_score>  (387) 
None

>  <energy_score>  (387) 
None

>  <compound>  (387) 
GAJBKOBGGSAGFE-UHFFFAOYSA-N

>  <compound_id>  (387) 
297

>  <target>  (387) 
A71EV2A

>  <tags>  (387) 
['GOOD count', 'MEDIOCRE count', '[Other] S1 site', 'hits', '[Other] upload_3 2025-03-06', '[Other] S2 site', '[Other] P3 compound design', '[Series] Piperidine series', 'Main status', 'BAD count']

>  <inspirations>  (387) 
None

>  <subsites>  (387) 
None

>  <reference>  (387) 


>  <observation_longname>  (387) 
A71EV2A-x4516_A_201_v3

>  <ConformerSites alias>  (387) 
1b - A0911/A/147

>  <CanonSites alias>  (387) 
1 - Active Site

>  <CrystalformSites alias>  (387) 
F8h - A0884/A/147

>  <Quatassemblies alias>  (387) 
A1 - monomer

>  <Crystalforms alias>  (387) 
F8 - A712A_x4271_2.1_refmac1_1st_ref

>  <ConformerSites upload name>  (387) 
1b - A71EV2A-x0911/A/147

>  <CanonSites upload name>  (387) 
1 - A71EV2A-x0911/A/147/1

>  <CrystalformSites upload name>  (387) 
F8h - A71EV2A-x0884/A/147/1

>  <Quatassemblies upload name>  (387) 
A1 - monomer

>  <Crystalforms upload name>  (387) 
F8 - A712A_x4271_2.1_refmac1_1st_ref

>  <ConformerSites short tag>  (387) 
1b - A0911/A/147

>  <CanonSites short tag>  (387) 
1 - A0911/A/147/1

>  <CrystalformSites short tag>  (387) 
F8h - A0884/A/147

>  <Quatassemblies short tag>  (387) 
A1 - monomer

>  <Crystalforms short tag>  (387) 
F8 - A712A_x4271_2.1_refmac1_1st_ref

>  <Centroid res>  (387) 
A71EV2A-x0911/A/133/A_v1

>  <Experiment code>  (387) 
A71EV2A-x4516

>  <Pose>  (387) 
A4516a

$$$$
A4519a
     RDKit          3D

 22 24  0  0  0  0  0  0  0  0999 V2000
    9.5040    8.9160   23.4250 Br  0  0  0  0  0  0  0  0  0  0  0  0
    8.3820   10.0340   24.4420 C   0  0  0  0  0  0  0  0  0  0  0  0
    7.2010    9.5100   25.0190 C   0  0  0  0  0  0  0  0  0  0  0  0
    6.4270   10.3000   25.7950 C   0  0  0  0  0  0  0  0  0  0  0  0
    8.7430   11.3210   24.6130 C   0  0  0  0  0  0  0  0  0  0  0  0
    7.9250   12.1400   25.3750 N   0  0  0  0  0  0  0  0  0  0  0  0
    6.7750   11.6550   25.9980 C   0  0  0  0  0  0  0  0  0  0  0  0
    6.2560   12.7500   26.6520 C   0  0  0  0  0  0  0  0  0  0  0  0
    7.0240   13.8730   26.4400 N   0  0  0  0  0  0  0  0  0  0  0  0
    8.0170   13.4770   25.6590 C   0  0  0  0  0  0  0  0  0  0  0  0
    9.0880   14.3610   25.1170 C   0  0  0  0  0  0  0  0  0  0  0  0
    8.9280   14.5030   23.6110 C   0  0  0  0  0  0  0  0  0  0  0  0
    8.0530   13.9190   22.9840 O   0  0  0  0  0  0  0  0  0  0  0  0
    9.8030   15.3310   23.0080 N   0  0  0  0  0  0  0  0  0  0  0  0
   11.0090   15.8810   23.6460 C   0  0  0  0  0  0  0  0  0  0  0  0
   12.2450   15.4360   22.8830 C   0  0  0  0  0  0  0  0  0  0  0  0
   12.1240   15.8210   21.4090 C   0  0  0  0  0  0  0  0  0  0  0  0
    9.6440   15.6830   21.5930 C   0  0  0  0  0  0  0  0  0  0  0  0
   10.8600   15.2110   20.7880 C   0  0  1  0  0  0  0  0  0  0  0  0
   10.6860   15.6560   19.3460 C   0  0  0  0  0  0  0  0  0  0  0  0
   10.3500   16.8130   19.0720 O   0  0  0  0  0  0  0  0  0  0  0  0
   10.8440   14.7110   18.4240 N   0  0  0  0  0  0  0  0  0  0  0  0
 22 20  1  0
 21 20  2  0
 19 20  1  6
 19 17  1  0
 17 16  1  0
 16 15  1  0
 15 14  1  0
 14 12  1  0
 13 12  2  0
 12 11  1  0
 11 10  1  0
 10  9  2  0
  9  8  1  0
  8  7  2  0
  7  4  1  0
  4  3  2  0
  3  2  1  0
  2  1  1  0
  5  2  2  0
  6  5  1  0
 10  6  1  0
  7  6  1  0
 18 14  1  0
 19 18  1  0
M  END
>  <id>  (388) 
388

>  <inchikey>  (388) 
MDQREZRKEBAFAE-JTQLQIEISA-N

>  <alias>  (388) 
A4519a

>  <smiles>  (388) 
NC(=O)[C@H]1CCCN(C(=O)Cc2ncc3ccc(Br)cn23)C1

>  <path>  (388) 
/opt/xchem-fragalysis-2/maxwin/BulkDock/TARGETS/A71EV2A/aligned_files/A4519a/A4519a_hippo.pdb

>  <distance_score>  (388) 
None

>  <energy_score>  (388) 
None

>  <compound>  (388) 
MDQREZRKEBAFAE-UHFFFAOYSA-N

>  <compound_id>  (388) 
298

>  <target>  (388) 
A71EV2A

>  <tags>  (388) 
['GOOD count', 'MEDIOCRE count', '[Other] S1 site', 'hits', '[Other] S2 site', '[Other] P3 compound design', '[Other] upload_1 2025-02-12', 'Main status', '[Series] Piperidine series', 'BAD count']

>  <inspirations>  (388) 
None

>  <subsites>  (388) 
None

>  <reference>  (388) 


>  <observation_longname>  (388) 
A71EV2A-x4519_A_201_v1

>  <ConformerSites alias>  (388) 
1b - A0911/A/147

>  <CanonSites alias>  (388) 
1 - Active Site

>  <CrystalformSites alias>  (388) 
F7q - A4303/A/201

>  <Quatassemblies alias>  (388) 
A1 - monomer

>  <Crystalforms alias>  (388) 
F7 - A712A_x4207_8.1_refmac1_1st_ref

>  <ConformerSites upload name>  (388) 
1b - A71EV2A-x0911/A/147

>  <CanonSites upload name>  (388) 
1 - A71EV2A-x0911/A/147/1

>  <CrystalformSites upload name>  (388) 
F7q - A71EV2A-x4303/A/201/1

>  <Quatassemblies upload name>  (388) 
A1 - monomer

>  <Crystalforms upload name>  (388) 
F7 - A712A_x4207_8.1_refmac1_1st_ref

>  <ConformerSites short tag>  (388) 
1b - A0911/A/147

>  <CanonSites short tag>  (388) 
1 - A0911/A/147/1

>  <CrystalformSites short tag>  (388) 
F7q - A4303/A/201

>  <Quatassemblies short tag>  (388) 
A1 - monomer

>  <Crystalforms short tag>  (388) 
F7 - A712A_x4207_8.1_refmac1_1st_ref

>  <Centroid res>  (388) 
A71EV2A-x0911/A/133/A_v1

>  <Experiment code>  (388) 
A71EV2A-x4519

>  <Pose>  (388) 
A4519a

$$$$
A4519b
     RDKit          3D

 22 24  0  0  0  0  0  0  0  0999 V2000
    9.5410    8.9760   23.3860 Br  0  0  0  0  0  0  0  0  0  0  0  0
    8.4240   10.0910   24.4100 C   0  0  0  0  0  0  0  0  0  0  0  0
    7.2390    9.5660   24.9850 C   0  0  0  0  0  0  0  0  0  0  0  0
    6.4620   10.3630   25.7510 C   0  0  0  0  0  0  0  0  0  0  0  0
    8.7850   11.3790   24.5750 C   0  0  0  0  0  0  0  0  0  0  0  0
    7.9670   12.2000   25.3230 N   0  0  0  0  0  0  0  0  0  0  0  0
    6.8100   11.7230   25.9420 C   0  0  0  0  0  0  0  0  0  0  0  0
    6.2920   12.8220   26.5880 C   0  0  0  0  0  0  0  0  0  0  0  0
    7.0730   13.9480   26.3760 N   0  0  0  0  0  0  0  0  0  0  0  0
    8.0670   13.5430   25.6070 C   0  0  0  0  0  0  0  0  0  0  0  0
    9.1680   14.4170   25.0910 C   0  0  0  0  0  0  0  0  0  0  0  0
    9.0160   14.5780   23.5870 C   0  0  0  0  0  0  0  0  0  0  0  0
    8.1400   13.9910   22.9500 O   0  0  0  0  0  0  0  0  0  0  0  0
    9.8980   15.4130   22.9930 N   0  0  0  0  0  0  0  0  0  0  0  0
   11.0800   16.0150   23.6320 C   0  0  0  0  0  0  0  0  0  0  0  0
   12.3460   15.6280   22.8700 C   0  0  0  0  0  0  0  0  0  0  0  0
   12.2030   15.9630   21.3840 C   0  0  0  0  0  0  0  0  0  0  0  0
    9.7300   15.7760   21.5850 C   0  0  0  0  0  0  0  0  0  0  0  0
   10.9480   15.3130   20.7760 C   0  0  1  0  0  0  0  0  0  0  0  0
   10.7610   15.7470   19.3330 C   0  0  0  0  0  0  0  0  0  0  0  0
   10.4260   16.9050   19.0580 O   0  0  0  0  0  0  0  0  0  0  0  0
   10.9270   14.8030   18.4150 N   0  0  0  0  0  0  0  0  0  0  0  0
 22 20  1  0
 21 20  2  0
 19 20  1  6
 19 17  1  0
 17 16  1  0
 16 15  1  0
 15 14  1  0
 14 12  1  0
 13 12  2  0
 12 11  1  0
 11 10  1  0
 10  9  2  0
  9  8  1  0
  8  7  2  0
  7  4  1  0
  4  3  2  0
  3  2  1  0
  2  1  1  0
  5  2  2  0
  6  5  1  0
 10  6  1  0
  7  6  1  0
 18 14  1  0
 19 18  1  0
M  END
>  <id>  (389) 
389

>  <inchikey>  (389) 
MDQREZRKEBAFAE-JTQLQIEISA-N

>  <alias>  (389) 
A4519b

>  <smiles>  (389) 
NC(=O)[C@H]1CCCN(C(=O)Cc2ncc3ccc(Br)cn23)C1

>  <path>  (389) 
/opt/xchem-fragalysis-2/maxwin/BulkDock/TARGETS/A71EV2A/aligned_files/A4519b/A4519b.pdb

>  <distance_score>  (389) 
None

>  <energy_score>  (389) 
None

>  <compound>  (389) 
MDQREZRKEBAFAE-UHFFFAOYSA-N

>  <compound_id>  (389) 
298

>  <target>  (389) 
A71EV2A

>  <tags>  (389) 
['GOOD count', 'MEDIOCRE count', '[Other] S1 site', 'hits', '[Other] S2 site', '[Other] P3 compound design', '[Other] upload_1 2025-02-12', 'Main status', '[Series] Piperidine series', 'BAD count']

>  <inspirations>  (389) 
None

>  <subsites>  (389) 
None

>  <reference>  (389) 


>  <observation_longname>  (389) 
A71EV2A-x4519_C_201_v1

>  <ConformerSites alias>  (389) 
1b - A0911/A/147

>  <CanonSites alias>  (389) 
1 - Active Site

>  <CrystalformSites alias>  (389) 
F7r - A4303/C/201

>  <Quatassemblies alias>  (389) 
A1 - monomer

>  <Crystalforms alias>  (389) 
F7 - A712A_x4207_8.1_refmac1_1st_ref

>  <ConformerSites upload name>  (389) 
1b - A71EV2A-x0911/A/147

>  <CanonSites upload name>  (389) 
1 - A71EV2A-x0911/A/147/1

>  <CrystalformSites upload name>  (389) 
F7r - A71EV2A-x4303/C/201/1

>  <Quatassemblies upload name>  (389) 
A1 - monomer

>  <Crystalforms upload name>  (389) 
F7 - A712A_x4207_8.1_refmac1_1st_ref

>  <ConformerSites short tag>  (389) 
1b - A0911/A/147

>  <CanonSites short tag>  (389) 
1 - A0911/A/147/1

>  <CrystalformSites short tag>  (389) 
F7r - A4303/C/201

>  <Quatassemblies short tag>  (389) 
A1 - monomer

>  <Crystalforms short tag>  (389) 
F7 - A712A_x4207_8.1_refmac1_1st_ref

>  <Centroid res>  (389) 
A71EV2A-x0911/A/133/A_v1

>  <Experiment code>  (389) 
A71EV2A-x4519

>  <Pose>  (389) 
A4519a

$$$$
A4524a
     RDKit          3D

 21 22  0  0  0  0  0  0  0  0999 V2000
    7.7630   10.7930   25.2610 Cl  0  0  0  0  0  0  0  0  0  0  0  0
    6.7950   12.0640   25.9090 C   0  0  0  0  0  0  0  0  0  0  0  0
    5.8960   11.7920   26.9490 C   0  0  0  0  0  0  0  0  0  0  0  0
    5.9890   10.5400   27.4950 O   0  0  0  0  0  0  0  0  0  0  0  0
    4.8750   10.0520   28.2470 C   0  0  0  0  0  0  0  0  0  0  0  0
    6.8390   13.3370   25.3280 C   0  0  0  0  0  0  0  0  0  0  0  0
    5.9040   14.2940   25.7230 C   0  0  0  0  0  0  0  0  0  0  0  0
    5.0030   14.0110   26.7390 C   0  0  0  0  0  0  0  0  0  0  0  0
    5.0070   12.7760   27.3670 C   0  0  0  0  0  0  0  0  0  0  0  0
    7.9690   13.7120   24.5550 N   0  0  0  0  0  0  0  0  0  0  0  0
    8.1370   13.6830   23.1990 C   0  0  0  0  0  0  0  0  0  0  0  0
    7.3110   13.1850   22.4480 O   0  0  0  0  0  0  0  0  0  0  0  0
    9.3010   14.2220   22.7210 N   0  0  0  0  0  0  0  0  0  0  0  0
    9.1690   14.9310   21.4440 C   0  0  0  0  0  0  0  0  0  0  0  0
   10.4810   14.8370   20.6600 C   0  0  1  0  0  0  0  0  0  0  0  0
   10.4480   15.3560   19.2330 C   0  0  0  0  0  0  0  0  0  0  0  0
    9.8960   16.4230   18.9550 O   0  0  0  0  0  0  0  0  0  0  0  0
   11.0160   14.5770   18.3280 N   0  0  0  0  0  0  0  0  0  0  0  0
   11.5980   15.4850   21.4920 C   0  0  0  0  0  0  0  0  0  0  0  0
   11.7160   14.8280   22.8710 C   0  0  0  0  0  0  0  0  0  0  0  0
   10.3620   14.7770   23.5840 C   0  0  0  0  0  0  0  0  0  0  0  0
  5  4  1  0
  4  3  1  0
  3  9  2  0
  9  8  1  0
  8  7  2  0
  7  6  1  0
 10  6  1  0
 11 10  1  0
 12 11  2  0
 13 11  1  0
 13 21  1  0
 21 20  1  0
 20 19  1  0
 19 15  1  0
 15 16  1  6
 18 16  1  0
 17 16  2  0
 15 14  1  0
 14 13  1  0
  6  2  2  0
  3  2  1  0
  2  1  1  0
M  END
>  <id>  (390) 
390

>  <inchikey>  (390) 
DFGLJBPMZPVSMK-VIFPVBQESA-N

>  <alias>  (390) 
A4524a

>  <smiles>  (390) 
COc1cccc(NC(=O)N2CCC[C@H](C(N)=O)C2)c1Cl

>  <path>  (390) 
/opt/xchem-fragalysis-2/maxwin/BulkDock/TARGETS/A71EV2A/aligned_files/A4524a/A4524a.pdb

>  <distance_score>  (390) 
None

>  <energy_score>  (390) 
None

>  <compound>  (390) 
DFGLJBPMZPVSMK-UHFFFAOYSA-N

>  <compound_id>  (390) 
299

>  <target>  (390) 
A71EV2A

>  <tags>  (390) 
['GOOD count', 'MEDIOCRE count', '[Other] S1 site', 'hits', '[Other] S2 site', '[Other] P3 compound design', '[Other] upload_1 2025-02-12', 'Main status', '[Series] Piperidine series', 'BAD count']

>  <inspirations>  (390) 
None

>  <subsites>  (390) 
None

>  <reference>  (390) 


>  <observation_longname>  (390) 
A71EV2A-x4524_A_201_v1

>  <ConformerSites alias>  (390) 
1b - A0911/A/147

>  <CanonSites alias>  (390) 
1 - Active Site

>  <CrystalformSites alias>  (390) 
F5i - A3175/A/201

>  <Quatassemblies alias>  (390) 
A1 - monomer

>  <Crystalforms alias>  (390) 
F5 - A71EV2A_x3178_new_long_dials_041024

>  <ConformerSites upload name>  (390) 
1b - A71EV2A-x0911/A/147

>  <CanonSites upload name>  (390) 
1 - A71EV2A-x0911/A/147/1

>  <CrystalformSites upload name>  (390) 
F5i - A71EV2A-x3175/A/201/1

>  <Quatassemblies upload name>  (390) 
A1 - monomer

>  <Crystalforms upload name>  (390) 
F5 - A71EV2A_x3178_new_long_dials_041024

>  <ConformerSites short tag>  (390) 
1b - A0911/A/147

>  <CanonSites short tag>  (390) 
1 - A0911/A/147/1

>  <CrystalformSites short tag>  (390) 
F5i - A3175/A/201

>  <Quatassemblies short tag>  (390) 
A1 - monomer

>  <Crystalforms short tag>  (390) 
F5 - A71EV2A_x3178_new_long_dials_041024

>  <Centroid res>  (390) 
A71EV2A-x0911/A/133/A_v1

>  <Experiment code>  (390) 
A71EV2A-x4524

>  <Pose>  (390) 
A4524a

$$$$
A4526a
     RDKit          3D

 18 19  0  0  0  0  0  0  0  0999 V2000
   10.4900   16.7700   19.2180 O   0  0  0  0  0  0  0  0  0  0  0  0
   10.5730   15.5620   19.4420 C   0  0  0  0  0  0  0  0  0  0  0  0
   10.7230   14.6640   18.4860 N   0  0  0  0  0  0  0  0  0  0  0  0
   10.4950   15.0210   20.8590 C   0  0  1  0  0  0  0  0  0  0  0  0
   11.6340   15.5750   21.7270 C   0  0  0  0  0  0  0  0  0  0  0  0
   11.5550   15.0560   23.1640 C   0  0  0  0  0  0  0  0  0  0  0  0
   10.1870   15.3420   23.7610 C   0  0  0  0  0  0  0  0  0  0  0  0
    9.1610   15.3620   21.5330 C   0  0  0  0  0  0  0  0  0  0  0  0
    9.1250   14.8100   22.8910 N   0  0  0  0  0  0  0  0  0  0  0  0
    8.1860   13.9070   23.2510 C   0  0  0  0  0  0  0  0  0  0  0  0
    7.3700   13.4870   22.4500 O   0  0  0  0  0  0  0  0  0  0  0  0
    8.1740   13.4230   24.6880 C   0  0  1  0  0  0  0  0  0  0  0  0
    6.8100   13.7110   25.3140 C   0  0  0  0  0  0  0  0  0  0  0  0
    8.4480   11.9400   24.6360 C   0  0  0  0  0  0  0  0  0  0  0  0
    9.8370   11.3110   23.8530 S   0  0  0  0  0  0  0  0  0  0  0  0
    9.4060    9.7050   24.2000 C   0  0  0  0  0  0  0  0  0  0  0  0
    8.2580    9.6200   24.8870 C   0  0  0  0  0  0  0  0  0  0  0  0
    7.6710   10.9070   25.1560 C   0  0  0  0  0  0  0  0  0  0  0  0
 12 13  1  6
 12 10  1  0
 11 10  2  0
 10  9  1  0
  9  7  1  0
  7  6  1  0
  6  5  1  0
  5  4  1  0
  4  2  1  6
  3  2  1  0
  2  1  2  0
  8  4  1  0
  9  8  1  0
 14 12  1  0
 14 18  2  0
 18 17  1  0
 17 16  2  0
 16 15  1  0
 15 14  1  0
M  END
>  <id>  (391) 
391

>  <inchikey>  (391) 
JQNFTWVJWFLFOK-UWVGGRQHSA-N

>  <alias>  (391) 
A4526a

>  <smiles>  (391) 
C[C@H](C(=O)N1CCC[C@H](C(N)=O)C1)c1cccs1

>  <path>  (391) 
/opt/xchem-fragalysis-2/maxwin/BulkDock/TARGETS/A71EV2A/aligned_files/A4526a/A4526a.pdb

>  <distance_score>  (391) 
None

>  <energy_score>  (391) 
None

>  <compound>  (391) 
JQNFTWVJWFLFOK-UHFFFAOYSA-N

>  <compound_id>  (391) 
300

>  <target>  (391) 
A71EV2A

>  <tags>  (391) 
['GOOD count', 'MEDIOCRE count', '[Other] S1 site', 'hits', '[Other] S2 site', '[Other] upload_6_2025-02-13', '[Other] P3 compound design', '[Series] Piperidine series', 'Main status', 'BAD count']

>  <inspirations>  (391) 
None

>  <subsites>  (391) 
None

>  <reference>  (391) 


>  <observation_longname>  (391) 
A71EV2A-x4526_A_201_v1

>  <ConformerSites alias>  (391) 
1b - A0911/A/147

>  <CanonSites alias>  (391) 
1 - Active Site

>  <CrystalformSites alias>  (391) 
F8h - A0884/A/147

>  <Quatassemblies alias>  (391) 
A1 - monomer

>  <Crystalforms alias>  (391) 
F8 - A712A_x4271_2.1_refmac1_1st_ref

>  <ConformerSites upload name>  (391) 
1b - A71EV2A-x0911/A/147

>  <CanonSites upload name>  (391) 
1 - A71EV2A-x0911/A/147/1

>  <CrystalformSites upload name>  (391) 
F8h - A71EV2A-x0884/A/147/1

>  <Quatassemblies upload name>  (391) 
A1 - monomer

>  <Crystalforms upload name>  (391) 
F8 - A712A_x4271_2.1_refmac1_1st_ref

>  <ConformerSites short tag>  (391) 
1b - A0911/A/147

>  <CanonSites short tag>  (391) 
1 - A0911/A/147/1

>  <CrystalformSites short tag>  (391) 
F8h - A0884/A/147

>  <Quatassemblies short tag>  (391) 
A1 - monomer

>  <Crystalforms short tag>  (391) 
F8 - A712A_x4271_2.1_refmac1_1st_ref

>  <Centroid res>  (391) 
A71EV2A-x0911/A/133/A_v1

>  <Experiment code>  (391) 
A71EV2A-x4526

>  <Pose>  (391) 
A4526a

$$$$
A4528a
     RDKit          3D

 23 25  0  0  0  0  0  0  0  0999 V2000
    9.7120    9.5120   23.3890 Cl  0  0  0  0  0  0  0  0  0  0  0  0
    8.4370   10.3110   24.2700 C   0  0  0  0  0  0  0  0  0  0  0  0
    7.3770    9.5590   24.7370 C   0  0  0  0  0  0  0  0  0  0  0  0
    6.3780   10.1680   25.4790 C   0  0  0  0  0  0  0  0  0  0  0  0
    8.5280   11.6740   24.5010 C   0  0  0  0  0  0  0  0  0  0  0  0
    7.5030   12.2750   25.2300 C   0  0  0  0  0  0  0  0  0  0  0  0
    6.4350   11.5310   25.7130 C   0  0  0  0  0  0  0  0  0  0  0  0
    5.3890   12.1120   26.3840 O   0  0  0  0  0  0  0  0  0  0  0  0
    5.1390   13.4900   26.0030 C   0  0  0  0  0  0  0  0  0  0  0  0
    6.3850   14.3620   26.0880 C   0  0  0  0  0  0  0  0  0  0  0  0
    7.5420   13.7030   25.4680 N   0  0  0  0  0  0  0  0  0  0  0  0
    8.6080   14.5750   25.0150 C   0  0  0  0  0  0  0  0  0  0  0  0
    8.5660   14.7580   23.4970 C   0  0  0  0  0  0  0  0  0  0  0  0
    7.6790   14.2410   22.8300 O   0  0  0  0  0  0  0  0  0  0  0  0
    9.5590   15.4750   22.9370 N   0  0  0  0  0  0  0  0  0  0  0  0
   10.7830   15.9030   23.6300 C   0  0  0  0  0  0  0  0  0  0  0  0
   12.0300   15.4860   22.8650 C   0  0  0  0  0  0  0  0  0  0  0  0
   11.9350   15.8780   21.3860 C   0  0  0  0  0  0  0  0  0  0  0  0
    9.4550   15.8910   21.5350 C   0  0  0  0  0  0  0  0  0  0  0  0
   10.6450   15.3510   20.7360 C   0  0  1  0  0  0  0  0  0  0  0  0
   10.5680   15.7410   19.2700 C   0  0  0  0  0  0  0  0  0  0  0  0
   10.3260   16.9040   18.9290 O   0  0  0  0  0  0  0  0  0  0  0  0
   10.7570   14.7630   18.4030 N   0  0  0  0  0  0  0  0  0  0  0  0
 23 21  1  0
 22 21  2  0
 20 21  1  6
 20 18  1  0
 18 17  1  0
 17 16  1  0
 16 15  1  0
 15 13  1  0
 14 13  2  0
 13 12  1  0
 12 11  1  0
 11 10  1  0
 10  9  1  0
  9  8  1  0
  8  7  1  0
  7  4  2  0
  4  3  1  0
  3  2  2  0
  2  1  1  0
  5  2  1  0
  6  5  2  0
  7  6  1  0
 11  6  1  0
 19 15  1  0
 20 19  1  0
M  END
>  <id>  (392) 
392

>  <inchikey>  (392) 
IOHMNWTYJRXITL-NSHDSACASA-N

>  <alias>  (392) 
A4528a

>  <smiles>  (392) 
NC(=O)[C@H]1CCCN(C(=O)CN2CCOc3ccc(Cl)cc32)C1

>  <path>  (392) 
/opt/xchem-fragalysis-2/maxwin/BulkDock/TARGETS/A71EV2A/aligned_files/A4528a/A4528a.pdb

>  <distance_score>  (392) 
None

>  <energy_score>  (392) 
None

>  <compound>  (392) 
IOHMNWTYJRXITL-UHFFFAOYSA-N

>  <compound_id>  (392) 
301

>  <target>  (392) 
A71EV2A

>  <tags>  (392) 
['GOOD count', 'MEDIOCRE count', '[Other] S1 site', 'hits', '[Other] S2 site', '[Other] P3 compound design', '[Other] upload_1 2025-02-12', 'Main status', '[Series] Piperidine series', 'BAD count']

>  <inspirations>  (392) 
None

>  <subsites>  (392) 
None

>  <reference>  (392) 


>  <observation_longname>  (392) 
A71EV2A-x4528_A_201_v1

>  <ConformerSites alias>  (392) 
1b - A0911/A/147

>  <CanonSites alias>  (392) 
1 - Active Site

>  <CrystalformSites alias>  (392) 
F8h - A0884/A/147

>  <Quatassemblies alias>  (392) 
A1 - monomer

>  <Crystalforms alias>  (392) 
F8 - A712A_x4271_2.1_refmac1_1st_ref

>  <ConformerSites upload name>  (392) 
1b - A71EV2A-x0911/A/147

>  <CanonSites upload name>  (392) 
1 - A71EV2A-x0911/A/147/1

>  <CrystalformSites upload name>  (392) 
F8h - A71EV2A-x0884/A/147/1

>  <Quatassemblies upload name>  (392) 
A1 - monomer

>  <Crystalforms upload name>  (392) 
F8 - A712A_x4271_2.1_refmac1_1st_ref

>  <ConformerSites short tag>  (392) 
1b - A0911/A/147

>  <CanonSites short tag>  (392) 
1 - A0911/A/147/1

>  <CrystalformSites short tag>  (392) 
F8h - A0884/A/147

>  <Quatassemblies short tag>  (392) 
A1 - monomer

>  <Crystalforms short tag>  (392) 
F8 - A712A_x4271_2.1_refmac1_1st_ref

>  <Centroid res>  (392) 
A71EV2A-x0911/A/133/A_v1

>  <Experiment code>  (392) 
A71EV2A-x4528

>  <Pose>  (392) 
A4528a

$$$$
A4537a
     RDKit          3D

 20 22  0  0  0  0  0  0  0  0999 V2000
   11.4120   14.7830   25.0060 O   0  0  0  0  0  0  0  0  0  0  0  0
   11.3190   14.9260   23.7900 C   0  0  0  0  0  0  0  0  0  0  0  0
   12.5160   15.3700   22.9840 C   0  0  0  0  0  0  0  0  0  0  0  0
   12.2070   15.9160   21.5870 C   0  0  0  0  0  0  0  0  0  0  0  0
   10.1630   14.7150   23.1240 N   0  0  0  0  0  0  0  0  0  0  0  0
    9.8970   14.9960   21.7050 C   0  0  0  0  0  0  0  0  0  0  0  0
   11.1980   14.9890   20.8960 C   0  0  1  0  0  0  0  0  0  0  0  0
   10.9640   15.3790   19.4450 C   0  0  0  0  0  0  0  0  0  0  0  0
   11.2100   14.5830   18.5210 O   0  0  0  0  0  0  0  0  0  0  0  0
   10.4030   16.5630   19.2460 N   0  0  0  0  0  0  0  0  0  0  0  0
    9.0010   14.2490   23.8540 C   0  0  0  0  0  0  0  0  0  0  0  0
    8.8410   12.7480   23.9100 C   0  0  0  0  0  0  0  0  0  0  0  0
    7.8740   12.0330   24.7140 C   0  0  0  0  0  0  0  0  0  0  0  0
    7.9600   10.6400   24.5060 C   0  0  0  0  0  0  0  0  0  0  0  0
    9.2250   10.2400   23.3900 S   0  0  0  0  0  0  0  0  0  0  0  0
    9.6120   11.9070   23.1700 C   0  0  0  0  0  0  0  0  0  0  0  0
    6.9290   12.4810   25.6510 C   0  0  0  0  0  0  0  0  0  0  0  0
    6.1050   11.5930   26.3180 C   0  0  0  0  0  0  0  0  0  0  0  0
    6.1930   10.2420   26.0750 C   0  0  0  0  0  0  0  0  0  0  0  0
    7.1190    9.7490   25.1710 C   0  0  0  0  0  0  0  0  0  0  0  0
 10  8  1  0
  9  8  2  0
  7  8  1  6
  7  4  1  0
  4  3  1  0
  3  2  1  0
  2  1  2  0
  5  2  1  0
 11  5  1  0
 12 11  1  0
 12 16  2  0
 16 15  1  0
 15 14  1  0
 14 20  2  0
 20 19  1  0
 19 18  2  0
 18 17  1  0
 17 13  2  0
 13 12  1  0
 14 13  1  0
  6  5  1  0
  7  6  1  0
M  END
>  <id>  (393) 
393

>  <inchikey>  (393) 
YMUMSINAPOHSTF-JTQLQIEISA-N

>  <alias>  (393) 
A4537a

>  <smiles>  (393) 
NC(=O)[C@H]1CCC(=O)N(Cc2csc3ccccc23)C1

>  <path>  (393) 
/opt/xchem-fragalysis-2/maxwin/BulkDock/TARGETS/A71EV2A/aligned_files/A4537a/A4537a.pdb

>  <distance_score>  (393) 
None

>  <energy_score>  (393) 
None

>  <compound>  (393) 
YMUMSINAPOHSTF-UHFFFAOYSA-N

>  <compound_id>  (393) 
302

>  <target>  (393) 
A71EV2A

>  <tags>  (393) 
['GOOD count', 'MEDIOCRE count', '[Other] S1 site', 'hits', '[Other] S2 site', '[Other] P3 compound design', '[Other] upload_1 2025-02-12', 'Main status', '[Series] Piperidine series', 'BAD count']

>  <inspirations>  (393) 
None

>  <subsites>  (393) 
None

>  <reference>  (393) 


>  <observation_longname>  (393) 
A71EV2A-x4537_A_201_v1

>  <ConformerSites alias>  (393) 
1b - A0911/A/147

>  <CanonSites alias>  (393) 
1 - Active Site

>  <CrystalformSites alias>  (393) 
F2b - A0450/A/201

>  <Quatassemblies alias>  (393) 
A1 - monomer

>  <Crystalforms alias>  (393) 
F2 - A71_2A_open_small_cell

>  <ConformerSites upload name>  (393) 
1b - A71EV2A-x0911/A/147

>  <CanonSites upload name>  (393) 
1 - A71EV2A-x0911/A/147/1

>  <CrystalformSites upload name>  (393) 
F2b - A71EV2A-x0450/A/201/1

>  <Quatassemblies upload name>  (393) 
A1 - monomer

>  <Crystalforms upload name>  (393) 
F2 - A71_2A_open_small_cell

>  <ConformerSites short tag>  (393) 
1b - A0911/A/147

>  <CanonSites short tag>  (393) 
1 - A0911/A/147/1

>  <CrystalformSites short tag>  (393) 
F2b - A0450/A/201

>  <Quatassemblies short tag>  (393) 
A1 - monomer

>  <Crystalforms short tag>  (393) 
F2 - A71_2A_open_small_cell

>  <Centroid res>  (393) 
A71EV2A-x0911/A/133/A_v1

>  <Experiment code>  (393) 
A71EV2A-x4537

>  <Pose>  (393) 
A4537a

$$$$
A4538a
     RDKit          3D

 22 23  0  0  0  0  0  0  0  0999 V2000
    9.8220   10.8490   23.4240 Br  0  0  0  0  0  0  0  0  0  0  0  0
    8.3580   10.9920   24.6250 C   0  0  0  0  0  0  0  0  0  0  0  0
    7.6320    9.8520   24.9150 C   0  0  0  0  0  0  0  0  0  0  0  0
    8.0470    8.6660   24.4120 F   0  0  0  0  0  0  0  0  0  0  0  0
    6.5110    9.8900   25.7060 C   0  0  0  0  0  0  0  0  0  0  0  0
    6.1160   11.1080   26.2270 C   0  0  0  0  0  0  0  0  0  0  0  0
    6.8440   12.2580   25.9630 C   0  0  0  0  0  0  0  0  0  0  0  0
    7.9860   12.2360   25.1650 C   0  0  0  0  0  0  0  0  0  0  0  0
    8.7720   13.5110   24.9740 C   0  0  0  0  0  0  0  0  0  0  0  0
    8.2710   14.5050   25.7710 F   0  0  0  0  0  0  0  0  0  0  0  0
   10.0600   13.3280   25.3860 F   0  0  0  0  0  0  0  0  0  0  0  0
    8.7270   13.9710   23.4930 C   0  0  0  0  0  0  0  0  0  0  0  0
    7.9190   13.4110   22.7720 O   0  0  0  0  0  0  0  0  0  0  0  0
    9.5240   14.9540   23.0250 N   0  0  0  0  0  0  0  0  0  0  0  0
   10.5210   15.6990   23.8100 C   0  0  0  0  0  0  0  0  0  0  0  0
   11.9090   15.5060   23.2190 C   0  0  0  0  0  0  0  0  0  0  0  0
   11.9240   15.8900   21.7360 C   0  0  0  0  0  0  0  0  0  0  0  0
    9.4640   15.3910   21.6250 C   0  0  0  0  0  0  0  0  0  0  0  0
   10.8190   15.1780   20.9360 C   0  0  1  0  0  0  0  0  0  0  0  0
   10.8290   15.6080   19.4770 C   0  0  0  0  0  0  0  0  0  0  0  0
   10.5460   16.7640   19.1470 O   0  0  0  0  0  0  0  0  0  0  0  0
   11.1530   14.6760   18.5970 N   0  0  0  0  0  0  0  0  0  0  0  0
 22 20  1  0
 21 20  2  0
 19 20  1  6
 19 17  1  0
 17 16  1  0
 16 15  1  0
 15 14  1  0
 14 12  1  0
 13 12  2  0
 12  9  1  0
 10  9  1  0
 11  9  1  0
  9  8  1  0
  8  7  2  0
  7  6  1  0
  6  5  2  0
  5  3  1  0
  4  3  1  0
  3  2  2  0
  8  2  1  0
  2  1  1  0
 18 14  1  0
 19 18  1  0
M  END
>  <id>  (394) 
394

>  <inchikey>  (394) 
IYNYXVSXGLZHPJ-QMMMGPOBSA-N

>  <alias>  (394) 
A4538a

>  <smiles>  (394) 
NC(=O)[C@H]1CCCN(C(=O)C(F)(F)c2cccc(F)c2Br)C1

>  <path>  (394) 
/opt/xchem-fragalysis-2/maxwin/BulkDock/TARGETS/A71EV2A/aligned_files/A4538a/A4538a.pdb

>  <distance_score>  (394) 
None

>  <energy_score>  (394) 
None

>  <compound>  (394) 
IYNYXVSXGLZHPJ-UHFFFAOYSA-N

>  <compound_id>  (394) 
303

>  <target>  (394) 
A71EV2A

>  <tags>  (394) 
['GOOD count', 'MEDIOCRE count', '[Other] S1 site', 'hits', '[Other] S2 site', '[Other] P3 compound design', '[Other] upload_1 2025-02-12', 'Main status', '[Series] Piperidine series', 'BAD count']

>  <inspirations>  (394) 
None

>  <subsites>  (394) 
None

>  <reference>  (394) 


>  <observation_longname>  (394) 
A71EV2A-x4538_A_201_v1

>  <ConformerSites alias>  (394) 
1b - A0911/A/147

>  <CanonSites alias>  (394) 
1 - Active Site

>  <CrystalformSites alias>  (394) 
F8h - A0884/A/147

>  <Quatassemblies alias>  (394) 
A1 - monomer

>  <Crystalforms alias>  (394) 
F8 - A712A_x4271_2.1_refmac1_1st_ref

>  <ConformerSites upload name>  (394) 
1b - A71EV2A-x0911/A/147

>  <CanonSites upload name>  (394) 
1 - A71EV2A-x0911/A/147/1

>  <CrystalformSites upload name>  (394) 
F8h - A71EV2A-x0884/A/147/1

>  <Quatassemblies upload name>  (394) 
A1 - monomer

>  <Crystalforms upload name>  (394) 
F8 - A712A_x4271_2.1_refmac1_1st_ref

>  <ConformerSites short tag>  (394) 
1b - A0911/A/147

>  <CanonSites short tag>  (394) 
1 - A0911/A/147/1

>  <CrystalformSites short tag>  (394) 
F8h - A0884/A/147

>  <Quatassemblies short tag>  (394) 
A1 - monomer

>  <Crystalforms short tag>  (394) 
F8 - A712A_x4271_2.1_refmac1_1st_ref

>  <Centroid res>  (394) 
A71EV2A-x0911/A/133/A_v1

>  <Experiment code>  (394) 
A71EV2A-x4538

>  <Pose>  (394) 
A4538a

$$$$
A4540a
     RDKit          3D

 21 22  0  0  0  0  0  0  0  0999 V2000
    6.7300   13.0970   26.0590 O   0  0  0  0  0  0  0  0  0  0  0  0
    7.3130   12.1360   25.5730 C   0  0  0  0  0  0  0  0  0  0  0  0
    6.8450   10.7670   25.6400 C   0  0  0  0  0  0  0  0  0  0  0  0
    5.4600   10.4510   26.6220 Cl  0  0  0  0  0  0  0  0  0  0  0  0
    7.4730    9.7420   25.0310 C   0  0  0  0  0  0  0  0  0  0  0  0
    8.6540   10.0390   24.3410 C   0  0  0  0  0  0  0  0  0  0  0  0
    9.5580    8.6650   23.4340 Br  0  0  0  0  0  0  0  0  0  0  0  0
    9.1570   11.2820   24.2790 C   0  0  0  0  0  0  0  0  0  0  0  0
    8.5000   12.3120   24.8700 N   0  0  0  0  0  0  0  0  0  0  0  0
    9.0060   13.6710   24.7510 C   0  0  0  0  0  0  0  0  0  0  0  0
    8.8340   14.0210   23.2740 C   0  0  0  0  0  0  0  0  0  0  0  0
    8.0280   13.4200   22.5730 O   0  0  0  0  0  0  0  0  0  0  0  0
    9.6090   15.0110   22.7900 N   0  0  0  0  0  0  0  0  0  0  0  0
   10.6410   15.7270   23.5540 C   0  0  0  0  0  0  0  0  0  0  0  0
   11.9990   15.5680   22.8910 C   0  0  0  0  0  0  0  0  0  0  0  0
   11.9310   15.9340   21.4050 C   0  0  0  0  0  0  0  0  0  0  0  0
    9.5070   15.4310   21.3910 C   0  0  0  0  0  0  0  0  0  0  0  0
   10.8290   15.1530   20.6730 C   0  0  1  0  0  0  0  0  0  0  0  0
   10.7000   15.6130   19.2330 C   0  0  0  0  0  0  0  0  0  0  0  0
   10.2510   16.7270   18.9590 O   0  0  0  0  0  0  0  0  0  0  0  0
   11.0880   14.7450   18.3130 N   0  0  0  0  0  0  0  0  0  0  0  0
 21 19  1  0
 20 19  2  0
 18 19  1  6
 18 16  1  0
 16 15  1  0
 15 14  1  0
 14 13  1  0
 13 11  1  0
 12 11  2  0
 11 10  1  0
 10  9  1  0
  9  8  1  0
  8  6  2  0
  7  6  1  0
  6  5  1  0
  5  3  2  0
  4  3  1  0
  3  2  1  0
  9  2  1  0
  2  1  2  0
 17 13  1  0
 18 17  1  0
M  END
>  <id>  (395) 
395

>  <inchikey>  (395) 
QTECLDJRGCHWQA-QMMMGPOBSA-N

>  <alias>  (395) 
A4540a

>  <smiles>  (395) 
NC(=O)[C@H]1CCCN(C(=O)Cn2cc(Br)cc(Cl)c2=O)C1

>  <path>  (395) 
/opt/xchem-fragalysis-2/maxwin/BulkDock/TARGETS/A71EV2A/aligned_files/A4540a/A4540a.pdb

>  <distance_score>  (395) 
None

>  <energy_score>  (395) 
None

>  <compound>  (395) 
QTECLDJRGCHWQA-UHFFFAOYSA-N

>  <compound_id>  (395) 
304

>  <target>  (395) 
A71EV2A

>  <tags>  (395) 
['GOOD count', 'MEDIOCRE count', '[Other] S1 site', 'hits', '[Other] S2 site', '[Other] P3 compound design', '[Other] upload_1 2025-02-12', 'Main status', '[Series] Piperidine series', 'BAD count']

>  <inspirations>  (395) 
None

>  <subsites>  (395) 
None

>  <reference>  (395) 


>  <observation_longname>  (395) 
A71EV2A-x4540_A_201_v1

>  <ConformerSites alias>  (395) 
1b - A0911/A/147

>  <CanonSites alias>  (395) 
1 - Active Site

>  <CrystalformSites alias>  (395) 
F8h - A0884/A/147

>  <Quatassemblies alias>  (395) 
A1 - monomer

>  <Crystalforms alias>  (395) 
F8 - A712A_x4271_2.1_refmac1_1st_ref

>  <ConformerSites upload name>  (395) 
1b - A71EV2A-x0911/A/147

>  <CanonSites upload name>  (395) 
1 - A71EV2A-x0911/A/147/1

>  <CrystalformSites upload name>  (395) 
F8h - A71EV2A-x0884/A/147/1

>  <Quatassemblies upload name>  (395) 
A1 - monomer

>  <Crystalforms upload name>  (395) 
F8 - A712A_x4271_2.1_refmac1_1st_ref

>  <ConformerSites short tag>  (395) 
1b - A0911/A/147

>  <CanonSites short tag>  (395) 
1 - A0911/A/147/1

>  <CrystalformSites short tag>  (395) 
F8h - A0884/A/147

>  <Quatassemblies short tag>  (395) 
A1 - monomer

>  <Crystalforms short tag>  (395) 
F8 - A712A_x4271_2.1_refmac1_1st_ref

>  <Centroid res>  (395) 
A71EV2A-x0911/A/133/A_v1

>  <Experiment code>  (395) 
A71EV2A-x4540

>  <Pose>  (395) 
A4540a

$$$$
A4541a
     RDKit          3D

 20 21  0  0  0  0  0  0  0  0999 V2000
    9.2750   10.2130   23.3860 Cl  0  0  0  0  0  0  0  0  0  0  0  0
    8.0480   10.7240   24.4610 C   0  0  0  0  0  0  0  0  0  0  0  0
    7.0090    9.5740   25.1170 S   0  0  0  0  0  0  0  0  0  0  0  0
    6.1860   10.6910   26.0590 N   0  0  0  0  0  0  0  0  0  0  0  0
    6.6940   11.9270   25.8650 C   0  0  0  0  0  0  0  0  0  0  0  0
    7.7630   11.9650   24.9560 C   0  0  0  0  0  0  0  0  0  0  0  0
    8.5860   13.2000   24.6870 C   0  0  0  0  0  0  0  0  0  0  0  0
    8.2360   14.2050   25.5500 F   0  0  0  0  0  0  0  0  0  0  0  0
    9.9030   12.9370   24.9420 F   0  0  0  0  0  0  0  0  0  0  0  0
    8.4750   13.7680   23.2530 C   0  0  0  0  0  0  0  0  0  0  0  0
    7.6360   13.2820   22.5090 O   0  0  0  0  0  0  0  0  0  0  0  0
    9.2910   14.7730   22.8790 N   0  0  0  0  0  0  0  0  0  0  0  0
   10.2610   15.4520   23.7540 C   0  0  0  0  0  0  0  0  0  0  0  0
   11.6720   15.3220   23.2040 C   0  0  0  0  0  0  0  0  0  0  0  0
   11.7300   15.8140   21.7560 C   0  0  0  0  0  0  0  0  0  0  0  0
    9.2920   15.2520   21.4940 C   0  0  0  0  0  0  0  0  0  0  0  0
   10.6940   15.0740   20.8920 C   0  0  1  0  0  0  0  0  0  0  0  0
   10.7050   15.5690   19.4570 C   0  0  0  0  0  0  0  0  0  0  0  0
   10.3690   16.7230   19.1840 O   0  0  0  0  0  0  0  0  0  0  0  0
   11.0240   14.6710   18.5340 N   0  0  0  0  0  0  0  0  0  0  0  0
 20 18  1  0
 19 18  2  0
 17 18  1  6
 17 15  1  0
 15 14  1  0
 14 13  1  0
 13 12  1  0
 12 10  1  0
 11 10  2  0
 10  7  1  0
  8  7  1  0
  9  7  1  0
  7  6  1  0
  6  5  1  0
  5  4  2  0
  4  3  1  0
  3  2  1  0
  6  2  2  0
  2  1  1  0
 16 12  1  0
 17 16  1  0
M  END
>  <id>  (396) 
396

>  <inchikey>  (396) 
GAJBKOBGGSAGFE-LURJTMIESA-N

>  <alias>  (396) 
A4541a

>  <smiles>  (396) 
NC(=O)[C@H]1CCCN(C(=O)C(F)(F)c2cnsc2Cl)C1

>  <path>  (396) 
/opt/xchem-fragalysis-2/maxwin/BulkDock/TARGETS/A71EV2A/aligned_files/A4541a/A4541a_hippo.pdb

>  <distance_score>  (396) 
None

>  <energy_score>  (396) 
None

>  <compound>  (396) 
GAJBKOBGGSAGFE-UHFFFAOYSA-N

>  <compound_id>  (396) 
297

>  <target>  (396) 
A71EV2A

>  <tags>  (396) 
['GOOD count', 'MEDIOCRE count', '[Other] S1 site', 'hits', '[Other] S2 site', '[Other] P3 compound design', '[Other] upload_1 2025-02-12', 'Main status', '[Series] Piperidine series', 'BAD count']

>  <inspirations>  (396) 
None

>  <subsites>  (396) 
None

>  <reference>  (396) 


>  <observation_longname>  (396) 
A71EV2A-x4541_A_201_v1

>  <ConformerSites alias>  (396) 
1b - A0911/A/147

>  <CanonSites alias>  (396) 
1 - Active Site

>  <CrystalformSites alias>  (396) 
F7q - A4303/A/201

>  <Quatassemblies alias>  (396) 
A1 - monomer

>  <Crystalforms alias>  (396) 
F7 - A712A_x4207_8.1_refmac1_1st_ref

>  <ConformerSites upload name>  (396) 
1b - A71EV2A-x0911/A/147

>  <CanonSites upload name>  (396) 
1 - A71EV2A-x0911/A/147/1

>  <CrystalformSites upload name>  (396) 
F7q - A71EV2A-x4303/A/201/1

>  <Quatassemblies upload name>  (396) 
A1 - monomer

>  <Crystalforms upload name>  (396) 
F7 - A712A_x4207_8.1_refmac1_1st_ref

>  <ConformerSites short tag>  (396) 
1b - A0911/A/147

>  <CanonSites short tag>  (396) 
1 - A0911/A/147/1

>  <CrystalformSites short tag>  (396) 
F7q - A4303/A/201

>  <Quatassemblies short tag>  (396) 
A1 - monomer

>  <Crystalforms short tag>  (396) 
F7 - A712A_x4207_8.1_refmac1_1st_ref

>  <Centroid res>  (396) 
A71EV2A-x0911/A/133/A_v1

>  <Experiment code>  (396) 
A71EV2A-x4541

>  <Pose>  (396) 
A4541a

$$$$
A4541b
     RDKit          3D

 20 21  0  0  0  0  0  0  0  0999 V2000
    9.5250   10.1860   23.4270 Cl  0  0  0  0  0  0  0  0  0  0  0  0
    8.3200   10.7160   24.5250 C   0  0  0  0  0  0  0  0  0  0  0  0
    7.2550    9.5870   25.1990 S   0  0  0  0  0  0  0  0  0  0  0  0
    6.4770   10.6900   26.1590 N   0  0  0  0  0  0  0  0  0  0  0  0
    7.0050   11.9100   25.9620 C   0  0  0  0  0  0  0  0  0  0  0  0
    8.0620   11.9570   25.0380 C   0  0  0  0  0  0  0  0  0  0  0  0
    8.8990   13.1910   24.7670 C   0  0  0  0  0  0  0  0  0  0  0  0
    8.5680   14.1930   25.6400 F   0  0  0  0  0  0  0  0  0  0  0  0
   10.2190   12.9250   25.0000 F   0  0  0  0  0  0  0  0  0  0  0  0
    8.7760   13.7420   23.3270 C   0  0  0  0  0  0  0  0  0  0  0  0
    7.9300   13.2520   22.6050 O   0  0  0  0  0  0  0  0  0  0  0  0
    9.5830   14.7460   22.9340 N   0  0  0  0  0  0  0  0  0  0  0  0
   10.5340   15.4750   23.7860 C   0  0  0  0  0  0  0  0  0  0  0  0
   11.9340   15.3950   23.2020 C   0  0  0  0  0  0  0  0  0  0  0  0
   11.9400   15.8560   21.7430 C   0  0  0  0  0  0  0  0  0  0  0  0
    9.5350   15.2240   21.5510 C   0  0  0  0  0  0  0  0  0  0  0  0
   10.9110   15.0740   20.9020 C   0  0  1  0  0  0  0  0  0  0  0  0
   10.8510   15.5880   19.4740 C   0  0  0  0  0  0  0  0  0  0  0  0
   10.4940   16.7450   19.2310 O   0  0  0  0  0  0  0  0  0  0  0  0
   11.1420   14.7060   18.5260 N   0  0  0  0  0  0  0  0  0  0  0  0
 20 18  1  0
 19 18  2  0
 17 18  1  6
 17 15  1  0
 15 14  1  0
 14 13  1  0
 13 12  1  0
 12 10  1  0
 11 10  2  0
 10  7  1  0
  8  7  1  0
  9  7  1  0
  7  6  1  0
  6  5  1  0
  5  4  2  0
  4  3  1  0
  3  2  1  0
  6  2  2  0
  2  1  1  0
 16 12  1  0
 17 16  1  0
M  END
>  <id>  (397) 
397

>  <inchikey>  (397) 
GAJBKOBGGSAGFE-LURJTMIESA-N

>  <alias>  (397) 
A4541b

>  <smiles>  (397) 
NC(=O)[C@H]1CCCN(C(=O)C(F)(F)c2cnsc2Cl)C1

>  <path>  (397) 
/opt/xchem-fragalysis-2/maxwin/BulkDock/TARGETS/A71EV2A/aligned_files/A4541b/A4541b_hippo.pdb

>  <distance_score>  (397) 
None

>  <energy_score>  (397) 
None

>  <compound>  (397) 
GAJBKOBGGSAGFE-UHFFFAOYSA-N

>  <compound_id>  (397) 
297

>  <target>  (397) 
A71EV2A

>  <tags>  (397) 
['GOOD count', 'MEDIOCRE count', '[Other] S1 site', 'hits', '[Other] S2 site', '[Other] P3 compound design', '[Other] upload_1 2025-02-12', 'Main status', '[Series] Piperidine series', 'BAD count']

>  <inspirations>  (397) 
None

>  <subsites>  (397) 
None

>  <reference>  (397) 


>  <observation_longname>  (397) 
A71EV2A-x4541_C_201_v1

>  <ConformerSites alias>  (397) 
1b - A0911/A/147

>  <CanonSites alias>  (397) 
1 - Active Site

>  <CrystalformSites alias>  (397) 
F7r - A4303/C/201

>  <Quatassemblies alias>  (397) 
A1 - monomer

>  <Crystalforms alias>  (397) 
F7 - A712A_x4207_8.1_refmac1_1st_ref

>  <ConformerSites upload name>  (397) 
1b - A71EV2A-x0911/A/147

>  <CanonSites upload name>  (397) 
1 - A71EV2A-x0911/A/147/1

>  <CrystalformSites upload name>  (397) 
F7r - A71EV2A-x4303/C/201/1

>  <Quatassemblies upload name>  (397) 
A1 - monomer

>  <Crystalforms upload name>  (397) 
F7 - A712A_x4207_8.1_refmac1_1st_ref

>  <ConformerSites short tag>  (397) 
1b - A0911/A/147

>  <CanonSites short tag>  (397) 
1 - A0911/A/147/1

>  <CrystalformSites short tag>  (397) 
F7r - A4303/C/201

>  <Quatassemblies short tag>  (397) 
A1 - monomer

>  <Crystalforms short tag>  (397) 
F7 - A712A_x4207_8.1_refmac1_1st_ref

>  <Centroid res>  (397) 
A71EV2A-x0911/A/133/A_v1

>  <Experiment code>  (397) 
A71EV2A-x4541

>  <Pose>  (397) 
A4541a

$$$$
A4544a
     RDKit          3D

 23 24  0  0  0  0  0  0  0  0999 V2000
   10.3400   16.9390   19.1580 O   0  0  0  0  0  0  0  0  0  0  0  0
   10.6690   15.7790   19.4210 C   0  0  0  0  0  0  0  0  0  0  0  0
   10.9510   14.8790   18.4940 N   0  0  0  0  0  0  0  0  0  0  0  0
   10.7560   15.2940   20.8570 C   0  0  1  0  0  0  0  0  0  0  0  0
   11.9570   15.9140   21.5890 C   0  0  0  0  0  0  0  0  0  0  0  0
   12.0250   15.4790   23.0620 C   0  0  0  0  0  0  0  0  0  0  0  0
   10.6990   15.7080   23.7670 C   0  0  0  0  0  0  0  0  0  0  0  0
    9.4950   15.6760   21.6360 C   0  0  0  0  0  0  0  0  0  0  0  0
    9.5950   15.1290   22.9910 N   0  0  0  0  0  0  0  0  0  0  0  0
    8.7600   14.1560   23.4030 C   0  0  0  0  0  0  0  0  0  0  0  0
    7.9630   13.6220   22.6470 O   0  0  0  0  0  0  0  0  0  0  0  0
    8.8600   13.7290   24.8540 C   0  0  0  0  0  0  0  0  0  0  0  0
    8.3170   12.3270   25.0070 C   0  0  0  0  0  0  0  0  0  0  0  0
    7.0640   12.0110   25.5500 C   0  0  0  0  0  0  0  0  0  0  0  0
    5.9350   13.2270   26.1680 S   0  0  0  0  0  0  0  0  0  0  0  0
    4.8110   12.5240   26.7190 O   0  0  0  0  0  0  0  0  0  0  0  0
    6.6580   14.1220   27.0290 O   0  0  0  0  0  0  0  0  0  0  0  0
    5.3830   14.1360   24.7730 C   0  0  0  0  0  0  0  0  0  0  0  0
    9.0510   11.2880   24.4400 C   0  0  0  0  0  0  0  0  0  0  0  0
    8.5280   10.0190   24.3890 C   0  0  0  0  0  0  0  0  0  0  0  0
    9.4710    8.6830   23.4280 Br  0  0  0  0  0  0  0  0  0  0  0  0
    7.3140    9.7100   24.9480 C   0  0  0  0  0  0  0  0  0  0  0  0
    6.5830   10.7110   25.5550 C   0  0  0  0  0  0  0  0  0  0  0  0
 18 15  1  0
 16 15  2  0
 17 15  2  0
 15 14  1  0
 14 23  2  0
 23 22  1  0
 22 20  2  0
 21 20  1  0
 20 19  1  0
 19 13  2  0
 14 13  1  0
 13 12  1  0
 12 10  1  0
 11 10  2  0
 10  9  1  0
  9  7  1  0
  7  6  1  0
  6  5  1  0
  5  4  1  0
  4  2  1  6
  3  2  1  0
  2  1  2  0
  8  4  1  0
  9  8  1  0
M  END
>  <id>  (398) 
398

>  <inchikey>  (398) 
YUPOYLBRRMVTGP-JTQLQIEISA-N

>  <alias>  (398) 
A4544a

>  <smiles>  (398) 
CS(=O)(=O)c1ccc(Br)cc1CC(=O)N1CCC[C@H](C(N)=O)C1

>  <path>  (398) 
/opt/xchem-fragalysis-2/maxwin/BulkDock/TARGETS/A71EV2A/aligned_files/A4544a/A4544a.pdb

>  <distance_score>  (398) 
None

>  <energy_score>  (398) 
None

>  <compound>  (398) 
YUPOYLBRRMVTGP-UHFFFAOYSA-N

>  <compound_id>  (398) 
305

>  <target>  (398) 
A71EV2A

>  <tags>  (398) 
['GOOD count', 'MEDIOCRE count', '[Other] S1 site', 'hits', '[Other] S2 site', '[Other] P3 compound design', '[Other] upload_1 2025-02-12', 'Main status', '[Series] Piperidine series', 'BAD count']

>  <inspirations>  (398) 
None

>  <subsites>  (398) 
None

>  <reference>  (398) 


>  <observation_longname>  (398) 
A71EV2A-x4544_A_201_v1

>  <ConformerSites alias>  (398) 
1b - A0911/A/147

>  <CanonSites alias>  (398) 
1 - Active Site

>  <CrystalformSites alias>  (398) 
F8h - A0884/A/147

>  <Quatassemblies alias>  (398) 
A1 - monomer

>  <Crystalforms alias>  (398) 
F8 - A712A_x4271_2.1_refmac1_1st_ref

>  <ConformerSites upload name>  (398) 
1b - A71EV2A-x0911/A/147

>  <CanonSites upload name>  (398) 
1 - A71EV2A-x0911/A/147/1

>  <CrystalformSites upload name>  (398) 
F8h - A71EV2A-x0884/A/147/1

>  <Quatassemblies upload name>  (398) 
A1 - monomer

>  <Crystalforms upload name>  (398) 
F8 - A712A_x4271_2.1_refmac1_1st_ref

>  <ConformerSites short tag>  (398) 
1b - A0911/A/147

>  <CanonSites short tag>  (398) 
1 - A0911/A/147/1

>  <CrystalformSites short tag>  (398) 
F8h - A0884/A/147

>  <Quatassemblies short tag>  (398) 
A1 - monomer

>  <Crystalforms short tag>  (398) 
F8 - A712A_x4271_2.1_refmac1_1st_ref

>  <Centroid res>  (398) 
A71EV2A-x0911/A/133/A_v1

>  <Experiment code>  (398) 
A71EV2A-x4544

>  <Pose>  (398) 
A4544a

$$$$
A4546a
     RDKit          3D

 20 22  0  0  0  0  0  0  0  0999 V2000
   11.5350   14.5940   24.9000 O   0  0  0  0  0  0  0  0  0  0  0  0
   11.3760   14.8610   23.7140 C   0  0  0  0  0  0  0  0  0  0  0  0
   12.4640   15.5690   22.9400 C   0  0  0  0  0  0  0  0  0  0  0  0
   12.1050   15.9900   21.5120 C   0  0  0  0  0  0  0  0  0  0  0  0
   10.2250   14.5750   23.0540 N   0  0  0  0  0  0  0  0  0  0  0  0
    9.9490   14.7710   21.6240 C   0  0  0  0  0  0  0  0  0  0  0  0
   11.2230   14.9580   20.7920 C   0  0  1  0  0  0  0  0  0  0  0  0
   10.8510   15.4280   19.3950 C   0  0  0  0  0  0  0  0  0  0  0  0
   10.2640   16.4990   19.2130 O   0  0  0  0  0  0  0  0  0  0  0  0
   11.1950   14.6320   18.4020 N   0  0  0  0  0  0  0  0  0  0  0  0
    9.0460   14.1660   23.8280 C   0  0  0  0  0  0  0  0  0  0  0  0
    8.8530   12.6700   23.9110 C   0  0  0  0  0  0  0  0  0  0  0  0
    7.9000   12.1080   24.7740 C   0  0  0  0  0  0  0  0  0  0  0  0
    7.0180   12.7180   25.6380 N   0  0  0  0  0  0  0  0  0  0  0  0
    6.3040   11.7480   26.2950 C   0  0  0  0  0  0  0  0  0  0  0  0
    6.6970   10.5180   25.8790 C   0  0  0  0  0  0  0  0  0  0  0  0
    7.7290   10.7130   24.9020 C   0  0  0  0  0  0  0  0  0  0  0  0
    8.5500    9.8750   24.1420 C   0  0  0  0  0  0  0  0  0  0  0  0
    9.4990   10.4140   23.2860 C   0  0  0  0  0  0  0  0  0  0  0  0
    9.6440   11.7900   23.1700 C   0  0  0  0  0  0  0  0  0  0  0  0
 10  8  1  0
  9  8  2  0
  7  8  1  6
  7  4  1  0
  4  3  1  0
  3  2  1  0
  2  1  2  0
  5  2  1  0
 11  5  1  0
 12 11  1  0
 12 20  1  0
 20 19  2  0
 19 18  1  0
 18 17  2  0
 17 16  1  0
 16 15  2  0
 15 14  1  0
 14 13  1  0
 13 12  2  0
 17 13  1  0
  6  5  1  0
  7  6  1  0
M  END
>  <id>  (399) 
399

>  <inchikey>  (399) 
RWCNWFREGHVLHP-LBPRGKRZSA-N

>  <alias>  (399) 
A4546a

>  <smiles>  (399) 
NC(=O)[C@H]1CCC(=O)N(Cc2cccc3cc[nH]c23)C1

>  <path>  (399) 
/opt/xchem-fragalysis-2/maxwin/BulkDock/TARGETS/A71EV2A/aligned_files/A4546a/A4546a.pdb

>  <distance_score>  (399) 
None

>  <energy_score>  (399) 
None

>  <compound>  (399) 
RWCNWFREGHVLHP-UHFFFAOYSA-N

>  <compound_id>  (399) 
291

>  <target>  (399) 
A71EV2A

>  <tags>  (399) 
['GOOD count', 'MEDIOCRE count', '[Other] S1 site', 'hits', '[Other] S2 site', '[Other] upload_6_2025-02-13', '[Other] P3 compound design', '[Series] Piperidine series', 'Main status', 'BAD count']

>  <inspirations>  (399) 
None

>  <subsites>  (399) 
None

>  <reference>  (399) 


>  <observation_longname>  (399) 
A71EV2A-x4546_A_201_v1

>  <ConformerSites alias>  (399) 
1b - A0911/A/147

>  <CanonSites alias>  (399) 
1 - Active Site

>  <CrystalformSites alias>  (399) 
F8h - A0884/A/147

>  <Quatassemblies alias>  (399) 
A1 - monomer

>  <Crystalforms alias>  (399) 
F8 - A712A_x4271_2.1_refmac1_1st_ref

>  <ConformerSites upload name>  (399) 
1b - A71EV2A-x0911/A/147

>  <CanonSites upload name>  (399) 
1 - A71EV2A-x0911/A/147/1

>  <CrystalformSites upload name>  (399) 
F8h - A71EV2A-x0884/A/147/1

>  <Quatassemblies upload name>  (399) 
A1 - monomer

>  <Crystalforms upload name>  (399) 
F8 - A712A_x4271_2.1_refmac1_1st_ref

>  <ConformerSites short tag>  (399) 
1b - A0911/A/147

>  <CanonSites short tag>  (399) 
1 - A0911/A/147/1

>  <CrystalformSites short tag>  (399) 
F8h - A0884/A/147

>  <Quatassemblies short tag>  (399) 
A1 - monomer

>  <Crystalforms short tag>  (399) 
F8 - A712A_x4271_2.1_refmac1_1st_ref

>  <Centroid res>  (399) 
A71EV2A-x0911/A/133/A_v1

>  <Experiment code>  (399) 
A71EV2A-x4546

>  <Pose>  (399) 
A4546a

$$$$
A4547a
     RDKit          3D

 21 23  0  0  0  0  0  0  0  0999 V2000
   11.3730   14.7090   24.9610 O   0  0  0  0  0  0  0  0  0  0  0  0
   11.2520   14.7840   23.7420 C   0  0  0  0  0  0  0  0  0  0  0  0
   12.4750   14.9930   22.8790 C   0  0  0  0  0  0  0  0  0  0  0  0
   12.2860   14.8500   21.3610 C   0  0  0  0  0  0  0  0  0  0  0  0
   10.9440   15.4410   20.9680 C   0  0  1  0  0  0  0  0  0  0  0  0
   10.7410   15.5800   19.4700 C   0  0  0  0  0  0  0  0  0  0  0  0
   10.1360   16.5470   19.0240 O   0  0  0  0  0  0  0  0  0  0  0  0
   11.2090   14.6100   18.6890 N   0  0  0  0  0  0  0  0  0  0  0  0
    9.7970   14.7320   21.6810 C   0  0  0  0  0  0  0  0  0  0  0  0
   10.0470   14.6840   23.1260 N   0  0  0  0  0  0  0  0  0  0  0  0
    8.8710   14.3860   23.9180 C   0  0  0  0  0  0  0  0  0  0  0  0
    8.5580   12.9110   24.0310 C   0  0  0  0  0  0  0  0  0  0  0  0
    9.2370   12.0100   23.3570 N   0  0  0  0  0  0  0  0  0  0  0  0
    7.5610   12.2860   24.8510 C   0  0  0  0  0  0  0  0  0  0  0  0
    7.6870   10.9170   24.5980 C   0  0  0  0  0  0  0  0  0  0  0  0
    8.7040   10.7900   23.7020 N   0  0  0  0  0  0  0  0  0  0  0  0
    9.3180    9.5620   23.2130 C   0  0  0  0  0  0  0  0  0  0  0  0
    6.9100    9.9730   25.2530 C   0  0  0  0  0  0  0  0  0  0  0  0
    6.0030   10.4230   26.2060 C   0  0  0  0  0  0  0  0  0  0  0  0
    5.8690   11.7850   26.4780 C   0  0  0  0  0  0  0  0  0  0  0  0
    6.6380   12.7200   25.7970 C   0  0  0  0  0  0  0  0  0  0  0  0
 17 16  1  0
 16 13  1  0
 13 12  2  0
 12 11  1  0
 11 10  1  0
 10  9  1  0
  9  5  1  0
  5  6  1  6
  8  6  1  0
  7  6  2  0
  5  4  1  0
  4  3  1  0
  3  2  1  0
 10  2  1  0
  2  1  2  0
 14 12  1  0
 14 21  2  0
 21 20  1  0
 20 19  2  0
 19 18  1  0
 18 15  2  0
 15 14  1  0
 16 15  1  0
M  END
>  <id>  (400) 
400

>  <inchikey>  (400) 
UHXKXPHIDBJBOP-SNVBAGLBSA-N

>  <alias>  (400) 
A4547a

>  <smiles>  (400) 
Cn1nc(CN2C[C@H](C(N)=O)CCC2=O)c2ccccc21

>  <path>  (400) 
/opt/xchem-fragalysis-2/maxwin/BulkDock/TARGETS/A71EV2A/aligned_files/A4547a/A4547a.pdb

>  <distance_score>  (400) 
None

>  <energy_score>  (400) 
None

>  <compound>  (400) 
UHXKXPHIDBJBOP-UHFFFAOYSA-N

>  <compound_id>  (400) 
306

>  <target>  (400) 
A71EV2A

>  <tags>  (400) 
['GOOD count', 'MEDIOCRE count', '[Other] S1 site', 'hits', '[Other] S2 site', '[Other] P3 compound design', '[Other] upload_1 2025-02-12', 'Main status', '[Series] Piperidine series', 'BAD count']

>  <inspirations>  (400) 
None

>  <subsites>  (400) 
None

>  <reference>  (400) 


>  <observation_longname>  (400) 
A71EV2A-x4547_A_201_v1

>  <ConformerSites alias>  (400) 
1b - A0911/A/147

>  <CanonSites alias>  (400) 
1 - Active Site

>  <CrystalformSites alias>  (400) 
F1a - A0375/A/201

>  <Quatassemblies alias>  (400) 
A1 - monomer

>  <Crystalforms alias>  (400) 
F1 - A71_2A_open

>  <ConformerSites upload name>  (400) 
1b - A71EV2A-x0911/A/147

>  <CanonSites upload name>  (400) 
1 - A71EV2A-x0911/A/147/1

>  <CrystalformSites upload name>  (400) 
F1a - A71EV2A-x0375/A/201/1

>  <Quatassemblies upload name>  (400) 
A1 - monomer

>  <Crystalforms upload name>  (400) 
F1 - A71_2A_open

>  <ConformerSites short tag>  (400) 
1b - A0911/A/147

>  <CanonSites short tag>  (400) 
1 - A0911/A/147/1

>  <CrystalformSites short tag>  (400) 
F1a - A0375/A/201

>  <Quatassemblies short tag>  (400) 
A1 - monomer

>  <Crystalforms short tag>  (400) 
F1 - A71_2A_open

>  <Centroid res>  (400) 
A71EV2A-x0911/A/133/A_v1

>  <Experiment code>  (400) 
A71EV2A-x4547

>  <Pose>  (400) 
A4547a

$$$$
A4554a
     RDKit          3D

 22 23  0  0  0  0  0  0  0  0999 V2000
   10.8010   14.8080   18.3330 O   0  0  0  0  0  0  0  0  0  0  0  0
   10.6560   15.5990   19.2630 C   0  0  0  0  0  0  0  0  0  0  0  0
   10.6230   16.9070   19.0850 N   0  0  0  0  0  0  0  0  0  0  0  0
   10.5360   15.1080   20.6960 C   0  0  1  0  0  0  0  0  0  0  0  0
   11.7390   15.5630   21.5380 C   0  0  0  0  0  0  0  0  0  0  0  0
   11.6750   15.0310   22.9720 C   0  0  0  0  0  0  0  0  0  0  0  0
   10.3390   15.3590   23.6180 C   0  0  0  0  0  0  0  0  0  0  0  0
    9.2450   15.5100   21.4180 C   0  0  0  0  0  0  0  0  0  0  0  0
    9.2190   14.9290   22.7640 N   0  0  0  0  0  0  0  0  0  0  0  0
    8.3850   13.8840   23.0580 C   0  0  0  0  0  0  0  0  0  0  0  0
    7.6190   13.4200   22.2240 O   0  0  0  0  0  0  0  0  0  0  0  0
    8.4690   13.3970   24.3210 N   0  0  0  0  0  0  0  0  0  0  0  0
    7.6550   12.3740   24.8980 C   0  0  0  0  0  0  0  0  0  0  0  0
    6.6150   12.7260   25.7660 C   0  0  0  0  0  0  0  0  0  0  0  0
    6.3190   14.0640   25.8120 O   0  0  0  0  0  0  0  0  0  0  0  0
    6.9830   14.8630   26.7940 C   0  0  0  0  0  0  0  0  0  0  0  0
    7.9470   11.0110   24.6810 C   0  0  0  0  0  0  0  0  0  0  0  0
    9.2540   10.5420   23.5890 S   0  0  0  0  0  0  0  0  0  0  0  0
   10.6260   11.5590   24.1060 C   0  0  0  0  0  0  0  0  0  0  0  0
    7.2040   10.0350   25.3430 C   0  0  0  0  0  0  0  0  0  0  0  0
    6.1990   10.4070   26.2210 C   0  0  0  0  0  0  0  0  0  0  0  0
    5.9040   11.7420   26.4360 C   0  0  0  0  0  0  0  0  0  0  0  0
 16 15  1  0
 15 14  1  0
 14 22  2  0
 22 21  1  0
 21 20  2  0
 20 17  1  0
 18 17  1  0
 19 18  1  0
 17 13  2  0
 14 13  1  0
 13 12  1  0
 12 10  1  0
 11 10  2  0
 10  9  1  0
  9  7  1  0
  7  6  1  0
  6  5  1  0
  5  4  1  0
  4  2  1  6
  3  2  1  0
  2  1  2  0
  8  4  1  0
  9  8  1  0
M  END
>  <id>  (401) 
401

>  <inchikey>  (401) 
UWEZCQKXPKGRPJ-JTQLQIEISA-N

>  <alias>  (401) 
A4554a

>  <smiles>  (401) 
COc1cccc(SC)c1NC(=O)N1CCC[C@H](C(N)=O)C1

>  <path>  (401) 
/opt/xchem-fragalysis-2/maxwin/BulkDock/TARGETS/A71EV2A/aligned_files/A4554a/A4554a.pdb

>  <distance_score>  (401) 
None

>  <energy_score>  (401) 
None

>  <compound>  (401) 
UWEZCQKXPKGRPJ-UHFFFAOYSA-N

>  <compound_id>  (401) 
307

>  <target>  (401) 
A71EV2A

>  <tags>  (401) 
['GOOD count', 'MEDIOCRE count', '[Other] S1 site', 'hits', '[Other] S2 site', '[Other] P3 compound design', '[Other] upload_1 2025-02-12', 'Main status', '[Series] Piperidine series', 'BAD count']

>  <inspirations>  (401) 
None

>  <subsites>  (401) 
None

>  <reference>  (401) 


>  <observation_longname>  (401) 
A71EV2A-x4554_A_201_v1

>  <ConformerSites alias>  (401) 
1b - A0911/A/147

>  <CanonSites alias>  (401) 
1 - Active Site

>  <CrystalformSites alias>  (401) 
F8h - A0884/A/147

>  <Quatassemblies alias>  (401) 
A1 - monomer

>  <Crystalforms alias>  (401) 
F8 - A712A_x4271_2.1_refmac1_1st_ref

>  <ConformerSites upload name>  (401) 
1b - A71EV2A-x0911/A/147

>  <CanonSites upload name>  (401) 
1 - A71EV2A-x0911/A/147/1

>  <CrystalformSites upload name>  (401) 
F8h - A71EV2A-x0884/A/147/1

>  <Quatassemblies upload name>  (401) 
A1 - monomer

>  <Crystalforms upload name>  (401) 
F8 - A712A_x4271_2.1_refmac1_1st_ref

>  <ConformerSites short tag>  (401) 
1b - A0911/A/147

>  <CanonSites short tag>  (401) 
1 - A0911/A/147/1

>  <CrystalformSites short tag>  (401) 
F8h - A0884/A/147

>  <Quatassemblies short tag>  (401) 
A1 - monomer

>  <Crystalforms short tag>  (401) 
F8 - A712A_x4271_2.1_refmac1_1st_ref

>  <Centroid res>  (401) 
A71EV2A-x0911/A/133/A_v1

>  <Experiment code>  (401) 
A71EV2A-x4554

>  <Pose>  (401) 
A4554a

$$$$
A4559a
     RDKit          3D

 22 24  0  0  0  0  0  0  0  0999 V2000
   10.3510   16.6780   19.1580 O   0  0  0  0  0  0  0  0  0  0  0  0
   10.7120   15.5250   19.4040 C   0  0  0  0  0  0  0  0  0  0  0  0
   10.9840   14.6350   18.4580 N   0  0  0  0  0  0  0  0  0  0  0  0
   10.7990   15.0200   20.8330 C   0  0  1  0  0  0  0  0  0  0  0  0
   11.9380   15.7030   21.6080 C   0  0  0  0  0  0  0  0  0  0  0  0
   11.9840   15.2020   23.0540 C   0  0  0  0  0  0  0  0  0  0  0  0
   10.6180   15.3620   23.7240 C   0  0  0  0  0  0  0  0  0  0  0  0
    9.4610   15.2590   21.5390 C   0  0  0  0  0  0  0  0  0  0  0  0
    9.5520   14.7540   22.9110 N   0  0  0  0  0  0  0  0  0  0  0  0
    8.7910   13.7100   23.2990 C   0  0  0  0  0  0  0  0  0  0  0  0
    7.8750   13.2730   22.6180 O   0  0  0  0  0  0  0  0  0  0  0  0
    9.1290   13.0860   24.6470 C   0  0  0  0  0  0  0  0  0  0  0  0
    8.2700   11.9270   24.8710 N   0  0  0  0  0  0  0  0  0  0  0  0
    7.0970   11.9080   25.6050 C   0  0  0  0  0  0  0  0  0  0  0  0
    6.3350   12.9420   26.1310 C   0  0  0  0  0  0  0  0  0  0  0  0
    5.1750   12.6230   26.8190 C   0  0  0  0  0  0  0  0  0  0  0  0
    8.5870   10.6270   24.5320 C   0  0  0  0  0  0  0  0  0  0  0  0
    7.6820    9.7740   25.0550 C   0  0  0  0  0  0  0  0  0  0  0  0
    6.7110   10.5680   25.7540 C   0  0  0  0  0  0  0  0  0  0  0  0
    5.5420   10.2880   26.4530 C   0  0  0  0  0  0  0  0  0  0  0  0
    4.7540   11.3040   26.9770 C   0  0  0  0  0  0  0  0  0  0  0  0
    3.4310   10.9880   27.6330 C   0  0  0  0  0  0  0  0  0  0  0  0
 22 21  1  0
 21 16  1  0
 16 15  2  0
 15 14  1  0
 14 19  2  0
 19 18  1  0
 18 17  2  0
 17 13  1  0
 14 13  1  0
 13 12  1  0
 12 10  1  0
 11 10  2  0
 10  9  1  0
  9  7  1  0
  7  6  1  0
  6  5  1  0
  5  4  1  0
  4  2  1  6
  3  2  1  0
  2  1  2  0
  8  4  1  0
  9  8  1  0
 20 19  1  0
 21 20  2  0
M  END
>  <id>  (402) 
402

>  <inchikey>  (402) 
YRQRTFXUBOFTEB-AWEZNQCLSA-N

>  <alias>  (402) 
A4559a

>  <smiles>  (402) 
Cc1ccc2c(ccn2CC(=O)N2CCC[C@H](C(N)=O)C2)c1

>  <path>  (402) 
/opt/xchem-fragalysis-2/maxwin/BulkDock/TARGETS/A71EV2A/aligned_files/A4559a/A4559a_hippo.pdb

>  <distance_score>  (402) 
None

>  <energy_score>  (402) 
None

>  <compound>  (402) 
YRQRTFXUBOFTEB-UHFFFAOYSA-N

>  <compound_id>  (402) 
308

>  <target>  (402) 
A71EV2A

>  <tags>  (402) 
['GOOD count', 'MEDIOCRE count', '[Other] S1 site', 'hits', '[Other] S2 site', '[Other] P3 compound design', '[Other] upload_1 2025-02-12', 'Main status', '[Series] Piperidine series', 'BAD count']

>  <inspirations>  (402) 
None

>  <subsites>  (402) 
None

>  <reference>  (402) 


>  <observation_longname>  (402) 
A71EV2A-x4559_A_201_v1

>  <ConformerSites alias>  (402) 
1b - A0911/A/147

>  <CanonSites alias>  (402) 
1 - Active Site

>  <CrystalformSites alias>  (402) 
F7q - A4303/A/201

>  <Quatassemblies alias>  (402) 
A1 - monomer

>  <Crystalforms alias>  (402) 
F7 - A712A_x4207_8.1_refmac1_1st_ref

>  <ConformerSites upload name>  (402) 
1b - A71EV2A-x0911/A/147

>  <CanonSites upload name>  (402) 
1 - A71EV2A-x0911/A/147/1

>  <CrystalformSites upload name>  (402) 
F7q - A71EV2A-x4303/A/201/1

>  <Quatassemblies upload name>  (402) 
A1 - monomer

>  <Crystalforms upload name>  (402) 
F7 - A712A_x4207_8.1_refmac1_1st_ref

>  <ConformerSites short tag>  (402) 
1b - A0911/A/147

>  <CanonSites short tag>  (402) 
1 - A0911/A/147/1

>  <CrystalformSites short tag>  (402) 
F7q - A4303/A/201

>  <Quatassemblies short tag>  (402) 
A1 - monomer

>  <Crystalforms short tag>  (402) 
F7 - A712A_x4207_8.1_refmac1_1st_ref

>  <Centroid res>  (402) 
A71EV2A-x0911/A/133/A_v1

>  <Experiment code>  (402) 
A71EV2A-x4559

>  <Pose>  (402) 
A4559a

$$$$
A4559b
     RDKit          3D

 22 24  0  0  0  0  0  0  0  0999 V2000
   10.3530   16.7250   19.1580 O   0  0  0  0  0  0  0  0  0  0  0  0
   10.7150   15.5670   19.3960 C   0  0  0  0  0  0  0  0  0  0  0  0
   10.9520   14.6670   18.4500 N   0  0  0  0  0  0  0  0  0  0  0  0
   10.8690   15.0800   20.8250 C   0  0  1  0  0  0  0  0  0  0  0  0
   12.0100   15.8220   21.5460 C   0  0  0  0  0  0  0  0  0  0  0  0
   12.1140   15.3850   23.0130 C   0  0  0  0  0  0  0  0  0  0  0  0
   10.7640   15.5260   23.7180 C   0  0  0  0  0  0  0  0  0  0  0  0
    9.5630   15.3050   21.5890 C   0  0  0  0  0  0  0  0  0  0  0  0
    9.7240   14.8170   22.9600 N   0  0  0  0  0  0  0  0  0  0  0  0
    9.0190   13.7430   23.3830 C   0  0  0  0  0  0  0  0  0  0  0  0
    8.0910   13.2660   22.7290 O   0  0  0  0  0  0  0  0  0  0  0  0
    9.4210   13.1480   24.7350 C   0  0  0  0  0  0  0  0  0  0  0  0
    8.5600   11.9960   25.0010 N   0  0  0  0  0  0  0  0  0  0  0  0
    7.4060   11.9960   25.7660 C   0  0  0  0  0  0  0  0  0  0  0  0
    6.7050   13.0390   26.3520 C   0  0  0  0  0  0  0  0  0  0  0  0
    5.5780   12.7410   27.1030 C   0  0  0  0  0  0  0  0  0  0  0  0
    8.8380   10.6970   24.6400 C   0  0  0  0  0  0  0  0  0  0  0  0
    7.9220    9.8560   25.1730 C   0  0  0  0  0  0  0  0  0  0  0  0
    6.9850   10.6630   25.9050 C   0  0  0  0  0  0  0  0  0  0  0  0
    5.8470   10.4040   26.6650 C   0  0  0  0  0  0  0  0  0  0  0  0
    5.1420   11.4300   27.2840 C   0  0  0  0  0  0  0  0  0  0  0  0
    3.9790   11.1260   28.1940 C   0  0  0  0  0  0  0  0  0  0  0  0
 22 21  1  0
 21 16  1  0
 16 15  2  0
 15 14  1  0
 14 19  2  0
 19 18  1  0
 18 17  2  0
 17 13  1  0
 14 13  1  0
 13 12  1  0
 12 10  1  0
 11 10  2  0
 10  9  1  0
  9  7  1  0
  7  6  1  0
  6  5  1  0
  5  4  1  0
  4  2  1  6
  3  2  1  0
  2  1  2  0
  8  4  1  0
  9  8  1  0
 20 19  1  0
 21 20  2  0
M  END
>  <id>  (403) 
403

>  <inchikey>  (403) 
YRQRTFXUBOFTEB-AWEZNQCLSA-N

>  <alias>  (403) 
A4559b

>  <smiles>  (403) 
Cc1ccc2c(ccn2CC(=O)N2CCC[C@H](C(N)=O)C2)c1

>  <path>  (403) 
/opt/xchem-fragalysis-2/maxwin/BulkDock/TARGETS/A71EV2A/aligned_files/A4559b/A4559b.pdb

>  <distance_score>  (403) 
None

>  <energy_score>  (403) 
None

>  <compound>  (403) 
YRQRTFXUBOFTEB-UHFFFAOYSA-N

>  <compound_id>  (403) 
308

>  <target>  (403) 
A71EV2A

>  <tags>  (403) 
['GOOD count', 'MEDIOCRE count', '[Other] S1 site', 'hits', '[Other] S2 site', '[Other] P3 compound design', '[Other] upload_1 2025-02-12', 'Main status', '[Series] Piperidine series', 'BAD count']

>  <inspirations>  (403) 
None

>  <subsites>  (403) 
None

>  <reference>  (403) 


>  <observation_longname>  (403) 
A71EV2A-x4559_C_201_v1

>  <ConformerSites alias>  (403) 
1b - A0911/A/147

>  <CanonSites alias>  (403) 
1 - Active Site

>  <CrystalformSites alias>  (403) 
F7r - A4303/C/201

>  <Quatassemblies alias>  (403) 
A1 - monomer

>  <Crystalforms alias>  (403) 
F7 - A712A_x4207_8.1_refmac1_1st_ref

>  <ConformerSites upload name>  (403) 
1b - A71EV2A-x0911/A/147

>  <CanonSites upload name>  (403) 
1 - A71EV2A-x0911/A/147/1

>  <CrystalformSites upload name>  (403) 
F7r - A71EV2A-x4303/C/201/1

>  <Quatassemblies upload name>  (403) 
A1 - monomer

>  <Crystalforms upload name>  (403) 
F7 - A712A_x4207_8.1_refmac1_1st_ref

>  <ConformerSites short tag>  (403) 
1b - A0911/A/147

>  <CanonSites short tag>  (403) 
1 - A0911/A/147/1

>  <CrystalformSites short tag>  (403) 
F7r - A4303/C/201

>  <Quatassemblies short tag>  (403) 
A1 - monomer

>  <Crystalforms short tag>  (403) 
F7 - A712A_x4207_8.1_refmac1_1st_ref

>  <Centroid res>  (403) 
A71EV2A-x0911/A/133/A_v1

>  <Experiment code>  (403) 
A71EV2A-x4559

>  <Pose>  (403) 
A4559a

$$$$
A4563a
     RDKit          3D

 16 17  0  0  0  0  0  0  0  0999 V2000
   11.3490   14.1430   25.0410 O   0  0  0  0  0  0  0  0  0  0  0  0
   11.1950   14.4670   23.8710 C   0  0  0  0  0  0  0  0  0  0  0  0
   12.1810   15.4150   23.2220 C   0  0  0  0  0  0  0  0  0  0  0  0
   11.8420   15.9110   21.8210 C   0  0  0  0  0  0  0  0  0  0  0  0
   10.1760   13.9610   23.1130 N   0  0  0  0  0  0  0  0  0  0  0  0
    9.8990   14.3620   21.7130 C   0  0  0  0  0  0  0  0  0  0  0  0
   11.1720   14.8150   20.9870 C   0  0  1  0  0  0  0  0  0  0  0  0
   10.8370   15.3050   19.5880 C   0  0  0  0  0  0  0  0  0  0  0  0
   10.3220   16.4140   19.4020 O   0  0  0  0  0  0  0  0  0  0  0  0
   11.0980   14.4560   18.6050 N   0  0  0  0  0  0  0  0  0  0  0  0
    9.3110   12.9580   23.6580 C   0  0  0  0  0  0  0  0  0  0  0  0
    8.2610   13.3200   24.4960 C   0  0  0  0  0  0  0  0  0  0  0  0
    7.5190   12.3370   25.1330 C   0  0  0  0  0  0  0  0  0  0  0  0
    7.8140   11.0020   24.9390 C   0  0  0  0  0  0  0  0  0  0  0  0
    8.8400   10.6400   24.0790 C   0  0  0  0  0  0  0  0  0  0  0  0
    9.5890   11.6120   23.4340 C   0  0  0  0  0  0  0  0  0  0  0  0
 10  8  1  0
  9  8  2  0
  7  8  1  6
  7  4  1  0
  4  3  1  0
  3  2  1  0
  2  1  2  0
  5  2  1  0
 11  5  1  0
 11 16  2  0
 16 15  1  0
 15 14  2  0
 14 13  1  0
 13 12  2  0
 12 11  1  0
  6  5  1  0
  7  6  1  0
M  END
>  <id>  (404) 
404

>  <inchikey>  (404) 
QUDHARAVDXCJDA-VIFPVBQESA-N

>  <alias>  (404) 
A4563a

>  <smiles>  (404) 
NC(=O)[C@H]1CCC(=O)N(c2ccccc2)C1

>  <path>  (404) 
/opt/xchem-fragalysis-2/maxwin/BulkDock/TARGETS/A71EV2A/aligned_files/A4563a/A4563a.pdb

>  <distance_score>  (404) 
None

>  <energy_score>  (404) 
None

>  <compound>  (404) 
QUDHARAVDXCJDA-UHFFFAOYSA-N

>  <compound_id>  (404) 
309

>  <target>  (404) 
A71EV2A

>  <tags>  (404) 
['GOOD count', 'MEDIOCRE count', '[Other] S1 site', 'hits', '[Other] S2 site', '[Other] P3 compound design', '[Other] upload_1 2025-02-12', 'Main status', '[Series] Piperidine series', 'BAD count']

>  <inspirations>  (404) 
None

>  <subsites>  (404) 
None

>  <reference>  (404) 


>  <observation_longname>  (404) 
A71EV2A-x4563_A_201_v1

>  <ConformerSites alias>  (404) 
1b - A0911/A/147

>  <CanonSites alias>  (404) 
1 - Active Site

>  <CrystalformSites alias>  (404) 
F2b - A0450/A/201

>  <Quatassemblies alias>  (404) 
A1 - monomer

>  <Crystalforms alias>  (404) 
F2 - A71_2A_open_small_cell

>  <ConformerSites upload name>  (404) 
1b - A71EV2A-x0911/A/147

>  <CanonSites upload name>  (404) 
1 - A71EV2A-x0911/A/147/1

>  <CrystalformSites upload name>  (404) 
F2b - A71EV2A-x0450/A/201/1

>  <Quatassemblies upload name>  (404) 
A1 - monomer

>  <Crystalforms upload name>  (404) 
F2 - A71_2A_open_small_cell

>  <ConformerSites short tag>  (404) 
1b - A0911/A/147

>  <CanonSites short tag>  (404) 
1 - A0911/A/147/1

>  <CrystalformSites short tag>  (404) 
F2b - A0450/A/201

>  <Quatassemblies short tag>  (404) 
A1 - monomer

>  <Crystalforms short tag>  (404) 
F2 - A71_2A_open_small_cell

>  <Centroid res>  (404) 
A71EV2A-x0911/A/133/A_v1

>  <Experiment code>  (404) 
A71EV2A-x4563

>  <Pose>  (404) 
A4563a

$$$$
A4570a
     RDKit          3D

 20 21  0  0  0  0  0  0  0  0999 V2000
    9.8610    9.0530   23.6780 F   0  0  0  0  0  0  0  0  0  0  0  0
    8.9590    9.9200   24.1970 C   0  0  0  0  0  0  0  0  0  0  0  0
    7.8100    9.4410   24.7580 C   0  0  0  0  0  0  0  0  0  0  0  0
    6.9170   10.2540   25.3270 N   0  0  0  0  0  0  0  0  0  0  0  0
    7.1810   11.5660   25.3170 C   0  0  0  0  0  0  0  0  0  0  0  0
    9.2300   11.2600   24.1720 C   0  0  0  0  0  0  0  0  0  0  0  0
    8.3100   12.1310   24.7440 C   0  0  0  0  0  0  0  0  0  0  0  0
    8.5030   13.6350   24.6160 C   0  0  2  0  0  0  0  0  0  0  0  0
    7.4750   14.4810   25.3660 C   0  0  0  0  0  0  0  0  0  0  0  0
    8.5120   14.0180   23.1460 C   0  0  0  0  0  0  0  0  0  0  0  0
    7.7100   13.5220   22.3730 O   0  0  0  0  0  0  0  0  0  0  0  0
    9.4130   14.9440   22.7400 N   0  0  0  0  0  0  0  0  0  0  0  0
    9.4210   15.4140   21.3510 C   0  0  0  0  0  0  0  0  0  0  0  0
   10.8010   15.1900   20.7280 C   0  0  1  0  0  0  0  0  0  0  0  0
   10.7660   15.7010   19.2980 C   0  0  0  0  0  0  0  0  0  0  0  0
   10.5580   16.8940   19.0550 O   0  0  0  0  0  0  0  0  0  0  0  0
   10.9370   14.7890   18.3510 N   0  0  0  0  0  0  0  0  0  0  0  0
   11.8260   15.9770   21.5610 C   0  0  0  0  0  0  0  0  0  0  0  0
   11.8100   15.5280   23.0210 C   0  0  0  0  0  0  0  0  0  0  0  0
   10.4040   15.6160   23.6010 C   0  0  0  0  0  0  0  0  0  0  0  0
  8  9  1  1
 10  8  1  0
 11 10  2  0
 12 10  1  0
 12 20  1  0
 20 19  1  0
 19 18  1  0
 18 14  1  0
 14 15  1  6
 17 15  1  0
 16 15  2  0
 14 13  1  0
 13 12  1  0
  8  7  1  0
  7  5  1  0
  5  4  2  0
  4  3  1  0
  3  2  2  0
  2  1  1  0
  6  2  1  0
  7  6  2  0
M  END
>  <id>  (405) 
405

>  <inchikey>  (405) 
RPBBANSDGLBREC-UWVGGRQHSA-N

>  <alias>  (405) 
A4570a

>  <smiles>  (405) 
C[C@H](C(=O)N1CCC[C@H](C(N)=O)C1)c1cncc(F)c1

>  <path>  (405) 
/opt/xchem-fragalysis-2/maxwin/BulkDock/TARGETS/A71EV2A/aligned_files/A4570a/A4570a.pdb

>  <distance_score>  (405) 
None

>  <energy_score>  (405) 
None

>  <compound>  (405) 
RPBBANSDGLBREC-UHFFFAOYSA-N

>  <compound_id>  (405) 
294

>  <target>  (405) 
A71EV2A

>  <tags>  (405) 
['GOOD count', 'MEDIOCRE count', '[Other] S1 site', 'hits', '[Other] S2 site', '[Other] P3 compound design', '[Other] upload_1 2025-02-12', 'Main status', '[Series] Piperidine series', 'BAD count']

>  <inspirations>  (405) 
None

>  <subsites>  (405) 
None

>  <reference>  (405) 


>  <observation_longname>  (405) 
A71EV2A-x4570_A_201_v1

>  <ConformerSites alias>  (405) 
1b - A0911/A/147

>  <CanonSites alias>  (405) 
1 - Active Site

>  <CrystalformSites alias>  (405) 
F8h - A0884/A/147

>  <Quatassemblies alias>  (405) 
A1 - monomer

>  <Crystalforms alias>  (405) 
F8 - A712A_x4271_2.1_refmac1_1st_ref

>  <ConformerSites upload name>  (405) 
1b - A71EV2A-x0911/A/147

>  <CanonSites upload name>  (405) 
1 - A71EV2A-x0911/A/147/1

>  <CrystalformSites upload name>  (405) 
F8h - A71EV2A-x0884/A/147/1

>  <Quatassemblies upload name>  (405) 
A1 - monomer

>  <Crystalforms upload name>  (405) 
F8 - A712A_x4271_2.1_refmac1_1st_ref

>  <ConformerSites short tag>  (405) 
1b - A0911/A/147

>  <CanonSites short tag>  (405) 
1 - A0911/A/147/1

>  <CrystalformSites short tag>  (405) 
F8h - A0884/A/147

>  <Quatassemblies short tag>  (405) 
A1 - monomer

>  <Crystalforms short tag>  (405) 
F8 - A712A_x4271_2.1_refmac1_1st_ref

>  <Centroid res>  (405) 
A71EV2A-x0911/A/133/A_v1

>  <Experiment code>  (405) 
A71EV2A-x4570

>  <Pose>  (405) 
A4570a

$$$$
A4571a
     RDKit          3D

 23 24  0  0  0  0  0  0  0  0999 V2000
    9.7950   10.8660   23.0810 F   0  0  0  0  0  0  0  0  0  0  0  0
    9.5640   10.2070   24.2120 C   0  0  0  0  0  0  0  0  0  0  0  0
    9.5630    8.9240   23.8970 F   0  0  0  0  0  0  0  0  0  0  0  0
   10.6150   10.3970   24.9640 F   0  0  0  0  0  0  0  0  0  0  0  0
    8.2950   10.6490   24.8950 C   0  0  0  0  0  0  0  0  0  0  0  0
    7.5040    9.7230   25.3570 N   0  0  0  0  0  0  0  0  0  0  0  0
    6.5140   10.4590   25.9480 N   0  0  0  0  0  0  0  0  0  0  0  0
    5.5010    9.7800   26.7450 C   0  0  0  0  0  0  0  0  0  0  0  0
    6.6810   11.7860   25.8080 C   0  0  0  0  0  0  0  0  0  0  0  0
    7.8490   11.9470   25.1460 C   0  0  0  0  0  0  0  0  0  0  0  0
    8.5360   13.2760   24.8900 C   0  0  2  0  0  0  0  0  0  0  0  0
    7.8650   14.4100   25.6780 C   0  0  0  0  0  0  0  0  0  0  0  0
    8.5370   13.5970   23.4040 C   0  0  0  0  0  0  0  0  0  0  0  0
    7.6890   13.1350   22.6600 O   0  0  0  0  0  0  0  0  0  0  0  0
    9.4710   14.4650   22.9510 N   0  0  0  0  0  0  0  0  0  0  0  0
    9.3740   15.0350   21.6010 C   0  0  0  0  0  0  0  0  0  0  0  0
   10.6810   14.7980   20.8350 C   0  0  1  0  0  0  0  0  0  0  0  0
   10.6730   15.3020   19.4020 C   0  0  0  0  0  0  0  0  0  0  0  0
   10.1530   16.3860   19.1120 O   0  0  0  0  0  0  0  0  0  0  0  0
   11.2260   14.4960   18.5080 N   0  0  0  0  0  0  0  0  0  0  0  0
   11.8650   15.3680   21.6250 C   0  0  0  0  0  0  0  0  0  0  0  0
   11.9290   14.7330   23.0140 C   0  0  0  0  0  0  0  0  0  0  0  0
   10.6190   14.9490   23.7410 C   0  0  0  0  0  0  0  0  0  0  0  0
 11 12  1  1
 13 11  1  0
 14 13  2  0
 15 13  1  0
 15 23  1  0
 23 22  1  0
 22 21  1  0
 21 17  1  0
 17 18  1  6
 20 18  1  0
 19 18  2  0
 17 16  1  0
 16 15  1  0
 11 10  1  0
 10  9  2  0
  9  7  1  0
  8  7  1  0
  7  6  1  0
  6  5  2  0
 10  5  1  0
  5  2  1  0
  3  2  1  0
  4  2  1  0
  2  1  1  0
M  END
>  <id>  (406) 
406

>  <inchikey>  (406) 
CYDVRWFNSPMYQH-IUCAKERBSA-N

>  <alias>  (406) 
A4571a

>  <smiles>  (406) 
C[C@H](C(=O)N1CCC[C@H](C(N)=O)C1)c1cn(C)nc1C(F)(F)F

>  <path>  (406) 
/opt/xchem-fragalysis-2/maxwin/BulkDock/TARGETS/A71EV2A/aligned_files/A4571a/A4571a.pdb

>  <distance_score>  (406) 
None

>  <energy_score>  (406) 
None

>  <compound>  (406) 
CYDVRWFNSPMYQH-UHFFFAOYSA-N

>  <compound_id>  (406) 
295

>  <target>  (406) 
A71EV2A

>  <tags>  (406) 
['GOOD count', 'MEDIOCRE count', '[Other] S1 site', 'hits', '[Other] S2 site', '[Other] P3 compound design', '[Other] upload_1 2025-02-12', 'Main status', '[Series] Piperidine series', 'BAD count']

>  <inspirations>  (406) 
None

>  <subsites>  (406) 
None

>  <reference>  (406) 


>  <observation_longname>  (406) 
A71EV2A-x4571_A_201_v1

>  <ConformerSites alias>  (406) 
1b - A0911/A/147

>  <CanonSites alias>  (406) 
1 - Active Site

>  <CrystalformSites alias>  (406) 
F1a - A0375/A/201

>  <Quatassemblies alias>  (406) 
A1 - monomer

>  <Crystalforms alias>  (406) 
F1 - A71_2A_open

>  <ConformerSites upload name>  (406) 
1b - A71EV2A-x0911/A/147

>  <CanonSites upload name>  (406) 
1 - A71EV2A-x0911/A/147/1

>  <CrystalformSites upload name>  (406) 
F1a - A71EV2A-x0375/A/201/1

>  <Quatassemblies upload name>  (406) 
A1 - monomer

>  <Crystalforms upload name>  (406) 
F1 - A71_2A_open

>  <ConformerSites short tag>  (406) 
1b - A0911/A/147

>  <CanonSites short tag>  (406) 
1 - A0911/A/147/1

>  <CrystalformSites short tag>  (406) 
F1a - A0375/A/201

>  <Quatassemblies short tag>  (406) 
A1 - monomer

>  <Crystalforms short tag>  (406) 
F1 - A71_2A_open

>  <Centroid res>  (406) 
A71EV2A-x0911/A/133/A_v1

>  <Experiment code>  (406) 
A71EV2A-x4571

>  <Pose>  (406) 
A4571a

$$$$
A4575a
     RDKit          3D

 20 22  0  0  0  0  0  0  0  0999 V2000
    7.1380   13.2580   22.4080 O   0  0  0  0  0  0  0  0  0  0  0  0
    7.9330   13.6560   23.2410 C   0  0  0  0  0  0  0  0  0  0  0  0
    8.9600   14.4770   22.9240 N   0  0  0  0  0  0  0  0  0  0  0  0
   10.0650   14.8640   23.8200 C   0  0  0  0  0  0  0  0  0  0  0  0
   11.4310   14.7710   23.1480 C   0  0  0  0  0  0  0  0  0  0  0  0
   11.4170   15.4570   21.7820 C   0  0  0  0  0  0  0  0  0  0  0  0
    8.9740   15.1330   21.6120 C   0  0  0  0  0  0  0  0  0  0  0  0
   10.3060   14.8710   20.9010 C   0  0  1  0  0  0  0  0  0  0  0  0
   10.3840   15.4090   19.4830 C   0  0  0  0  0  0  0  0  0  0  0  0
   10.0030   16.5520   19.2140 O   0  0  0  0  0  0  0  0  0  0  0  0
   10.8810   14.5780   18.5750 N   0  0  0  0  0  0  0  0  0  0  0  0
    7.6670   13.2330   24.7080 C   0  0  0  0  0  0  0  0  0  0  0  0
    7.9680   14.2050   25.8910 C   0  0  0  0  0  0  0  0  0  0  0  0
    6.5610   13.9500   26.4460 C   0  0  0  0  0  0  0  0  0  0  0  0
    6.1650   13.2820   25.1220 C   0  0  0  0  0  0  0  0  0  0  0  0
    8.2940   11.8610   24.8560 C   0  0  0  0  0  0  0  0  0  0  0  0
    9.4910   11.3620   24.3930 C   0  0  0  0  0  0  0  0  0  0  0  0
    9.5610   10.0120   24.5970 O   0  0  0  0  0  0  0  0  0  0  0  0
    8.3830    9.6590   25.2250 C   0  0  0  0  0  0  0  0  0  0  0  0
    7.6010   10.7290   25.4150 C   0  0  0  0  0  0  0  0  0  0  0  0
 11  9  1  0
 10  9  2  0
  8  9  1  6
  8  6  1  0
  6  5  1  0
  5  4  1  0
  4  3  1  0
  3  2  1  0
  2  1  2  0
 12  2  1  0
 16 12  1  0
 16 20  1  0
 20 19  2  0
 19 18  1  0
 18 17  1  0
 17 16  2  0
 12 15  1  0
 15 14  1  0
 14 13  1  0
 13 12  1  0
  7  3  1  0
  8  7  1  0
M  END
>  <id>  (407) 
407

>  <inchikey>  (407) 
GKBXREDGVWBKIB-NSHDSACASA-N

>  <alias>  (407) 
A4575a

>  <smiles>  (407) 
NC(=O)[C@H]1CCCN(C(=O)C2(c3ccoc3)CCC2)C1

>  <path>  (407) 
/opt/xchem-fragalysis-2/maxwin/BulkDock/TARGETS/A71EV2A/aligned_files/A4575a/A4575a.pdb

>  <distance_score>  (407) 
None

>  <energy_score>  (407) 
None

>  <compound>  (407) 
GKBXREDGVWBKIB-UHFFFAOYSA-N

>  <compound_id>  (407) 
296

>  <target>  (407) 
A71EV2A

>  <tags>  (407) 
['GOOD count', 'MEDIOCRE count', '[Other] S1 site', 'hits', '[Other] S2 site', '[Other] P3 compound design', '[Other] upload_1 2025-02-12', 'Main status', '[Series] Piperidine series', 'BAD count']

>  <inspirations>  (407) 
None

>  <subsites>  (407) 
None

>  <reference>  (407) 


>  <observation_longname>  (407) 
A71EV2A-x4575_A_201_v1

>  <ConformerSites alias>  (407) 
1b - A0911/A/147

>  <CanonSites alias>  (407) 
1 - Active Site

>  <CrystalformSites alias>  (407) 
F1a - A0375/A/201

>  <Quatassemblies alias>  (407) 
A1 - monomer

>  <Crystalforms alias>  (407) 
F1 - A71_2A_open

>  <ConformerSites upload name>  (407) 
1b - A71EV2A-x0911/A/147

>  <CanonSites upload name>  (407) 
1 - A71EV2A-x0911/A/147/1

>  <CrystalformSites upload name>  (407) 
F1a - A71EV2A-x0375/A/201/1

>  <Quatassemblies upload name>  (407) 
A1 - monomer

>  <Crystalforms upload name>  (407) 
F1 - A71_2A_open

>  <ConformerSites short tag>  (407) 
1b - A0911/A/147

>  <CanonSites short tag>  (407) 
1 - A0911/A/147/1

>  <CrystalformSites short tag>  (407) 
F1a - A0375/A/201

>  <Quatassemblies short tag>  (407) 
A1 - monomer

>  <Crystalforms short tag>  (407) 
F1 - A71_2A_open

>  <Centroid res>  (407) 
A71EV2A-x0911/A/133/A_v1

>  <Experiment code>  (407) 
A71EV2A-x4575

>  <Pose>  (407) 
A4575a

$$$$
A4580a
     RDKit          3D

 22 24  0  0  0  0  0  0  0  0999 V2000
    9.4700    8.8670   23.4100 Br  0  0  0  0  0  0  0  0  0  0  0  0
    8.3550    9.9810   24.4500 C   0  0  0  0  0  0  0  0  0  0  0  0
    7.1580    9.4750   25.0070 C   0  0  0  0  0  0  0  0  0  0  0  0
    6.3900   10.2740   25.8050 C   0  0  0  0  0  0  0  0  0  0  0  0
    8.7280   11.2700   24.6300 C   0  0  0  0  0  0  0  0  0  0  0  0
    7.9120   12.0940   25.3800 N   0  0  0  0  0  0  0  0  0  0  0  0
    6.7590   11.6250   26.0090 C   0  0  0  0  0  0  0  0  0  0  0  0
    6.2630   12.7250   26.6690 C   0  0  0  0  0  0  0  0  0  0  0  0
    7.0490   13.8390   26.4560 N   0  0  0  0  0  0  0  0  0  0  0  0
    8.0170   13.4230   25.6560 C   0  0  0  0  0  0  0  0  0  0  0  0
    9.0760   14.2810   25.0750 C   0  0  0  0  0  0  0  0  0  0  0  0
    8.8760   14.4720   23.5820 C   0  0  0  0  0  0  0  0  0  0  0  0
    7.9920   13.9120   22.9430 O   0  0  0  0  0  0  0  0  0  0  0  0
    9.7460   15.3190   23.0030 N   0  0  0  0  0  0  0  0  0  0  0  0
   10.9570   15.8640   23.6410 C   0  0  0  0  0  0  0  0  0  0  0  0
   12.2000   15.4280   22.8830 C   0  0  0  0  0  0  0  0  0  0  0  0
   12.0930   15.8330   21.4070 C   0  0  0  0  0  0  0  0  0  0  0  0
    9.5810   15.6750   21.5890 C   0  0  0  0  0  0  0  0  0  0  0  0
   10.8090   15.2310   20.7910 C   0  0  1  0  0  0  0  0  0  0  0  0
   10.6530   15.6410   19.3360 C   0  0  0  0  0  0  0  0  0  0  0  0
   10.3620   16.8000   19.0220 O   0  0  0  0  0  0  0  0  0  0  0  0
   10.8420   14.6840   18.4290 N   0  0  0  0  0  0  0  0  0  0  0  0
 22 20  1  0
 21 20  2  0
 19 20  1  6
 19 17  1  0
 17 16  1  0
 16 15  1  0
 15 14  1  0
 14 12  1  0
 13 12  2  0
 12 11  1  0
 11 10  1  0
 10  9  2  0
  9  8  1  0
  8  7  2  0
  7  4  1  0
  4  3  2  0
  3  2  1  0
  2  1  1  0
  5  2  2  0
  6  5  1  0
 10  6  1  0
  7  6  1  0
 18 14  1  0
 19 18  1  0
M  END
>  <id>  (408) 
408

>  <inchikey>  (408) 
MDQREZRKEBAFAE-JTQLQIEISA-N

>  <alias>  (408) 
A4580a

>  <smiles>  (408) 
NC(=O)[C@H]1CCCN(C(=O)Cc2ncc3ccc(Br)cn23)C1

>  <path>  (408) 
/opt/xchem-fragalysis-2/maxwin/BulkDock/TARGETS/A71EV2A/aligned_files/A4580a/A4580a_hippo.pdb

>  <distance_score>  (408) 
None

>  <energy_score>  (408) 
None

>  <compound>  (408) 
MDQREZRKEBAFAE-UHFFFAOYSA-N

>  <compound_id>  (408) 
298

>  <target>  (408) 
A71EV2A

>  <tags>  (408) 
['GOOD count', 'MEDIOCRE count', '[Other] S1 site', 'hits', '[Other] S2 site', '[Other] P3 compound design', '[Other] upload_1 2025-02-12', 'Main status', '[Series] Piperidine series', 'BAD count']

>  <inspirations>  (408) 
None

>  <subsites>  (408) 
None

>  <reference>  (408) 


>  <observation_longname>  (408) 
A71EV2A-x4580_A_201_v1

>  <ConformerSites alias>  (408) 
1b - A0911/A/147

>  <CanonSites alias>  (408) 
1 - Active Site

>  <CrystalformSites alias>  (408) 
F7q - A4303/A/201

>  <Quatassemblies alias>  (408) 
A1 - monomer

>  <Crystalforms alias>  (408) 
F7 - A712A_x4207_8.1_refmac1_1st_ref

>  <ConformerSites upload name>  (408) 
1b - A71EV2A-x0911/A/147

>  <CanonSites upload name>  (408) 
1 - A71EV2A-x0911/A/147/1

>  <CrystalformSites upload name>  (408) 
F7q - A71EV2A-x4303/A/201/1

>  <Quatassemblies upload name>  (408) 
A1 - monomer

>  <Crystalforms upload name>  (408) 
F7 - A712A_x4207_8.1_refmac1_1st_ref

>  <ConformerSites short tag>  (408) 
1b - A0911/A/147

>  <CanonSites short tag>  (408) 
1 - A0911/A/147/1

>  <CrystalformSites short tag>  (408) 
F7q - A4303/A/201

>  <Quatassemblies short tag>  (408) 
A1 - monomer

>  <Crystalforms short tag>  (408) 
F7 - A712A_x4207_8.1_refmac1_1st_ref

>  <Centroid res>  (408) 
A71EV2A-x0911/A/133/A_v1

>  <Experiment code>  (408) 
A71EV2A-x4580

>  <Pose>  (408) 
A4580a

$$$$
A4580b
     RDKit          3D

 22 24  0  0  0  0  0  0  0  0999 V2000
    9.5050    8.8820   23.3890 Br  0  0  0  0  0  0  0  0  0  0  0  0
    8.4240   10.0160   24.4290 C   0  0  0  0  0  0  0  0  0  0  0  0
    7.2200    9.5200   24.9920 C   0  0  0  0  0  0  0  0  0  0  0  0
    6.4670   10.3240   25.7780 C   0  0  0  0  0  0  0  0  0  0  0  0
    8.8160   11.3060   24.6000 C   0  0  0  0  0  0  0  0  0  0  0  0
    8.0060   12.1400   25.3490 N   0  0  0  0  0  0  0  0  0  0  0  0
    6.8470   11.6790   25.9780 C   0  0  0  0  0  0  0  0  0  0  0  0
    6.3570   12.7850   26.6370 C   0  0  0  0  0  0  0  0  0  0  0  0
    7.1560   13.9000   26.4200 N   0  0  0  0  0  0  0  0  0  0  0  0
    8.1190   13.4750   25.6180 C   0  0  0  0  0  0  0  0  0  0  0  0
    9.2160   14.3200   25.0630 C   0  0  0  0  0  0  0  0  0  0  0  0
    9.0010   14.5370   23.5740 C   0  0  0  0  0  0  0  0  0  0  0  0
    8.1060   13.9730   22.9390 O   0  0  0  0  0  0  0  0  0  0  0  0
    9.8680   15.3890   22.9920 N   0  0  0  0  0  0  0  0  0  0  0  0
   11.0610   15.9630   23.6380 C   0  0  0  0  0  0  0  0  0  0  0  0
   12.3200   15.5850   22.8820 C   0  0  0  0  0  0  0  0  0  0  0  0
   12.2070   15.9560   21.3930 C   0  0  0  0  0  0  0  0  0  0  0  0
    9.6950   15.7360   21.5770 C   0  0  0  0  0  0  0  0  0  0  0  0
   10.9410   15.3160   20.7810 C   0  0  1  0  0  0  0  0  0  0  0  0
   10.7690   15.7220   19.3280 C   0  0  0  0  0  0  0  0  0  0  0  0
   10.4530   16.8860   19.0270 O   0  0  0  0  0  0  0  0  0  0  0  0
   10.9010   14.7550   18.4270 N   0  0  0  0  0  0  0  0  0  0  0  0
 22 20  1  0
 21 20  2  0
 19 20  1  6
 19 17  1  0
 17 16  1  0
 16 15  1  0
 15 14  1  0
 14 12  1  0
 13 12  2  0
 12 11  1  0
 11 10  1  0
 10  9  2  0
  9  8  1  0
  8  7  2  0
  7  4  1  0
  4  3  2  0
  3  2  1  0
  2  1  1  0
  5  2  2  0
  6  5  1  0
 10  6  1  0
  7  6  1  0
 18 14  1  0
 19 18  1  0
M  END
>  <id>  (409) 
409

>  <inchikey>  (409) 
MDQREZRKEBAFAE-JTQLQIEISA-N

>  <alias>  (409) 
A4580b

>  <smiles>  (409) 
NC(=O)[C@H]1CCCN(C(=O)Cc2ncc3ccc(Br)cn23)C1

>  <path>  (409) 
/opt/xchem-fragalysis-2/maxwin/BulkDock/TARGETS/A71EV2A/aligned_files/A4580b/A4580b.pdb

>  <distance_score>  (409) 
None

>  <energy_score>  (409) 
None

>  <compound>  (409) 
MDQREZRKEBAFAE-UHFFFAOYSA-N

>  <compound_id>  (409) 
298

>  <target>  (409) 
A71EV2A

>  <tags>  (409) 
['GOOD count', 'MEDIOCRE count', '[Other] S1 site', 'hits', '[Other] S2 site', '[Other] P3 compound design', '[Other] upload_1 2025-02-12', 'Main status', '[Series] Piperidine series', 'BAD count']

>  <inspirations>  (409) 
None

>  <subsites>  (409) 
None

>  <reference>  (409) 


>  <observation_longname>  (409) 
A71EV2A-x4580_C_201_v1

>  <ConformerSites alias>  (409) 
1b - A0911/A/147

>  <CanonSites alias>  (409) 
1 - Active Site

>  <CrystalformSites alias>  (409) 
F7r - A4303/C/201

>  <Quatassemblies alias>  (409) 
A1 - monomer

>  <Crystalforms alias>  (409) 
F7 - A712A_x4207_8.1_refmac1_1st_ref

>  <ConformerSites upload name>  (409) 
1b - A71EV2A-x0911/A/147

>  <CanonSites upload name>  (409) 
1 - A71EV2A-x0911/A/147/1

>  <CrystalformSites upload name>  (409) 
F7r - A71EV2A-x4303/C/201/1

>  <Quatassemblies upload name>  (409) 
A1 - monomer

>  <Crystalforms upload name>  (409) 
F7 - A712A_x4207_8.1_refmac1_1st_ref

>  <ConformerSites short tag>  (409) 
1b - A0911/A/147

>  <CanonSites short tag>  (409) 
1 - A0911/A/147/1

>  <CrystalformSites short tag>  (409) 
F7r - A4303/C/201

>  <Quatassemblies short tag>  (409) 
A1 - monomer

>  <Crystalforms short tag>  (409) 
F7 - A712A_x4207_8.1_refmac1_1st_ref

>  <Centroid res>  (409) 
A71EV2A-x0911/A/133/A_v1

>  <Experiment code>  (409) 
A71EV2A-x4580

>  <Pose>  (409) 
A4580a

$$$$
A4583a
     RDKit          3D

 21 23  0  0  0  0  0  0  0  0999 V2000
   10.2540   16.6660   19.2300 O   0  0  0  0  0  0  0  0  0  0  0  0
   10.5910   15.5020   19.4670 C   0  0  0  0  0  0  0  0  0  0  0  0
   10.8480   14.6180   18.5120 N   0  0  0  0  0  0  0  0  0  0  0  0
   10.6110   14.9660   20.8850 C   0  0  1  0  0  0  0  0  0  0  0  0
   11.6330   15.7070   21.7640 C   0  0  0  0  0  0  0  0  0  0  0  0
   11.5790   15.1720   23.2020 C   0  0  0  0  0  0  0  0  0  0  0  0
   10.1570   15.2610   23.7560 C   0  0  0  0  0  0  0  0  0  0  0  0
    9.2080   15.1650   21.4830 C   0  0  0  0  0  0  0  0  0  0  0  0
    9.1760   14.6370   22.8490 N   0  0  0  0  0  0  0  0  0  0  0  0
    8.3130   13.6490   23.1810 C   0  0  0  0  0  0  0  0  0  0  0  0
    7.4820   13.2300   22.3900 O   0  0  0  0  0  0  0  0  0  0  0  0
    8.3670   13.0950   24.6030 C   0  0  2  0  0  0  0  0  0  0  0  0
    7.9170   11.6960   24.6360 N   0  0  0  0  0  0  0  0  0  0  0  0
    8.8970   10.6770   24.2810 C   0  0  0  0  0  0  0  0  0  0  0  0
    7.3770   13.8740   25.4870 C   0  0  0  0  0  0  0  0  0  0  0  0
    6.6720   12.7730   26.2280 C   0  0  0  0  0  0  0  0  0  0  0  0
    7.0440   11.5380   25.7120 C   0  0  0  0  0  0  0  0  0  0  0  0
    5.7830   12.8350   27.2940 C   0  0  0  0  0  0  0  0  0  0  0  0
    5.2910   11.6610   27.8400 C   0  0  0  0  0  0  0  0  0  0  0  0
    5.6770   10.4350   27.3290 C   0  0  0  0  0  0  0  0  0  0  0  0
    6.5520   10.3580   26.2520 C   0  0  0  0  0  0  0  0  0  0  0  0
 14 13  1  0
 13 17  1  0
 17 21  2  0
 21 20  1  0
 20 19  2  0
 19 18  1  0
 18 16  2  0
 17 16  1  0
 16 15  1  0
 15 12  1  0
 13 12  1  0
 12 10  1  6
 11 10  2  0
 10  9  1  0
  9  7  1  0
  7  6  1  0
  6  5  1  0
  5  4  1  0
  4  2  1  6
  3  2  1  0
  2  1  2  0
  8  4  1  0
  9  8  1  0
M  END
>  <id>  (410) 
410

>  <inchikey>  (410) 
FQLFBKZMFUCKAK-GXTWGEPZSA-N

>  <alias>  (410) 
A4583a

>  <smiles>  (410) 
CN1c2ccccc2C[C@@H]1C(=O)N1CCC[C@H](C(N)=O)C1

>  <path>  (410) 
/opt/xchem-fragalysis-2/maxwin/BulkDock/TARGETS/A71EV2A/aligned_files/A4583a/A4583a_hippo.pdb

>  <distance_score>  (410) 
None

>  <energy_score>  (410) 
None

>  <compound>  (410) 
FQLFBKZMFUCKAK-UHFFFAOYSA-N

>  <compound_id>  (410) 
310

>  <target>  (410) 
A71EV2A

>  <tags>  (410) 
['GOOD count', 'MEDIOCRE count', '[Other] S1 site', 'hits', '[Other] S2 site', '[Other] upload_6_2025-02-13', '[Other] P3 compound design', '[Series] Piperidine series', 'Main status', 'BAD count']

>  <inspirations>  (410) 
None

>  <subsites>  (410) 
None

>  <reference>  (410) 


>  <observation_longname>  (410) 
A71EV2A-x4583_A_201_v1

>  <ConformerSites alias>  (410) 
1b - A0911/A/147

>  <CanonSites alias>  (410) 
1 - Active Site

>  <CrystalformSites alias>  (410) 
F7q - A4303/A/201

>  <Quatassemblies alias>  (410) 
A1 - monomer

>  <Crystalforms alias>  (410) 
F7 - A712A_x4207_8.1_refmac1_1st_ref

>  <ConformerSites upload name>  (410) 
1b - A71EV2A-x0911/A/147

>  <CanonSites upload name>  (410) 
1 - A71EV2A-x0911/A/147/1

>  <CrystalformSites upload name>  (410) 
F7q - A71EV2A-x4303/A/201/1

>  <Quatassemblies upload name>  (410) 
A1 - monomer

>  <Crystalforms upload name>  (410) 
F7 - A712A_x4207_8.1_refmac1_1st_ref

>  <ConformerSites short tag>  (410) 
1b - A0911/A/147

>  <CanonSites short tag>  (410) 
1 - A0911/A/147/1

>  <CrystalformSites short tag>  (410) 
F7q - A4303/A/201

>  <Quatassemblies short tag>  (410) 
A1 - monomer

>  <Crystalforms short tag>  (410) 
F7 - A712A_x4207_8.1_refmac1_1st_ref

>  <Centroid res>  (410) 
A71EV2A-x0911/A/133/A_v1

>  <Experiment code>  (410) 
A71EV2A-x4583

>  <Pose>  (410) 
A4583a

$$$$
A4583b
     RDKit          3D

 21 23  0  0  0  0  0  0  0  0999 V2000
   10.2970   16.7560   19.2870 O   0  0  0  0  0  0  0  0  0  0  0  0
   10.6390   15.5850   19.5090 C   0  0  0  0  0  0  0  0  0  0  0  0
   10.8930   14.7020   18.5490 N   0  0  0  0  0  0  0  0  0  0  0  0
   10.6970   15.0460   20.9270 C   0  0  1  0  0  0  0  0  0  0  0  0
   11.7100   15.8300   21.7810 C   0  0  0  0  0  0  0  0  0  0  0  0
   11.6970   15.3370   23.2360 C   0  0  0  0  0  0  0  0  0  0  0  0
   10.2770   15.3830   23.8070 C   0  0  0  0  0  0  0  0  0  0  0  0
    9.3140   15.2130   21.5630 C   0  0  0  0  0  0  0  0  0  0  0  0
    9.3350   14.6760   22.9240 N   0  0  0  0  0  0  0  0  0  0  0  0
    8.5140   13.6600   23.2760 C   0  0  0  0  0  0  0  0  0  0  0  0
    7.6600   13.2370   22.5070 O   0  0  0  0  0  0  0  0  0  0  0  0
    8.6000   13.1080   24.7040 C   0  0  2  0  0  0  0  0  0  0  0  0
    8.1570   11.7010   24.7320 N   0  0  0  0  0  0  0  0  0  0  0  0
    9.0980   10.6640   24.3220 C   0  0  0  0  0  0  0  0  0  0  0  0
    7.6220   13.8570   25.6310 C   0  0  0  0  0  0  0  0  0  0  0  0
    6.9430   12.7370   26.3670 C   0  0  0  0  0  0  0  0  0  0  0  0
    7.2850   11.5190   25.8040 C   0  0  0  0  0  0  0  0  0  0  0  0
    6.0670   12.7730   27.4470 C   0  0  0  0  0  0  0  0  0  0  0  0
    5.5470   11.5910   27.9490 C   0  0  0  0  0  0  0  0  0  0  0  0
    5.9020   10.3750   27.3860 C   0  0  0  0  0  0  0  0  0  0  0  0
    6.7740   10.3260   26.3080 C   0  0  0  0  0  0  0  0  0  0  0  0
 14 13  1  0
 13 17  1  0
 17 21  2  0
 21 20  1  0
 20 19  2  0
 19 18  1  0
 18 16  2  0
 17 16  1  0
 16 15  1  0
 15 12  1  0
 13 12  1  0
 12 10  1  6
 11 10  2  0
 10  9  1  0
  9  7  1  0
  7  6  1  0
  6  5  1  0
  5  4  1  0
  4  2  1  6
  3  2  1  0
  2  1  2  0
  8  4  1  0
  9  8  1  0
M  END
>  <id>  (411) 
411

>  <inchikey>  (411) 
FQLFBKZMFUCKAK-GXTWGEPZSA-N

>  <alias>  (411) 
A4583b

>  <smiles>  (411) 
CN1c2ccccc2C[C@@H]1C(=O)N1CCC[C@H](C(N)=O)C1

>  <path>  (411) 
/opt/xchem-fragalysis-2/maxwin/BulkDock/TARGETS/A71EV2A/aligned_files/A4583b/A4583b_hippo.pdb

>  <distance_score>  (411) 
None

>  <energy_score>  (411) 
None

>  <compound>  (411) 
FQLFBKZMFUCKAK-UHFFFAOYSA-N

>  <compound_id>  (411) 
310

>  <target>  (411) 
A71EV2A

>  <tags>  (411) 
['GOOD count', 'MEDIOCRE count', '[Other] S1 site', 'hits', '[Other] S2 site', '[Other] upload_6_2025-02-13', '[Other] P3 compound design', '[Series] Piperidine series', 'Main status', 'BAD count']

>  <inspirations>  (411) 
None

>  <subsites>  (411) 
None

>  <reference>  (411) 


>  <observation_longname>  (411) 
A71EV2A-x4583_C_201_v1

>  <ConformerSites alias>  (411) 
1b - A0911/A/147

>  <CanonSites alias>  (411) 
1 - Active Site

>  <CrystalformSites alias>  (411) 
F7r - A4303/C/201

>  <Quatassemblies alias>  (411) 
A1 - monomer

>  <Crystalforms alias>  (411) 
F7 - A712A_x4207_8.1_refmac1_1st_ref

>  <ConformerSites upload name>  (411) 
1b - A71EV2A-x0911/A/147

>  <CanonSites upload name>  (411) 
1 - A71EV2A-x0911/A/147/1

>  <CrystalformSites upload name>  (411) 
F7r - A71EV2A-x4303/C/201/1

>  <Quatassemblies upload name>  (411) 
A1 - monomer

>  <Crystalforms upload name>  (411) 
F7 - A712A_x4207_8.1_refmac1_1st_ref

>  <ConformerSites short tag>  (411) 
1b - A0911/A/147

>  <CanonSites short tag>  (411) 
1 - A0911/A/147/1

>  <CrystalformSites short tag>  (411) 
F7r - A4303/C/201

>  <Quatassemblies short tag>  (411) 
A1 - monomer

>  <Crystalforms short tag>  (411) 
F7 - A712A_x4207_8.1_refmac1_1st_ref

>  <Centroid res>  (411) 
A71EV2A-x0911/A/133/A_v1

>  <Experiment code>  (411) 
A71EV2A-x4583

>  <Pose>  (411) 
A4583a

$$$$
A4586a
     RDKit          3D

 18 19  0  0  0  0  0  0  0  0999 V2000
   10.3350   16.7430   19.1740 O   0  0  0  0  0  0  0  0  0  0  0  0
   10.5080   15.5550   19.4530 C   0  0  0  0  0  0  0  0  0  0  0  0
   10.8390   14.6490   18.5470 N   0  0  0  0  0  0  0  0  0  0  0  0
   10.3700   15.0520   20.8810 C   0  0  1  0  0  0  0  0  0  0  0  0
   11.5190   15.5470   21.7650 C   0  0  0  0  0  0  0  0  0  0  0  0
   11.4620   14.9040   23.1560 C   0  0  0  0  0  0  0  0  0  0  0  0
   10.0980   15.1150   23.7970 C   0  0  0  0  0  0  0  0  0  0  0  0
    9.0620   15.3790   21.6130 C   0  0  0  0  0  0  0  0  0  0  0  0
    9.0070   14.6800   22.9040 N   0  0  0  0  0  0  0  0  0  0  0  0
    7.9960   13.7910   23.1390 C   0  0  0  0  0  0  0  0  0  0  0  0
    7.2520   13.4300   22.2420 O   0  0  0  0  0  0  0  0  0  0  0  0
    7.7800   13.2160   24.5290 C   0  0  2  0  0  0  0  0  0  0  0  0
    8.1300   14.1890   25.6650 C   0  0  0  0  0  0  0  0  0  0  0  0
    8.4280   11.8490   24.5980 C   0  0  0  0  0  0  0  0  0  0  0  0
    9.8450   11.4160   23.7500 S   0  0  0  0  0  0  0  0  0  0  0  0
    9.7010    9.8000   24.1900 C   0  0  0  0  0  0  0  0  0  0  0  0
    8.6280    9.5800   24.9660 C   0  0  0  0  0  0  0  0  0  0  0  0
    7.8920   10.7590   25.2130 C   0  0  0  0  0  0  0  0  0  0  0  0
 12 13  1  1
 12 10  1  0
 11 10  2  0
 10  9  1  0
  9  7  1  0
  7  6  1  0
  6  5  1  0
  5  4  1  0
  4  2  1  6
  3  2  1  0
  2  1  2  0
  8  4  1  0
  9  8  1  0
 14 12  1  0
 14 18  2  0
 18 17  1  0
 17 16  2  0
 16 15  1  0
 15 14  1  0
M  END
>  <id>  (412) 
412

>  <inchikey>  (412) 
JQNFTWVJWFLFOK-ZJUUUORDSA-N

>  <alias>  (412) 
A4586a

>  <smiles>  (412) 
C[C@@H](C(=O)N1CCC[C@H](C(N)=O)C1)c1cccs1

>  <path>  (412) 
/opt/xchem-fragalysis-2/maxwin/BulkDock/TARGETS/A71EV2A/aligned_files/A4586a/A4586a.pdb

>  <distance_score>  (412) 
None

>  <energy_score>  (412) 
None

>  <compound>  (412) 
JQNFTWVJWFLFOK-UHFFFAOYSA-N

>  <compound_id>  (412) 
300

>  <target>  (412) 
A71EV2A

>  <tags>  (412) 
['GOOD count', 'MEDIOCRE count', '[Other] S1 site', 'hits', '[Other] S2 site', '[Other] P3 compound design', '[Other] upload_1 2025-02-12', 'Main status', '[Series] Piperidine series', 'BAD count']

>  <inspirations>  (412) 
None

>  <subsites>  (412) 
None

>  <reference>  (412) 


>  <observation_longname>  (412) 
A71EV2A-x4586_A_201_v1

>  <ConformerSites alias>  (412) 
1b - A0911/A/147

>  <CanonSites alias>  (412) 
1 - Active Site

>  <CrystalformSites alias>  (412) 
F8h - A0884/A/147

>  <Quatassemblies alias>  (412) 
A1 - monomer

>  <Crystalforms alias>  (412) 
F8 - A712A_x4271_2.1_refmac1_1st_ref

>  <ConformerSites upload name>  (412) 
1b - A71EV2A-x0911/A/147

>  <CanonSites upload name>  (412) 
1 - A71EV2A-x0911/A/147/1

>  <CrystalformSites upload name>  (412) 
F8h - A71EV2A-x0884/A/147/1

>  <Quatassemblies upload name>  (412) 
A1 - monomer

>  <Crystalforms upload name>  (412) 
F8 - A712A_x4271_2.1_refmac1_1st_ref

>  <ConformerSites short tag>  (412) 
1b - A0911/A/147

>  <CanonSites short tag>  (412) 
1 - A0911/A/147/1

>  <CrystalformSites short tag>  (412) 
F8h - A0884/A/147

>  <Quatassemblies short tag>  (412) 
A1 - monomer

>  <Crystalforms short tag>  (412) 
F8 - A712A_x4271_2.1_refmac1_1st_ref

>  <Centroid res>  (412) 
A71EV2A-x0911/A/133/A_v1

>  <Experiment code>  (412) 
A71EV2A-x4586

>  <Pose>  (412) 
A4586a

$$$$
A4596b
     RDKit          3D

 20 22  0  0  0  0  0  0  0  0999 V2000
   34.4920   21.3170   15.0760 O   0  0  0  0  0  0  0  0  0  0  0  0
   34.3650   22.5260   14.9040 C   0  0  0  0  0  0  0  0  0  0  0  0
   34.3190   23.0910   13.5010 C   0  0  0  0  0  0  0  0  0  0  0  0
   34.4200   24.6140   13.3850 C   0  0  0  0  0  0  0  0  0  0  0  0
   34.2410   23.4010   15.9410 N   0  0  0  0  0  0  0  0  0  0  0  0
   34.1360   24.8610   15.8510 C   0  0  0  0  0  0  0  0  0  0  0  0
   33.6220   25.3380   14.4830 C   0  0  1  0  0  0  0  0  0  0  0  0
   33.8260   26.8460   14.4480 C   0  0  0  0  0  0  0  0  0  0  0  0
   33.6630   27.5250   15.4670 O   0  0  0  0  0  0  0  0  0  0  0  0
   34.1270   27.3960   13.2610 N   0  0  0  0  0  0  0  0  0  0  0  0
   34.2260   22.8880   17.3160 C   0  0  0  0  0  0  0  0  0  0  0  0
   32.8730   22.3480   17.7280 C   0  0  0  0  0  0  0  0  0  0  0  0
   31.8620   23.2160   18.1330 C   0  0  0  0  0  0  0  0  0  0  0  0
   30.6050   22.7070   18.4510 C   0  0  0  0  0  0  0  0  0  0  0  0
   29.4530   23.3510   18.8340 N   0  0  0  0  0  0  0  0  0  0  0  0
   28.4710   22.4180   19.0500 C   0  0  0  0  0  0  0  0  0  0  0  0
   28.9520   21.1730   18.8080 C   0  0  0  0  0  0  0  0  0  0  0  0
   30.3230   21.3260   18.4000 C   0  0  0  0  0  0  0  0  0  0  0  0
   31.3510   20.4750   17.9820 C   0  0  0  0  0  0  0  0  0  0  0  0
   32.6020   20.9820   17.6640 C   0  0  0  0  0  0  0  0  0  0  0  0
 10  8  1  0
  9  8  2  0
  7  8  1  1
  7  4  1  0
  4  3  1  0
  3  2  1  0
  2  1  2  0
  5  2  1  0
 11  5  1  0
 12 11  1  0
 12 20  2  0
 20 19  1  0
 19 18  2  0
 18 17  1  0
 17 16  2  0
 16 15  1  0
 15 14  1  0
 18 14  1  0
 14 13  2  0
 13 12  1  0
  6  5  1  0
  7  6  1  0
M  END
>  <id>  (413) 
413

>  <inchikey>  (413) 
DJIPBZNZGHFGJT-LBPRGKRZSA-N

>  <alias>  (413) 
A4596b

>  <smiles>  (413) 
NC(=O)[C@H]1CCC(=O)N(Cc2ccc3cc[nH]c3c2)C1

>  <path>  (413) 
/opt/xchem-fragalysis-2/maxwin/BulkDock/TARGETS/A71EV2A/aligned_files/A4596b/A4596b_hippo.pdb

>  <distance_score>  (413) 
None

>  <energy_score>  (413) 
None

>  <compound>  (413) 
DJIPBZNZGHFGJT-UHFFFAOYSA-N

>  <compound_id>  (413) 
311

>  <target>  (413) 
A71EV2A

>  <tags>  (413) 
['GOOD count', 'MEDIOCRE count', '[Other] S1 site', 'hits', '[Other] S2 site', '[Other] P3 compound design', '[Other] upload_1 2025-02-12', 'Main status', '[Series] Piperidine series', 'BAD count']

>  <inspirations>  (413) 
None

>  <subsites>  (413) 
None

>  <reference>  (413) 


>  <observation_longname>  (413) 
A71EV2A-x4596_A_202_v1

>  <ConformerSites alias>  (413) 
8a - A0517/A/147

>  <CanonSites alias>  (413) 
8 - A0517/A/147/1

>  <CrystalformSites alias>  (413) 
F6af - A4596/A/202

>  <Quatassemblies alias>  (413) 
A1 - monomer

>  <Crystalforms alias>  (413) 
F6 - short_long_x4018

>  <ConformerSites upload name>  (413) 
8a - A71EV2A-x0517/A/147

>  <CanonSites upload name>  (413) 
8 - A71EV2A-x0517/A/147/1

>  <CrystalformSites upload name>  (413) 
F6af - A71EV2A-x4596/A/202/1

>  <Quatassemblies upload name>  (413) 
A1 - monomer

>  <Crystalforms upload name>  (413) 
F6 - short_long_x4018

>  <ConformerSites short tag>  (413) 
8a - A0517/A/147

>  <CanonSites short tag>  (413) 
8 - A0517/A/147/1

>  <CrystalformSites short tag>  (413) 
F6af - A4596/A/202

>  <Quatassemblies short tag>  (413) 
A1 - monomer

>  <Crystalforms short tag>  (413) 
F6 - short_long_x4018

>  <Centroid res>  (413) 
A71EV2A-x0517/A/43/A_v1

>  <Experiment code>  (413) 
A71EV2A-x4596

>  <Pose>  (413) 
A4596b

$$$$
A4596a
     RDKit          3D

 20 22  0  0  0  0  0  0  0  0999 V2000
   11.2190   15.0680   24.9770 O   0  0  0  0  0  0  0  0  0  0  0  0
   11.1240   15.1690   23.7580 C   0  0  0  0  0  0  0  0  0  0  0  0
   12.3640   15.2990   22.9130 C   0  0  0  0  0  0  0  0  0  0  0  0
   12.1290   15.7940   21.4940 C   0  0  0  0  0  0  0  0  0  0  0  0
    9.9180   15.1850   23.1240 N   0  0  0  0  0  0  0  0  0  0  0  0
    9.6790   15.3840   21.6870 C   0  0  0  0  0  0  0  0  0  0  0  0
   10.9340   15.0740   20.8680 C   0  0  1  0  0  0  0  0  0  0  0  0
   10.7680   15.4900   19.4170 C   0  0  0  0  0  0  0  0  0  0  0  0
   10.4090   16.6350   19.1180 O   0  0  0  0  0  0  0  0  0  0  0  0
   11.0490   14.5650   18.5160 N   0  0  0  0  0  0  0  0  0  0  0  0
    8.6920   15.0400   23.9240 C   0  0  0  0  0  0  0  0  0  0  0  0
    8.3370   13.6010   24.2070 C   0  0  0  0  0  0  0  0  0  0  0  0
    7.2850   13.3000   25.0670 C   0  0  0  0  0  0  0  0  0  0  0  0
    6.9380   11.9690   25.2800 C   0  0  0  0  0  0  0  0  0  0  0  0
    5.9490   11.4200   26.0620 N   0  0  0  0  0  0  0  0  0  0  0  0
    5.9870   10.0570   25.9270 C   0  0  0  0  0  0  0  0  0  0  0  0
    6.9870    9.7010   25.0810 C   0  0  0  0  0  0  0  0  0  0  0  0
    7.6180   10.9110   24.6470 C   0  0  0  0  0  0  0  0  0  0  0  0
    8.6820   11.2400   23.8050 C   0  0  0  0  0  0  0  0  0  0  0  0
    9.0310   12.5640   23.5970 C   0  0  0  0  0  0  0  0  0  0  0  0
 10  8  1  0
  9  8  2  0
  7  8  1  6
  7  4  1  0
  4  3  1  0
  3  2  1  0
  2  1  2  0
  5  2  1  0
 11  5  1  0
 12 11  1  0
 12 20  2  0
 20 19  1  0
 19 18  2  0
 18 17  1  0
 17 16  2  0
 16 15  1  0
 15 14  1  0
 18 14  1  0
 14 13  2  0
 13 12  1  0
  6  5  1  0
  7  6  1  0
M  END
>  <id>  (414) 
414

>  <inchikey>  (414) 
DJIPBZNZGHFGJT-LBPRGKRZSA-N

>  <alias>  (414) 
A4596a

>  <smiles>  (414) 
NC(=O)[C@H]1CCC(=O)N(Cc2ccc3cc[nH]c3c2)C1

>  <path>  (414) 
/opt/xchem-fragalysis-2/maxwin/BulkDock/TARGETS/A71EV2A/aligned_files/A4596a/A4596a_hippo.pdb

>  <distance_score>  (414) 
None

>  <energy_score>  (414) 
None

>  <compound>  (414) 
DJIPBZNZGHFGJT-UHFFFAOYSA-N

>  <compound_id>  (414) 
311

>  <target>  (414) 
A71EV2A

>  <tags>  (414) 
['GOOD count', 'MEDIOCRE count', '[Other] S1 site', 'hits', '[Other] S2 site', '[Other] upload_6_2025-02-13', '[Other] P3 compound design', '[Series] Piperidine series', 'Main status', 'BAD count']

>  <inspirations>  (414) 
None

>  <subsites>  (414) 
None

>  <reference>  (414) 


>  <observation_longname>  (414) 
A71EV2A-x4596_A_201_v1

>  <ConformerSites alias>  (414) 
1b - A0911/A/147

>  <CanonSites alias>  (414) 
1 - Active Site

>  <CrystalformSites alias>  (414) 
F6o - A4214/A/201

>  <Quatassemblies alias>  (414) 
A1 - monomer

>  <Crystalforms alias>  (414) 
F6 - short_long_x4018

>  <ConformerSites upload name>  (414) 
1b - A71EV2A-x0911/A/147

>  <CanonSites upload name>  (414) 
1 - A71EV2A-x0911/A/147/1

>  <CrystalformSites upload name>  (414) 
F6o - A71EV2A-x4214/A/201/1

>  <Quatassemblies upload name>  (414) 
A1 - monomer

>  <Crystalforms upload name>  (414) 
F6 - short_long_x4018

>  <ConformerSites short tag>  (414) 
1b - A0911/A/147

>  <CanonSites short tag>  (414) 
1 - A0911/A/147/1

>  <CrystalformSites short tag>  (414) 
F6o - A4214/A/201

>  <Quatassemblies short tag>  (414) 
A1 - monomer

>  <Crystalforms short tag>  (414) 
F6 - short_long_x4018

>  <Centroid res>  (414) 
A71EV2A-x0911/A/133/A_v1

>  <Experiment code>  (414) 
A71EV2A-x4596

>  <Pose>  (414) 
A4596a

$$$$
A4596c
     RDKit          3D

 20 22  0  0  0  0  0  0  0  0999 V2000
   11.4710   15.1700   24.9780 O   0  0  0  0  0  0  0  0  0  0  0  0
   11.3280   15.2830   23.7660 C   0  0  0  0  0  0  0  0  0  0  0  0
   12.5420   15.4210   22.8790 C   0  0  0  0  0  0  0  0  0  0  0  0
   12.2380   15.9020   21.4650 C   0  0  0  0  0  0  0  0  0  0  0  0
   10.1100   15.2690   23.1770 N   0  0  0  0  0  0  0  0  0  0  0  0
    9.8110   15.4530   21.7490 C   0  0  0  0  0  0  0  0  0  0  0  0
   11.0370   15.1420   20.8840 C   0  0  1  0  0  0  0  0  0  0  0  0
   10.7920   15.5450   19.4410 C   0  0  0  0  0  0  0  0  0  0  0  0
   10.4210   16.6950   19.1540 O   0  0  0  0  0  0  0  0  0  0  0  0
   11.0030   14.6030   18.5390 N   0  0  0  0  0  0  0  0  0  0  0  0
    8.9200   15.0950   24.0210 C   0  0  0  0  0  0  0  0  0  0  0  0
    8.5740   13.6420   24.2710 C   0  0  0  0  0  0  0  0  0  0  0  0
    7.5420   13.3140   25.1450 C   0  0  0  0  0  0  0  0  0  0  0  0
    7.2140   11.9810   25.3460 C   0  0  0  0  0  0  0  0  0  0  0  0
    6.2420   11.4130   26.1360 N   0  0  0  0  0  0  0  0  0  0  0  0
    6.2820   10.0520   25.9820 C   0  0  0  0  0  0  0  0  0  0  0  0
    7.2700    9.7130   25.1140 C   0  0  0  0  0  0  0  0  0  0  0  0
    7.8880   10.9360   24.6860 C   0  0  0  0  0  0  0  0  0  0  0  0
    8.9300   11.2840   23.8280 C   0  0  0  0  0  0  0  0  0  0  0  0
    9.2670   12.6120   23.6310 C   0  0  0  0  0  0  0  0  0  0  0  0
 10  8  1  0
  9  8  2  0
  7  8  1  6
  7  4  1  0
  4  3  1  0
  3  2  1  0
  2  1  2  0
  5  2  1  0
 11  5  1  0
 12 11  1  0
 12 20  2  0
 20 19  1  0
 19 18  2  0
 18 17  1  0
 17 16  2  0
 16 15  1  0
 15 14  1  0
 18 14  1  0
 14 13  2  0
 13 12  1  0
  6  5  1  0
  7  6  1  0
M  END
>  <id>  (415) 
415

>  <inchikey>  (415) 
DJIPBZNZGHFGJT-LBPRGKRZSA-N

>  <alias>  (415) 
A4596c

>  <smiles>  (415) 
NC(=O)[C@H]1CCC(=O)N(Cc2ccc3cc[nH]c3c2)C1

>  <path>  (415) 
/opt/xchem-fragalysis-2/maxwin/BulkDock/TARGETS/A71EV2A/aligned_files/A4596c/A4596c.pdb

>  <distance_score>  (415) 
None

>  <energy_score>  (415) 
None

>  <compound>  (415) 
DJIPBZNZGHFGJT-UHFFFAOYSA-N

>  <compound_id>  (415) 
311

>  <target>  (415) 
A71EV2A

>  <tags>  (415) 
['GOOD count', 'MEDIOCRE count', '[Other] S1 site', 'hits', '[Other] S2 site', '[Other] upload_6_2025-02-13', '[Other] P3 compound design', '[Series] Piperidine series', 'Main status', 'BAD count']

>  <inspirations>  (415) 
None

>  <subsites>  (415) 
None

>  <reference>  (415) 


>  <observation_longname>  (415) 
A71EV2A-x4596_C_201_v1

>  <ConformerSites alias>  (415) 
1b - A0911/A/147

>  <CanonSites alias>  (415) 
1 - Active Site

>  <CrystalformSites alias>  (415) 
F6p - A4214/C/201

>  <Quatassemblies alias>  (415) 
A1 - monomer

>  <Crystalforms alias>  (415) 
F6 - short_long_x4018

>  <ConformerSites upload name>  (415) 
1b - A71EV2A-x0911/A/147

>  <CanonSites upload name>  (415) 
1 - A71EV2A-x0911/A/147/1

>  <CrystalformSites upload name>  (415) 
F6p - A71EV2A-x4214/C/201/1

>  <Quatassemblies upload name>  (415) 
A1 - monomer

>  <Crystalforms upload name>  (415) 
F6 - short_long_x4018

>  <ConformerSites short tag>  (415) 
1b - A0911/A/147

>  <CanonSites short tag>  (415) 
1 - A0911/A/147/1

>  <CrystalformSites short tag>  (415) 
F6p - A4214/C/201

>  <Quatassemblies short tag>  (415) 
A1 - monomer

>  <Crystalforms short tag>  (415) 
F6 - short_long_x4018

>  <Centroid res>  (415) 
A71EV2A-x0911/A/133/A_v1

>  <Experiment code>  (415) 
A71EV2A-x4596

>  <Pose>  (415) 
A4596a

$$$$
A4606a
     RDKit          3D

 20 22  0  0  0  0  0  0  0  0999 V2000
    7.8210   13.2160   22.6000 O   0  0  0  0  0  0  0  0  0  0  0  0
    8.7380   13.6030   23.3010 C   0  0  0  0  0  0  0  0  0  0  0  0
    9.5040   14.6500   22.9420 N   0  0  0  0  0  0  0  0  0  0  0  0
   10.5780   15.2370   23.7600 C   0  0  0  0  0  0  0  0  0  0  0  0
   11.9420   15.1030   23.0800 C   0  0  0  0  0  0  0  0  0  0  0  0
   11.8800   15.6310   21.6450 C   0  0  0  0  0  0  0  0  0  0  0  0
    9.4010   15.2250   21.5980 C   0  0  0  0  0  0  0  0  0  0  0  0
   10.7230   14.9770   20.8630 C   0  0  1  0  0  0  0  0  0  0  0  0
   10.6450   15.4910   19.4370 C   0  0  0  0  0  0  0  0  0  0  0  0
   10.2620   16.6370   19.1890 O   0  0  0  0  0  0  0  0  0  0  0  0
   10.9850   14.6200   18.4860 N   0  0  0  0  0  0  0  0  0  0  0  0
    9.0260   12.8850   24.6290 C   0  0  1  0  0  0  0  0  0  0  0  0
    7.8710   12.0250   25.0640 C   0  0  0  0  0  0  0  0  0  0  0  0
    8.0890   10.6760   24.7740 C   0  0  0  0  0  0  0  0  0  0  0  0
    9.4020   10.3660   24.1230 C   0  0  0  0  0  0  0  0  0  0  0  0
   10.4630   11.7650   24.4510 S   0  0  0  0  0  0  0  0  0  0  0  0
    6.7930   12.5010   25.6990 N   0  0  0  0  0  0  0  0  0  0  0  0
    5.8790   11.5890   26.0840 C   0  0  0  0  0  0  0  0  0  0  0  0
    5.9950   10.2280   25.8350 C   0  0  0  0  0  0  0  0  0  0  0  0
    7.1120    9.7710   25.1590 C   0  0  0  0  0  0  0  0  0  0  0  0
 11  9  1  0
 10  9  2  0
  8  9  1  6
  8  6  1  0
  6  5  1  0
  5  4  1  0
  4  3  1  0
  3  2  1  0
  2  1  2  0
 12  2  1  6
 12 16  1  0
 16 15  1  0
 15 14  1  0
 14 20  2  0
 20 19  1  0
 19 18  2  0
 18 17  1  0
 17 13  2  0
 14 13  1  0
 13 12  1  0
  7  3  1  0
  8  7  1  0
M  END
>  <id>  (416) 
416

>  <inchikey>  (416) 
VXTCJEPNAMERNR-JOYOIKCWSA-N

>  <alias>  (416) 
A4606a

>  <smiles>  (416) 
NC(=O)[C@H]1CCCN(C(=O)[C@@H]2SCc3cccnc32)C1

>  <path>  (416) 
/opt/xchem-fragalysis-2/maxwin/BulkDock/TARGETS/A71EV2A/aligned_files/A4606a/A4606a_hippo.pdb

>  <distance_score>  (416) 
None

>  <energy_score>  (416) 
None

>  <compound>  (416) 
VXTCJEPNAMERNR-UHFFFAOYSA-N

>  <compound_id>  (416) 
312

>  <target>  (416) 
A71EV2A

>  <tags>  (416) 
['GOOD count', 'MEDIOCRE count', '[Other] S1 site', 'hits', '[Other] S2 site', '[Other] P3 compound design', '[Other] upload_1 2025-02-12', 'Main status', '[Series] Piperidine series', 'BAD count']

>  <inspirations>  (416) 
None

>  <subsites>  (416) 
None

>  <reference>  (416) 


>  <observation_longname>  (416) 
A71EV2A-x4606_A_201_v1

>  <ConformerSites alias>  (416) 
1b - A0911/A/147

>  <CanonSites alias>  (416) 
1 - Active Site

>  <CrystalformSites alias>  (416) 
F6o - A4214/A/201

>  <Quatassemblies alias>  (416) 
A1 - monomer

>  <Crystalforms alias>  (416) 
F6 - short_long_x4018

>  <ConformerSites upload name>  (416) 
1b - A71EV2A-x0911/A/147

>  <CanonSites upload name>  (416) 
1 - A71EV2A-x0911/A/147/1

>  <CrystalformSites upload name>  (416) 
F6o - A71EV2A-x4214/A/201/1

>  <Quatassemblies upload name>  (416) 
A1 - monomer

>  <Crystalforms upload name>  (416) 
F6 - short_long_x4018

>  <ConformerSites short tag>  (416) 
1b - A0911/A/147

>  <CanonSites short tag>  (416) 
1 - A0911/A/147/1

>  <CrystalformSites short tag>  (416) 
F6o - A4214/A/201

>  <Quatassemblies short tag>  (416) 
A1 - monomer

>  <Crystalforms short tag>  (416) 
F6 - short_long_x4018

>  <Centroid res>  (416) 
A71EV2A-x0911/A/133/A_v1

>  <Experiment code>  (416) 
A71EV2A-x4606

>  <Pose>  (416) 
A4606a

$$$$
A4606b
     RDKit          3D

 20 22  0  0  0  0  0  0  0  0999 V2000
    8.0550   13.1940   22.7110 O   0  0  0  0  0  0  0  0  0  0  0  0
    8.9810   13.6430   23.3780 C   0  0  0  0  0  0  0  0  0  0  0  0
    9.6890   14.7250   22.9830 N   0  0  0  0  0  0  0  0  0  0  0  0
   10.7490   15.4080   23.7440 C   0  0  0  0  0  0  0  0  0  0  0  0
   12.0970   15.2620   23.0380 C   0  0  0  0  0  0  0  0  0  0  0  0
   11.9940   15.7440   21.5860 C   0  0  0  0  0  0  0  0  0  0  0  0
    9.5330   15.2390   21.6180 C   0  0  0  0  0  0  0  0  0  0  0  0
   10.8430   15.0280   20.8530 C   0  0  1  0  0  0  0  0  0  0  0  0
   10.6930   15.5320   19.4290 C   0  0  0  0  0  0  0  0  0  0  0  0
   10.3130   16.6920   19.2000 O   0  0  0  0  0  0  0  0  0  0  0  0
   10.9610   14.6450   18.4700 N   0  0  0  0  0  0  0  0  0  0  0  0
    9.3540   12.9550   24.7290 C   0  0  1  0  0  0  0  0  0  0  0  0
    8.2170   12.0480   25.1710 C   0  0  0  0  0  0  0  0  0  0  0  0
    8.4230   10.7080   24.8370 C   0  0  0  0  0  0  0  0  0  0  0  0
    9.7250   10.4190   24.1530 C   0  0  0  0  0  0  0  0  0  0  0  0
   10.7790   11.8370   24.4660 S   0  0  0  0  0  0  0  0  0  0  0  0
    7.1670   12.5060   25.8630 N   0  0  0  0  0  0  0  0  0  0  0  0
    6.2780   11.5840   26.2780 C   0  0  0  0  0  0  0  0  0  0  0  0
    6.3840   10.2360   25.9950 C   0  0  0  0  0  0  0  0  0  0  0  0
    7.4640    9.7910   25.2490 C   0  0  0  0  0  0  0  0  0  0  0  0
 11  9  1  0
 10  9  2  0
  8  9  1  6
  8  6  1  0
  6  5  1  0
  5  4  1  0
  4  3  1  0
  3  2  1  0
  2  1  2  0
 12  2  1  6
 12 16  1  0
 16 15  1  0
 15 14  1  0
 14 20  2  0
 20 19  1  0
 19 18  2  0
 18 17  1  0
 17 13  2  0
 14 13  1  0
 13 12  1  0
  7  3  1  0
  8  7  1  0
M  END
>  <id>  (417) 
417

>  <inchikey>  (417) 
VXTCJEPNAMERNR-JOYOIKCWSA-N

>  <alias>  (417) 
A4606b

>  <smiles>  (417) 
NC(=O)[C@H]1CCCN(C(=O)[C@@H]2SCc3cccnc32)C1

>  <path>  (417) 
/opt/xchem-fragalysis-2/maxwin/BulkDock/TARGETS/A71EV2A/aligned_files/A4606b/A4606b.pdb

>  <distance_score>  (417) 
None

>  <energy_score>  (417) 
None

>  <compound>  (417) 
VXTCJEPNAMERNR-UHFFFAOYSA-N

>  <compound_id>  (417) 
312

>  <target>  (417) 
A71EV2A

>  <tags>  (417) 
['GOOD count', 'MEDIOCRE count', '[Other] S1 site', 'hits', '[Other] S2 site', '[Other] P3 compound design', '[Other] upload_1 2025-02-12', 'Main status', '[Series] Piperidine series', 'BAD count']

>  <inspirations>  (417) 
None

>  <subsites>  (417) 
None

>  <reference>  (417) 


>  <observation_longname>  (417) 
A71EV2A-x4606_C_201_v1

>  <ConformerSites alias>  (417) 
1b - A0911/A/147

>  <CanonSites alias>  (417) 
1 - Active Site

>  <CrystalformSites alias>  (417) 
F6p - A4214/C/201

>  <Quatassemblies alias>  (417) 
A1 - monomer

>  <Crystalforms alias>  (417) 
F6 - short_long_x4018

>  <ConformerSites upload name>  (417) 
1b - A71EV2A-x0911/A/147

>  <CanonSites upload name>  (417) 
1 - A71EV2A-x0911/A/147/1

>  <CrystalformSites upload name>  (417) 
F6p - A71EV2A-x4214/C/201/1

>  <Quatassemblies upload name>  (417) 
A1 - monomer

>  <Crystalforms upload name>  (417) 
F6 - short_long_x4018

>  <ConformerSites short tag>  (417) 
1b - A0911/A/147

>  <CanonSites short tag>  (417) 
1 - A0911/A/147/1

>  <CrystalformSites short tag>  (417) 
F6p - A4214/C/201

>  <Quatassemblies short tag>  (417) 
A1 - monomer

>  <Crystalforms short tag>  (417) 
F6 - short_long_x4018

>  <Centroid res>  (417) 
A71EV2A-x0911/A/133/A_v1

>  <Experiment code>  (417) 
A71EV2A-x4606

>  <Pose>  (417) 
A4606a

$$$$
A4608a
     RDKit          3D

 21 23  0  0  0  0  0  0  0  0999 V2000
   10.2680   16.5110   19.1960 O   0  0  0  0  0  0  0  0  0  0  0  0
   10.6650   15.3770   19.4840 C   0  0  0  0  0  0  0  0  0  0  0  0
   11.2560   14.5860   18.6120 N   0  0  0  0  0  0  0  0  0  0  0  0
   10.5120   14.8190   20.8900 C   0  0  1  0  0  0  0  0  0  0  0  0
   11.7270   15.1540   21.7700 C   0  0  0  0  0  0  0  0  0  0  0  0
   11.6280   14.5050   23.1570 C   0  0  0  0  0  0  0  0  0  0  0  0
   10.2820   14.8060   23.8120 C   0  0  0  0  0  0  0  0  0  0  0  0
    9.2240   15.1840   21.6410 C   0  0  0  0  0  0  0  0  0  0  0  0
    9.1680   14.4570   22.9150 N   0  0  0  0  0  0  0  0  0  0  0  0
    8.2060   13.5420   23.1790 C   0  0  0  0  0  0  0  0  0  0  0  0
    7.3850   13.2130   22.3410 O   0  0  0  0  0  0  0  0  0  0  0  0
    8.2070   12.8420   24.5280 C   0  0  2  0  0  0  0  0  0  0  0  0
    8.5930   11.4000   24.2580 C   0  0  0  0  0  0  0  0  0  0  0  0
    9.4810   10.7970   23.4210 C   0  0  0  0  0  0  0  0  0  0  0  0
    6.8000   12.8940   25.1650 C   0  0  0  0  0  0  0  0  0  0  0  0
    6.7050   11.9640   26.3740 C   0  0  0  0  0  0  0  0  0  0  0  0
    6.8640   10.5050   25.9550 C   0  0  0  0  0  0  0  0  0  0  0  0
    7.9620   10.3300   24.9490 C   0  0  0  0  0  0  0  0  0  0  0  0
    8.4270    9.1750   24.5650 N   0  0  0  0  0  0  0  0  0  0  0  0
    9.3520    9.4790   23.6250 N   0  0  0  0  0  0  0  0  0  0  0  0
   10.0470    8.4030   22.9330 C   0  0  0  0  0  0  0  0  0  0  0  0
 21 20  1  0
 20 14  1  0
 14 13  2  0
 13 18  1  0
 19 18  2  0
 20 19  1  0
 18 17  1  0
 17 16  1  0
 16 15  1  0
 15 12  1  0
 13 12  1  0
 12 10  1  6
 11 10  2  0
 10  9  1  0
  9  7  1  0
  7  6  1  0
  6  5  1  0
  5  4  1  0
  4  2  1  6
  3  2  1  0
  2  1  2  0
  8  4  1  0
  9  8  1  0
M  END
>  <id>  (418) 
418

>  <inchikey>  (418) 
BUOYLGKYMMYMLX-QWRGUYRKSA-N

>  <alias>  (418) 
A4608a

>  <smiles>  (418) 
Cn1cc2c(n1)CCC[C@@H]2C(=O)N1CCC[C@H](C(N)=O)C1

>  <path>  (418) 
/opt/xchem-fragalysis-2/maxwin/BulkDock/TARGETS/A71EV2A/aligned_files/A4608a/A4608a.pdb

>  <distance_score>  (418) 
None

>  <energy_score>  (418) 
None

>  <compound>  (418) 
BUOYLGKYMMYMLX-UHFFFAOYSA-N

>  <compound_id>  (418) 
313

>  <target>  (418) 
A71EV2A

>  <tags>  (418) 
['GOOD count', 'MEDIOCRE count', '[Other] S1 site', 'hits', '[Other] S2 site', '[Other] P3 compound design', '[Other] upload_1 2025-02-12', 'Main status', '[Series] Piperidine series', 'BAD count']

>  <inspirations>  (418) 
None

>  <subsites>  (418) 
None

>  <reference>  (418) 


>  <observation_longname>  (418) 
A71EV2A-x4608_A_201_v1

>  <ConformerSites alias>  (418) 
1b - A0911/A/147

>  <CanonSites alias>  (418) 
1 - Active Site

>  <CrystalformSites alias>  (418) 
F8h - A0884/A/147

>  <Quatassemblies alias>  (418) 
A1 - monomer

>  <Crystalforms alias>  (418) 
F8 - A712A_x4271_2.1_refmac1_1st_ref

>  <ConformerSites upload name>  (418) 
1b - A71EV2A-x0911/A/147

>  <CanonSites upload name>  (418) 
1 - A71EV2A-x0911/A/147/1

>  <CrystalformSites upload name>  (418) 
F8h - A71EV2A-x0884/A/147/1

>  <Quatassemblies upload name>  (418) 
A1 - monomer

>  <Crystalforms upload name>  (418) 
F8 - A712A_x4271_2.1_refmac1_1st_ref

>  <ConformerSites short tag>  (418) 
1b - A0911/A/147

>  <CanonSites short tag>  (418) 
1 - A0911/A/147/1

>  <CrystalformSites short tag>  (418) 
F8h - A0884/A/147

>  <Quatassemblies short tag>  (418) 
A1 - monomer

>  <Crystalforms short tag>  (418) 
F8 - A712A_x4271_2.1_refmac1_1st_ref

>  <Centroid res>  (418) 
A71EV2A-x0911/A/133/A_v1

>  <Experiment code>  (418) 
A71EV2A-x4608

>  <Pose>  (418) 
A4608a

$$$$
A4611a
     RDKit          3D

 20 22  0  0  0  0  0  0  0  0999 V2000
   10.5680   14.8480   25.1900 O   0  0  0  0  0  0  0  0  0  0  0  0
   10.5830   14.9260   23.9680 C   0  0  0  0  0  0  0  0  0  0  0  0
   11.8950   15.0950   23.2490 C   0  0  0  0  0  0  0  0  0  0  0  0
   11.7730   15.6760   21.8400 C   0  0  0  0  0  0  0  0  0  0  0  0
    9.4410   14.9420   23.2230 N   0  0  0  0  0  0  0  0  0  0  0  0
    9.3320   15.0940   21.7660 C   0  0  0  0  0  0  0  0  0  0  0  0
   10.6840   14.9280   21.0540 C   0  0  1  0  0  0  0  0  0  0  0  0
   10.5940   15.4360   19.6240 C   0  0  0  0  0  0  0  0  0  0  0  0
   10.2530   16.5920   19.3810 O   0  0  0  0  0  0  0  0  0  0  0  0
   10.9220   14.5720   18.6760 N   0  0  0  0  0  0  0  0  0  0  0  0
    8.1600   15.0080   23.9100 C   0  0  0  0  0  0  0  0  0  0  0  0
    7.7030   13.7290   24.5560 C   0  0  0  0  0  0  0  0  0  0  0  0
    8.0730   12.3940   24.1030 C   0  0  0  0  0  0  0  0  0  0  0  0
    7.2750   11.5620   24.8720 C   0  0  0  0  0  0  0  0  0  0  0  0
    6.5100   12.2950   25.7190 O   0  0  0  0  0  0  0  0  0  0  0  0
    6.8220   13.6810   25.4940 N   0  0  0  0  0  0  0  0  0  0  0  0
    9.0360   11.8120   23.2830 C   0  0  0  0  0  0  0  0  0  0  0  0
    9.1510   10.4300   23.2360 C   0  0  0  0  0  0  0  0  0  0  0  0
    8.3060    9.6240   23.9800 C   0  0  0  0  0  0  0  0  0  0  0  0
    7.3520   10.1830   24.8170 C   0  0  0  0  0  0  0  0  0  0  0  0
 10  8  1  0
  9  8  2  0
  7  8  1  6
  7  4  1  0
  4  3  1  0
  3  2  1  0
  2  1  2  0
  5  2  1  0
 11  5  1  0
 12 11  1  0
 12 16  2  0
 16 15  1  0
 15 14  1  0
 14 20  2  0
 20 19  1  0
 19 18  2  0
 18 17  1  0
 17 13  2  0
 13 12  1  0
 14 13  1  0
  6  5  1  0
  7  6  1  0
M  END
>  <id>  (419) 
419

>  <inchikey>  (419) 
HVDPIVYFHACNKQ-VIFPVBQESA-N

>  <alias>  (419) 
A4611a

>  <smiles>  (419) 
NC(=O)[C@H]1CCC(=O)N(Cc2noc3ccccc23)C1

>  <path>  (419) 
/opt/xchem-fragalysis-2/maxwin/BulkDock/TARGETS/A71EV2A/aligned_files/A4611a/A4611a_hippo.pdb

>  <distance_score>  (419) 
None

>  <energy_score>  (419) 
None

>  <compound>  (419) 
HVDPIVYFHACNKQ-UHFFFAOYSA-N

>  <compound_id>  (419) 
314

>  <target>  (419) 
A71EV2A

>  <tags>  (419) 
['GOOD count', 'MEDIOCRE count', '[Other] S1 site', 'hits', '[Other] S2 site', '[Other] P3 compound design', '[Other] upload_1 2025-02-12', 'Main status', '[Series] Piperidine series', 'BAD count']

>  <inspirations>  (419) 
None

>  <subsites>  (419) 
None

>  <reference>  (419) 


>  <observation_longname>  (419) 
A71EV2A-x4611_A_201_v1

>  <ConformerSites alias>  (419) 
1b - A0911/A/147

>  <CanonSites alias>  (419) 
1 - Active Site

>  <CrystalformSites alias>  (419) 
F7q - A4303/A/201

>  <Quatassemblies alias>  (419) 
A1 - monomer

>  <Crystalforms alias>  (419) 
F7 - A712A_x4207_8.1_refmac1_1st_ref

>  <ConformerSites upload name>  (419) 
1b - A71EV2A-x0911/A/147

>  <CanonSites upload name>  (419) 
1 - A71EV2A-x0911/A/147/1

>  <CrystalformSites upload name>  (419) 
F7q - A71EV2A-x4303/A/201/1

>  <Quatassemblies upload name>  (419) 
A1 - monomer

>  <Crystalforms upload name>  (419) 
F7 - A712A_x4207_8.1_refmac1_1st_ref

>  <ConformerSites short tag>  (419) 
1b - A0911/A/147

>  <CanonSites short tag>  (419) 
1 - A0911/A/147/1

>  <CrystalformSites short tag>  (419) 
F7q - A4303/A/201

>  <Quatassemblies short tag>  (419) 
A1 - monomer

>  <Crystalforms short tag>  (419) 
F7 - A712A_x4207_8.1_refmac1_1st_ref

>  <Centroid res>  (419) 
A71EV2A-x0911/A/133/A_v1

>  <Experiment code>  (419) 
A71EV2A-x4611

>  <Pose>  (419) 
A4611a

$$$$
A4611b
     RDKit          3D

 20 22  0  0  0  0  0  0  0  0999 V2000
   10.8460   14.9640   25.1850 O   0  0  0  0  0  0  0  0  0  0  0  0
   10.8150   15.0640   23.9650 C   0  0  0  0  0  0  0  0  0  0  0  0
   12.1040   15.2160   23.1950 C   0  0  0  0  0  0  0  0  0  0  0  0
   11.9270   15.7520   21.7770 C   0  0  0  0  0  0  0  0  0  0  0  0
    9.6500   15.0690   23.2590 N   0  0  0  0  0  0  0  0  0  0  0  0
    9.4860   15.1740   21.8010 C   0  0  0  0  0  0  0  0  0  0  0  0
   10.8110   14.9910   21.0470 C   0  0  1  0  0  0  0  0  0  0  0  0
   10.6680   15.4820   19.6150 C   0  0  0  0  0  0  0  0  0  0  0  0
   10.2910   16.6340   19.3710 O   0  0  0  0  0  0  0  0  0  0  0  0
   10.9740   14.6050   18.6690 N   0  0  0  0  0  0  0  0  0  0  0  0
    8.4020   15.1220   24.0070 C   0  0  0  0  0  0  0  0  0  0  0  0
    7.9720   13.8200   24.6340 C   0  0  0  0  0  0  0  0  0  0  0  0
    8.3200   12.4810   24.1490 C   0  0  0  0  0  0  0  0  0  0  0  0
    7.5510   11.6450   24.9440 C   0  0  0  0  0  0  0  0  0  0  0  0
    6.8250   12.3740   25.8320 O   0  0  0  0  0  0  0  0  0  0  0  0
    7.1320   13.7640   25.6090 N   0  0  0  0  0  0  0  0  0  0  0  0
    9.2560   11.8990   23.2960 C   0  0  0  0  0  0  0  0  0  0  0  0
    9.3770   10.5170   23.2460 C   0  0  0  0  0  0  0  0  0  0  0  0
    8.5570    9.7080   24.0160 C   0  0  0  0  0  0  0  0  0  0  0  0
    7.6260   10.2680   24.8810 C   0  0  0  0  0  0  0  0  0  0  0  0
 10  8  1  0
  9  8  2  0
  7  8  1  6
  7  4  1  0
  4  3  1  0
  3  2  1  0
  2  1  2  0
  5  2  1  0
 11  5  1  0
 12 11  1  0
 12 16  2  0
 16 15  1  0
 15 14  1  0
 14 20  2  0
 20 19  1  0
 19 18  2  0
 18 17  1  0
 17 13  2  0
 13 12  1  0
 14 13  1  0
  6  5  1  0
  7  6  1  0
M  END
>  <id>  (420) 
420

>  <inchikey>  (420) 
HVDPIVYFHACNKQ-VIFPVBQESA-N

>  <alias>  (420) 
A4611b

>  <smiles>  (420) 
NC(=O)[C@H]1CCC(=O)N(Cc2noc3ccccc23)C1

>  <path>  (420) 
/opt/xchem-fragalysis-2/maxwin/BulkDock/TARGETS/A71EV2A/aligned_files/A4611b/A4611b.pdb

>  <distance_score>  (420) 
None

>  <energy_score>  (420) 
None

>  <compound>  (420) 
HVDPIVYFHACNKQ-UHFFFAOYSA-N

>  <compound_id>  (420) 
314

>  <target>  (420) 
A71EV2A

>  <tags>  (420) 
['GOOD count', 'MEDIOCRE count', '[Other] S1 site', 'hits', '[Other] S2 site', '[Other] P3 compound design', '[Other] upload_1 2025-02-12', 'Main status', '[Series] Piperidine series', 'BAD count']

>  <inspirations>  (420) 
None

>  <subsites>  (420) 
None

>  <reference>  (420) 


>  <observation_longname>  (420) 
A71EV2A-x4611_C_201_v1

>  <ConformerSites alias>  (420) 
1b - A0911/A/147

>  <CanonSites alias>  (420) 
1 - Active Site

>  <CrystalformSites alias>  (420) 
F7r - A4303/C/201

>  <Quatassemblies alias>  (420) 
A1 - monomer

>  <Crystalforms alias>  (420) 
F7 - A712A_x4207_8.1_refmac1_1st_ref

>  <ConformerSites upload name>  (420) 
1b - A71EV2A-x0911/A/147

>  <CanonSites upload name>  (420) 
1 - A71EV2A-x0911/A/147/1

>  <CrystalformSites upload name>  (420) 
F7r - A71EV2A-x4303/C/201/1

>  <Quatassemblies upload name>  (420) 
A1 - monomer

>  <Crystalforms upload name>  (420) 
F7 - A712A_x4207_8.1_refmac1_1st_ref

>  <ConformerSites short tag>  (420) 
1b - A0911/A/147

>  <CanonSites short tag>  (420) 
1 - A0911/A/147/1

>  <CrystalformSites short tag>  (420) 
F7r - A4303/C/201

>  <Quatassemblies short tag>  (420) 
A1 - monomer

>  <Crystalforms short tag>  (420) 
F7 - A712A_x4207_8.1_refmac1_1st_ref

>  <Centroid res>  (420) 
A71EV2A-x0911/A/133/A_v1

>  <Experiment code>  (420) 
A71EV2A-x4611

>  <Pose>  (420) 
A4611a

$$$$
A4644a
     RDKit          3D

 21 22  0  0  0  0  0  0  0  0999 V2000
    9.5820   10.5040   24.1090 Br  0  0  0  0  0  0  0  0  0  0  0  0
    8.0960   11.1020   25.1230 C   0  0  0  0  0  0  0  0  0  0  0  0
    7.1950   10.1940   25.6330 C   0  0  0  0  0  0  0  0  0  0  0  0
    7.3580    8.8810   25.3870 F   0  0  0  0  0  0  0  0  0  0  0  0
    6.1300   10.6100   26.3870 C   0  0  0  0  0  0  0  0  0  0  0  0
    5.2550    9.6890   26.8260 F   0  0  0  0  0  0  0  0  0  0  0  0
    5.9340   11.9380   26.6650 C   0  0  0  0  0  0  0  0  0  0  0  0
    6.8350   12.8590   26.1590 C   0  0  0  0  0  0  0  0  0  0  0  0
    7.9290   12.4660   25.3800 C   0  0  0  0  0  0  0  0  0  0  0  0
    8.9150   13.5050   24.9040 C   0  0  0  0  0  0  0  0  0  0  0  0
    8.6800   13.8990   23.4580 C   0  0  0  0  0  0  0  0  0  0  0  0
    7.8190   13.3590   22.7840 O   0  0  0  0  0  0  0  0  0  0  0  0
    9.4750   14.8710   22.9640 N   0  0  0  0  0  0  0  0  0  0  0  0
   10.5240   15.5550   23.7340 C   0  0  0  0  0  0  0  0  0  0  0  0
   11.8860   15.3600   23.0770 C   0  0  0  0  0  0  0  0  0  0  0  0
   11.8390   15.8070   21.6160 C   0  0  0  0  0  0  0  0  0  0  0  0
    9.3790   15.2790   21.5590 C   0  0  0  0  0  0  0  0  0  0  0  0
   10.7230   15.0760   20.8510 C   0  0  1  0  0  0  0  0  0  0  0  0
   10.6180   15.5710   19.4180 C   0  0  0  0  0  0  0  0  0  0  0  0
   10.2500   16.7190   19.1690 O   0  0  0  0  0  0  0  0  0  0  0  0
   10.8920   14.6820   18.4760 N   0  0  0  0  0  0  0  0  0  0  0  0
 21 19  1  0
 20 19  2  0
 18 19  1  6
 18 16  1  0
 16 15  1  0
 15 14  1  0
 14 13  1  0
 13 11  1  0
 12 11  2  0
 11 10  1  0
 10  9  1  0
  9  8  2  0
  8  7  1  0
  7  5  2  0
  6  5  1  0
  5  3  1  0
  4  3  1  0
  3  2  2  0
  9  2  1  0
  2  1  1  0
 17 13  1  0
 18 17  1  0
M  END
>  <id>  (421) 
421

>  <inchikey>  (421) 
CAOQILUKBAIRHC-VIFPVBQESA-N

>  <alias>  (421) 
A4644a

>  <smiles>  (421) 
NC(=O)[C@H]1CCCN(C(=O)Cc2ccc(F)c(F)c2Br)C1

>  <path>  (421) 
/opt/xchem-fragalysis-2/maxwin/BulkDock/TARGETS/A71EV2A/aligned_files/A4644a/A4644a_hippo.pdb

>  <distance_score>  (421) 
None

>  <energy_score>  (421) 
None

>  <compound>  (421) 
CAOQILUKBAIRHC-UHFFFAOYSA-N

>  <compound_id>  (421) 
315

>  <target>  (421) 
A71EV2A

>  <tags>  (421) 
['GOOD count', 'MEDIOCRE count', '[Other] S1 site', 'hits', '[Other] S2 site', '[Other] P3 compound design', '[Other] upload_1 2025-02-12', 'Main status', '[Series] Piperidine series', 'BAD count']

>  <inspirations>  (421) 
None

>  <subsites>  (421) 
None

>  <reference>  (421) 


>  <observation_longname>  (421) 
A71EV2A-x4644_A_201_v1

>  <ConformerSites alias>  (421) 
1b - A0911/A/147

>  <CanonSites alias>  (421) 
1 - Active Site

>  <CrystalformSites alias>  (421) 
F7q - A4303/A/201

>  <Quatassemblies alias>  (421) 
A1 - monomer

>  <Crystalforms alias>  (421) 
F7 - A712A_x4207_8.1_refmac1_1st_ref

>  <ConformerSites upload name>  (421) 
1b - A71EV2A-x0911/A/147

>  <CanonSites upload name>  (421) 
1 - A71EV2A-x0911/A/147/1

>  <CrystalformSites upload name>  (421) 
F7q - A71EV2A-x4303/A/201/1

>  <Quatassemblies upload name>  (421) 
A1 - monomer

>  <Crystalforms upload name>  (421) 
F7 - A712A_x4207_8.1_refmac1_1st_ref

>  <ConformerSites short tag>  (421) 
1b - A0911/A/147

>  <CanonSites short tag>  (421) 
1 - A0911/A/147/1

>  <CrystalformSites short tag>  (421) 
F7q - A4303/A/201

>  <Quatassemblies short tag>  (421) 
A1 - monomer

>  <Crystalforms short tag>  (421) 
F7 - A712A_x4207_8.1_refmac1_1st_ref

>  <Centroid res>  (421) 
A71EV2A-x0911/A/133/A_v1

>  <Experiment code>  (421) 
A71EV2A-x4644

>  <Pose>  (421) 
A4644a

$$$$
A4644b
     RDKit          3D

 21 22  0  0  0  0  0  0  0  0999 V2000
    9.6390   10.5350   24.1150 Br  0  0  0  0  0  0  0  0  0  0  0  0
    8.1580   11.1070   25.1480 C   0  0  0  0  0  0  0  0  0  0  0  0
    7.2630   10.1930   25.6620 C   0  0  0  0  0  0  0  0  0  0  0  0
    7.4170    8.8830   25.4000 F   0  0  0  0  0  0  0  0  0  0  0  0
    6.2140   10.6020   26.4440 C   0  0  0  0  0  0  0  0  0  0  0  0
    5.3860    9.6640   26.9590 F   0  0  0  0  0  0  0  0  0  0  0  0
    6.0150   11.9300   26.7210 C   0  0  0  0  0  0  0  0  0  0  0  0
    6.9080   12.8540   26.2060 C   0  0  0  0  0  0  0  0  0  0  0  0
    7.9960   12.4690   25.4170 C   0  0  0  0  0  0  0  0  0  0  0  0
    8.9730   13.5080   24.9200 C   0  0  0  0  0  0  0  0  0  0  0  0
    8.7070   13.9100   23.4780 C   0  0  0  0  0  0  0  0  0  0  0  0
    7.8520   13.3450   22.8010 O   0  0  0  0  0  0  0  0  0  0  0  0
    9.4640   14.9200   22.9900 N   0  0  0  0  0  0  0  0  0  0  0  0
   10.4940   15.6470   23.7490 C   0  0  0  0  0  0  0  0  0  0  0  0
   11.8650   15.5000   23.0870 C   0  0  0  0  0  0  0  0  0  0  0  0
   11.7920   15.9250   21.6190 C   0  0  0  0  0  0  0  0  0  0  0  0
    9.3560   15.3250   21.5850 C   0  0  0  0  0  0  0  0  0  0  0  0
   10.6990   15.1420   20.8660 C   0  0  1  0  0  0  0  0  0  0  0  0
   10.5710   15.6350   19.4350 C   0  0  0  0  0  0  0  0  0  0  0  0
   10.1670   16.7760   19.1920 O   0  0  0  0  0  0  0  0  0  0  0  0
   10.8800   14.7580   18.4900 N   0  0  0  0  0  0  0  0  0  0  0  0
 21 19  1  0
 20 19  2  0
 18 19  1  6
 18 16  1  0
 16 15  1  0
 15 14  1  0
 14 13  1  0
 13 11  1  0
 12 11  2  0
 11 10  1  0
 10  9  1  0
  9  8  2  0
  8  7  1  0
  7  5  2  0
  6  5  1  0
  5  3  1  0
  4  3  1  0
  3  2  2  0
  9  2  1  0
  2  1  1  0
 17 13  1  0
 18 17  1  0
M  END
>  <id>  (422) 
422

>  <inchikey>  (422) 
CAOQILUKBAIRHC-VIFPVBQESA-N

>  <alias>  (422) 
A4644b

>  <smiles>  (422) 
NC(=O)[C@H]1CCCN(C(=O)Cc2ccc(F)c(F)c2Br)C1

>  <path>  (422) 
/opt/xchem-fragalysis-2/maxwin/BulkDock/TARGETS/A71EV2A/aligned_files/A4644b/A4644b.pdb

>  <distance_score>  (422) 
None

>  <energy_score>  (422) 
None

>  <compound>  (422) 
CAOQILUKBAIRHC-UHFFFAOYSA-N

>  <compound_id>  (422) 
315

>  <target>  (422) 
A71EV2A

>  <tags>  (422) 
['GOOD count', 'MEDIOCRE count', '[Other] S1 site', 'hits', '[Other] S2 site', '[Other] P3 compound design', '[Other] upload_1 2025-02-12', 'Main status', '[Series] Piperidine series', 'BAD count']

>  <inspirations>  (422) 
None

>  <subsites>  (422) 
None

>  <reference>  (422) 


>  <observation_longname>  (422) 
A71EV2A-x4644_C_201_v1

>  <ConformerSites alias>  (422) 
1b - A0911/A/147

>  <CanonSites alias>  (422) 
1 - Active Site

>  <CrystalformSites alias>  (422) 
F7r - A4303/C/201

>  <Quatassemblies alias>  (422) 
A1 - monomer

>  <Crystalforms alias>  (422) 
F7 - A712A_x4207_8.1_refmac1_1st_ref

>  <ConformerSites upload name>  (422) 
1b - A71EV2A-x0911/A/147

>  <CanonSites upload name>  (422) 
1 - A71EV2A-x0911/A/147/1

>  <CrystalformSites upload name>  (422) 
F7r - A71EV2A-x4303/C/201/1

>  <Quatassemblies upload name>  (422) 
A1 - monomer

>  <Crystalforms upload name>  (422) 
F7 - A712A_x4207_8.1_refmac1_1st_ref

>  <ConformerSites short tag>  (422) 
1b - A0911/A/147

>  <CanonSites short tag>  (422) 
1 - A0911/A/147/1

>  <CrystalformSites short tag>  (422) 
F7r - A4303/C/201

>  <Quatassemblies short tag>  (422) 
A1 - monomer

>  <Crystalforms short tag>  (422) 
F7 - A712A_x4207_8.1_refmac1_1st_ref

>  <Centroid res>  (422) 
A71EV2A-x0911/A/133/A_v1

>  <Experiment code>  (422) 
A71EV2A-x4644

>  <Pose>  (422) 
A4644a

$$$$
A4650a
     RDKit          3D

 22 23  0  0  0  0  0  0  0  0999 V2000
   10.3330   10.6700   24.7220 F   0  0  0  0  0  0  0  0  0  0  0  0
    9.2750   10.5860   23.9190 C   0  0  0  0  0  0  0  0  0  0  0  0
    9.2260    9.3200   23.5010 F   0  0  0  0  0  0  0  0  0  0  0  0
    9.5630   11.2800   22.8270 F   0  0  0  0  0  0  0  0  0  0  0  0
    8.0050   11.0420   24.5900 C   0  0  0  0  0  0  0  0  0  0  0  0
    7.0960   10.0630   24.9710 C   0  0  0  0  0  0  0  0  0  0  0  0
    5.9570   10.3910   25.6880 C   0  0  0  0  0  0  0  0  0  0  0  0
    5.7100   11.6960   26.0270 C   0  0  0  0  0  0  0  0  0  0  0  0
    6.5920   12.6880   25.6370 C   0  0  0  0  0  0  0  0  0  0  0  0
    7.7440   12.3810   24.9150 C   0  0  0  0  0  0  0  0  0  0  0  0
    8.6940   13.4940   24.5330 C   0  0  0  0  0  0  0  0  0  0  0  0
    8.4840   13.9670   23.1050 C   0  0  0  0  0  0  0  0  0  0  0  0
    7.6030   13.4850   22.4110 O   0  0  0  0  0  0  0  0  0  0  0  0
    9.2830   14.9590   22.6570 N   0  0  0  0  0  0  0  0  0  0  0  0
   10.2910   15.6640   23.4660 C   0  0  0  0  0  0  0  0  0  0  0  0
   11.6470   15.6560   22.7840 C   0  0  0  0  0  0  0  0  0  0  0  0
   11.5350   16.1490   21.3360 C   0  0  0  0  0  0  0  0  0  0  0  0
    9.1530   15.4700   21.2880 C   0  0  0  0  0  0  0  0  0  0  0  0
   10.4860   15.3490   20.5460 C   0  0  1  0  0  0  0  0  0  0  0  0
   10.3960   15.8230   19.1050 C   0  0  0  0  0  0  0  0  0  0  0  0
   10.0750   16.9830   18.8340 O   0  0  0  0  0  0  0  0  0  0  0  0
   10.6810   14.9190   18.1790 N   0  0  0  0  0  0  0  0  0  0  0  0
 22 20  1  0
 21 20  2  0
 19 20  1  6
 19 17  1  0
 17 16  1  0
 16 15  1  0
 15 14  1  0
 14 12  1  0
 13 12  2  0
 12 11  1  0
 11 10  1  0
 10  9  2  0
  9  8  1  0
  8  7  2  0
  7  6  1  0
  6  5  2  0
 10  5  1  0
  5  2  1  0
  3  2  1  0
  4  2  1  0
  2  1  1  0
 18 14  1  0
 19 18  1  0
M  END
>  <id>  (423) 
423

>  <inchikey>  (423) 
QPXHUQPZPULEMO-NSHDSACASA-N

>  <alias>  (423) 
A4650a

>  <smiles>  (423) 
NC(=O)[C@H]1CCCN(C(=O)Cc2ccccc2C(F)(F)F)C1

>  <path>  (423) 
/opt/xchem-fragalysis-2/maxwin/BulkDock/TARGETS/A71EV2A/aligned_files/A4650a/A4650a.pdb

>  <distance_score>  (423) 
None

>  <energy_score>  (423) 
None

>  <compound>  (423) 
QPXHUQPZPULEMO-UHFFFAOYSA-N

>  <compound_id>  (423) 
316

>  <target>  (423) 
A71EV2A

>  <tags>  (423) 
['GOOD count', 'MEDIOCRE count', '[Other] S1 site', 'hits', '[Other] S2 site', '[Other] P3 compound design', '[Other] upload_1 2025-02-12', 'Main status', '[Series] Piperidine series', 'BAD count']

>  <inspirations>  (423) 
None

>  <subsites>  (423) 
None

>  <reference>  (423) 


>  <observation_longname>  (423) 
A71EV2A-x4650_A_201_v1

>  <ConformerSites alias>  (423) 
1b - A0911/A/147

>  <CanonSites alias>  (423) 
1 - Active Site

>  <CrystalformSites alias>  (423) 
F8h - A0884/A/147

>  <Quatassemblies alias>  (423) 
A1 - monomer

>  <Crystalforms alias>  (423) 
F8 - A712A_x4271_2.1_refmac1_1st_ref

>  <ConformerSites upload name>  (423) 
1b - A71EV2A-x0911/A/147

>  <CanonSites upload name>  (423) 
1 - A71EV2A-x0911/A/147/1

>  <CrystalformSites upload name>  (423) 
F8h - A71EV2A-x0884/A/147/1

>  <Quatassemblies upload name>  (423) 
A1 - monomer

>  <Crystalforms upload name>  (423) 
F8 - A712A_x4271_2.1_refmac1_1st_ref

>  <ConformerSites short tag>  (423) 
1b - A0911/A/147

>  <CanonSites short tag>  (423) 
1 - A0911/A/147/1

>  <CrystalformSites short tag>  (423) 
F8h - A0884/A/147

>  <Quatassemblies short tag>  (423) 
A1 - monomer

>  <Crystalforms short tag>  (423) 
F8 - A712A_x4271_2.1_refmac1_1st_ref

>  <Centroid res>  (423) 
A71EV2A-x0911/A/133/A_v1

>  <Experiment code>  (423) 
A71EV2A-x4650

>  <Pose>  (423) 
A4650a

$$$$
A4654a
     RDKit          3D

 24 26  0  0  0  0  0  0  0  0999 V2000
    6.0130   14.1250   25.3090 O   0  0  0  0  0  0  0  0  0  0  0  0
    6.8650   13.5650   26.3270 S   0  0  0  0  0  0  0  0  0  0  0  0
    7.9670   14.3720   26.7930 O   0  0  0  0  0  0  0  0  0  0  0  0
    5.8840   13.0590   27.6930 C   0  0  0  0  0  0  0  0  0  0  0  0
    5.0140   11.8590   27.3390 C   0  0  0  0  0  0  0  0  0  0  0  0
    5.8490   10.6090   27.1250 C   0  0  0  0  0  0  0  0  0  0  0  0
    6.9190   10.7680   26.0760 C   0  0  0  0  0  0  0  0  0  0  0  0
    7.4140    9.6290   25.4460 C   0  0  0  0  0  0  0  0  0  0  0  0
    8.4860    9.6930   24.5770 C   0  0  0  0  0  0  0  0  0  0  0  0
    9.0720   10.9070   24.2850 C   0  0  0  0  0  0  0  0  0  0  0  0
    7.4890   12.0120   25.7450 C   0  0  0  0  0  0  0  0  0  0  0  0
    8.5630   12.0800   24.8420 C   0  0  0  0  0  0  0  0  0  0  0  0
    9.0470   13.3100   24.3690 N   0  0  0  0  0  0  0  0  0  0  0  0
    8.6560   13.8280   23.1820 C   0  0  0  0  0  0  0  0  0  0  0  0
    7.7970   13.2970   22.4850 O   0  0  0  0  0  0  0  0  0  0  0  0
    9.2420   15.0060   22.8240 N   0  0  0  0  0  0  0  0  0  0  0  0
   10.2700   15.6990   23.6210 C   0  0  0  0  0  0  0  0  0  0  0  0
   11.6510   15.4960   23.0210 C   0  0  0  0  0  0  0  0  0  0  0  0
   11.6590   15.8950   21.5470 C   0  0  0  0  0  0  0  0  0  0  0  0
    9.1900   15.4250   21.4220 C   0  0  0  0  0  0  0  0  0  0  0  0
   10.5490   15.1750   20.7640 C   0  0  1  0  0  0  0  0  0  0  0  0
   10.4930   15.6710   19.3290 C   0  0  0  0  0  0  0  0  0  0  0  0
   10.1810   16.8410   19.0760 O   0  0  0  0  0  0  0  0  0  0  0  0
   10.7940   14.7730   18.3940 N   0  0  0  0  0  0  0  0  0  0  0  0
 24 22  1  0
 23 22  2  0
 21 22  1  6
 21 19  1  0
 19 18  1  0
 18 17  1  0
 17 16  1  0
 16 14  1  0
 15 14  2  0
 14 13  1  0
 13 12  1  0
 12 10  1  0
 10  9  2  0
  9  8  1  0
  8  7  2  0
  7 11  1  0
 12 11  2  0
 11  2  1  0
  3  2  2  0
  2  1  2  0
  4  2  1  0
  5  4  1  0
  6  5  1  0
  7  6  1  0
 20 16  1  0
 21 20  1  0
M  END
>  <id>  (424) 
424

>  <inchikey>  (424) 
JYAIADPZFKQZMS-LBPRGKRZSA-N

>  <alias>  (424) 
A4654a

>  <smiles>  (424) 
NC(=O)[C@H]1CCCN(C(=O)Nc2cccc3c2S(=O)(=O)CCC3)C1

>  <path>  (424) 
/opt/xchem-fragalysis-2/maxwin/BulkDock/TARGETS/A71EV2A/aligned_files/A4654a/A4654a.pdb

>  <distance_score>  (424) 
None

>  <energy_score>  (424) 
None

>  <compound>  (424) 
JYAIADPZFKQZMS-UHFFFAOYSA-N

>  <compound_id>  (424) 
317

>  <target>  (424) 
A71EV2A

>  <tags>  (424) 
['GOOD count', 'MEDIOCRE count', '[Other] S1 site', 'hits', '[Other] S2 site', '[Other] P3 compound design', '[Other] upload_1 2025-02-12', 'Main status', '[Series] Piperidine series', 'BAD count']

>  <inspirations>  (424) 
None

>  <subsites>  (424) 
None

>  <reference>  (424) 


>  <observation_longname>  (424) 
A71EV2A-x4654_A_201_v1

>  <ConformerSites alias>  (424) 
1b - A0911/A/147

>  <CanonSites alias>  (424) 
1 - Active Site

>  <CrystalformSites alias>  (424) 
F8h - A0884/A/147

>  <Quatassemblies alias>  (424) 
A1 - monomer

>  <Crystalforms alias>  (424) 
F8 - A712A_x4271_2.1_refmac1_1st_ref

>  <ConformerSites upload name>  (424) 
1b - A71EV2A-x0911/A/147

>  <CanonSites upload name>  (424) 
1 - A71EV2A-x0911/A/147/1

>  <CrystalformSites upload name>  (424) 
F8h - A71EV2A-x0884/A/147/1

>  <Quatassemblies upload name>  (424) 
A1 - monomer

>  <Crystalforms upload name>  (424) 
F8 - A712A_x4271_2.1_refmac1_1st_ref

>  <ConformerSites short tag>  (424) 
1b - A0911/A/147

>  <CanonSites short tag>  (424) 
1 - A0911/A/147/1

>  <CrystalformSites short tag>  (424) 
F8h - A0884/A/147

>  <Quatassemblies short tag>  (424) 
A1 - monomer

>  <Crystalforms short tag>  (424) 
F8 - A712A_x4271_2.1_refmac1_1st_ref

>  <Centroid res>  (424) 
A71EV2A-x0911/A/133/A_v1

>  <Experiment code>  (424) 
A71EV2A-x4654

>  <Pose>  (424) 
A4654a

$$$$
A4669a
     RDKit          3D

 23 25  0  0  0  0  0  0  0  0999 V2000
    9.1220    9.9790   24.0670 Cl  0  0  0  0  0  0  0  0  0  0  0  0
    7.9600   10.7470   25.1070 C   0  0  0  0  0  0  0  0  0  0  0  0
    6.9620    9.9560   25.6430 C   0  0  0  0  0  0  0  0  0  0  0  0
    5.9540   10.5470   26.3690 C   0  0  0  0  0  0  0  0  0  0  0  0
    4.9110    9.7520   26.7810 O   0  0  0  0  0  0  0  0  0  0  0  0
    4.0690   10.3430   27.8000 C   0  0  0  0  0  0  0  0  0  0  0  0
    3.8390   11.8370   27.6050 C   0  0  0  0  0  0  0  0  0  0  0  0
    5.0720   12.5540   27.4130 O   0  0  0  0  0  0  0  0  0  0  0  0
    5.9750   11.9320   26.5900 C   0  0  0  0  0  0  0  0  0  0  0  0
    6.9820   12.7020   26.0450 C   0  0  0  0  0  0  0  0  0  0  0  0
    8.0070   12.1240   25.2980 C   0  0  0  0  0  0  0  0  0  0  0  0
    9.1420   12.9780   24.7780 C   0  0  0  0  0  0  0  0  0  0  0  0
    8.8350   13.5860   23.4220 C   0  0  0  0  0  0  0  0  0  0  0  0
    7.8970   13.1940   22.7450 O   0  0  0  0  0  0  0  0  0  0  0  0
    9.6680   14.5600   22.9960 N   0  0  0  0  0  0  0  0  0  0  0  0
   10.7770   15.1230   23.7830 C   0  0  0  0  0  0  0  0  0  0  0  0
   12.1090   15.0040   23.0470 C   0  0  0  0  0  0  0  0  0  0  0  0
   12.0030   15.5740   21.6290 C   0  0  0  0  0  0  0  0  0  0  0  0
    9.5450   15.0900   21.6320 C   0  0  0  0  0  0  0  0  0  0  0  0
   10.8560   14.8900   20.8630 C   0  0  1  0  0  0  0  0  0  0  0  0
   10.7140   15.4210   19.4470 C   0  0  0  0  0  0  0  0  0  0  0  0
   10.2920   16.5570   19.2330 O   0  0  0  0  0  0  0  0  0  0  0  0
   11.0080   14.5650   18.4690 N   0  0  0  0  0  0  0  0  0  0  0  0
 23 21  1  0
 22 21  2  0
 20 21  1  6
 20 18  1  0
 18 17  1  0
 17 16  1  0
 16 15  1  0
 15 13  1  0
 14 13  2  0
 13 12  1  0
 12 11  1  0
 11 10  2  0
 10  9  1  0
  9  4  2  0
  4  3  1  0
  3  2  2  0
 11  2  1  0
  2  1  1  0
  5  4  1  0
  6  5  1  0
  7  6  1  0
  8  7  1  0
  9  8  1  0
 19 15  1  0
 20 19  1  0
M  END
>  <id>  (425) 
425

>  <inchikey>  (425) 
JLLIPNXJKWLVDW-JTQLQIEISA-N

>  <alias>  (425) 
A4669a

>  <smiles>  (425) 
NC(=O)[C@H]1CCCN(C(=O)Cc2cc3c(cc2Cl)OCCO3)C1

>  <path>  (425) 
/opt/xchem-fragalysis-2/maxwin/BulkDock/TARGETS/A71EV2A/aligned_files/A4669a/A4669a_hippo.pdb

>  <distance_score>  (425) 
None

>  <energy_score>  (425) 
None

>  <compound>  (425) 
JLLIPNXJKWLVDW-UHFFFAOYSA-N

>  <compound_id>  (425) 
318

>  <target>  (425) 
A71EV2A

>  <tags>  (425) 
['GOOD count', 'MEDIOCRE count', '[Other] S1 site', 'hits', '[Other] S2 site', '[Other] P3 compound design', '[Other] upload_1 2025-02-12', 'Main status', '[Series] Piperidine series', 'BAD count']

>  <inspirations>  (425) 
None

>  <subsites>  (425) 
None

>  <reference>  (425) 


>  <observation_longname>  (425) 
A71EV2A-x4669_A_201_v1

>  <ConformerSites alias>  (425) 
1b - A0911/A/147

>  <CanonSites alias>  (425) 
1 - Active Site

>  <CrystalformSites alias>  (425) 
F6o - A4214/A/201

>  <Quatassemblies alias>  (425) 
A1 - monomer

>  <Crystalforms alias>  (425) 
F6 - short_long_x4018

>  <ConformerSites upload name>  (425) 
1b - A71EV2A-x0911/A/147

>  <CanonSites upload name>  (425) 
1 - A71EV2A-x0911/A/147/1

>  <CrystalformSites upload name>  (425) 
F6o - A71EV2A-x4214/A/201/1

>  <Quatassemblies upload name>  (425) 
A1 - monomer

>  <Crystalforms upload name>  (425) 
F6 - short_long_x4018

>  <ConformerSites short tag>  (425) 
1b - A0911/A/147

>  <CanonSites short tag>  (425) 
1 - A0911/A/147/1

>  <CrystalformSites short tag>  (425) 
F6o - A4214/A/201

>  <Quatassemblies short tag>  (425) 
A1 - monomer

>  <Crystalforms short tag>  (425) 
F6 - short_long_x4018

>  <Centroid res>  (425) 
A71EV2A-x0911/A/133/A_v1

>  <Experiment code>  (425) 
A71EV2A-x4669

>  <Pose>  (425) 
A4669a

$$$$
A4669b
     RDKit          3D

 23 25  0  0  0  0  0  0  0  0999 V2000
    9.3240   10.2240   24.2030 Cl  0  0  0  0  0  0  0  0  0  0  0  0
    8.1850   11.0160   25.2480 C   0  0  0  0  0  0  0  0  0  0  0  0
    7.2220   10.2400   25.8670 C   0  0  0  0  0  0  0  0  0  0  0  0
    6.2910   10.8540   26.6800 C   0  0  0  0  0  0  0  0  0  0  0  0
    5.3540   10.0620   27.3030 O   0  0  0  0  0  0  0  0  0  0  0  0
    4.5740   10.7250   28.3290 C   0  0  0  0  0  0  0  0  0  0  0  0
    4.2210   12.1560   27.9610 C   0  0  0  0  0  0  0  0  0  0  0  0
    5.4090   12.9160   27.6280 O   0  0  0  0  0  0  0  0  0  0  0  0
    6.3260   12.2480   26.8550 C   0  0  0  0  0  0  0  0  0  0  0  0
    7.3010   12.9940   26.2330 C   0  0  0  0  0  0  0  0  0  0  0  0
    8.2610   12.3920   25.4270 C   0  0  0  0  0  0  0  0  0  0  0  0
    9.3600   13.2340   24.8220 C   0  0  0  0  0  0  0  0  0  0  0  0
    8.9820   13.7450   23.4430 C   0  0  0  0  0  0  0  0  0  0  0  0
    8.0280   13.2840   22.8040 O   0  0  0  0  0  0  0  0  0  0  0  0
    9.7690   14.7350   22.9660 N   0  0  0  0  0  0  0  0  0  0  0  0
   10.8430   15.4320   23.6990 C   0  0  0  0  0  0  0  0  0  0  0  0
   12.1830   15.2810   22.9780 C   0  0  0  0  0  0  0  0  0  0  0  0
   12.0600   15.7390   21.5220 C   0  0  0  0  0  0  0  0  0  0  0  0
    9.5980   15.1740   21.5780 C   0  0  0  0  0  0  0  0  0  0  0  0
   10.9110   14.9960   20.8060 C   0  0  1  0  0  0  0  0  0  0  0  0
   10.7410   15.4950   19.3820 C   0  0  0  0  0  0  0  0  0  0  0  0
   10.3360   16.6410   19.1570 O   0  0  0  0  0  0  0  0  0  0  0  0
   10.9900   14.6080   18.4260 N   0  0  0  0  0  0  0  0  0  0  0  0
 23 21  1  0
 22 21  2  0
 20 21  1  6
 20 18  1  0
 18 17  1  0
 17 16  1  0
 16 15  1  0
 15 13  1  0
 14 13  2  0
 13 12  1  0
 12 11  1  0
 11 10  2  0
 10  9  1  0
  9  4  2  0
  4  3  1  0
  3  2  2  0
 11  2  1  0
  2  1  1  0
  5  4  1  0
  6  5  1  0
  7  6  1  0
  8  7  1  0
  9  8  1  0
 19 15  1  0
 20 19  1  0
M  END
>  <id>  (426) 
426

>  <inchikey>  (426) 
JLLIPNXJKWLVDW-JTQLQIEISA-N

>  <alias>  (426) 
A4669b

>  <smiles>  (426) 
NC(=O)[C@H]1CCCN(C(=O)Cc2cc3c(cc2Cl)OCCO3)C1

>  <path>  (426) 
/opt/xchem-fragalysis-2/maxwin/BulkDock/TARGETS/A71EV2A/aligned_files/A4669b/A4669b.pdb

>  <distance_score>  (426) 
None

>  <energy_score>  (426) 
None

>  <compound>  (426) 
JLLIPNXJKWLVDW-UHFFFAOYSA-N

>  <compound_id>  (426) 
318

>  <target>  (426) 
A71EV2A

>  <tags>  (426) 
['GOOD count', 'MEDIOCRE count', '[Other] S1 site', 'hits', '[Other] S2 site', '[Other] P3 compound design', '[Other] upload_1 2025-02-12', 'Main status', '[Series] Piperidine series', 'BAD count']

>  <inspirations>  (426) 
None

>  <subsites>  (426) 
None

>  <reference>  (426) 


>  <observation_longname>  (426) 
A71EV2A-x4669_C_201_v1

>  <ConformerSites alias>  (426) 
1b - A0911/A/147

>  <CanonSites alias>  (426) 
1 - Active Site

>  <CrystalformSites alias>  (426) 
F6p - A4214/C/201

>  <Quatassemblies alias>  (426) 
A1 - monomer

>  <Crystalforms alias>  (426) 
F6 - short_long_x4018

>  <ConformerSites upload name>  (426) 
1b - A71EV2A-x0911/A/147

>  <CanonSites upload name>  (426) 
1 - A71EV2A-x0911/A/147/1

>  <CrystalformSites upload name>  (426) 
F6p - A71EV2A-x4214/C/201/1

>  <Quatassemblies upload name>  (426) 
A1 - monomer

>  <Crystalforms upload name>  (426) 
F6 - short_long_x4018

>  <ConformerSites short tag>  (426) 
1b - A0911/A/147

>  <CanonSites short tag>  (426) 
1 - A0911/A/147/1

>  <CrystalformSites short tag>  (426) 
F6p - A4214/C/201

>  <Quatassemblies short tag>  (426) 
A1 - monomer

>  <Crystalforms short tag>  (426) 
F6 - short_long_x4018

>  <Centroid res>  (426) 
A71EV2A-x0911/A/133/A_v1

>  <Experiment code>  (426) 
A71EV2A-x4669

>  <Pose>  (426) 
A4669a

$$$$
A4670a
     RDKit          3D

 21 22  0  0  0  0  0  0  0  0999 V2000
   10.3980   16.5810   18.9060 O   0  0  0  0  0  0  0  0  0  0  0  0
   10.8270   15.4650   19.2000 C   0  0  0  0  0  0  0  0  0  0  0  0
   11.2590   14.6010   18.2960 N   0  0  0  0  0  0  0  0  0  0  0  0
   10.8780   15.0010   20.6450 C   0  0  1  0  0  0  0  0  0  0  0  0
   11.9200   15.7960   21.4440 C   0  0  0  0  0  0  0  0  0  0  0  0
   11.9190   15.3980   22.9200 C   0  0  0  0  0  0  0  0  0  0  0  0
   10.5270   15.5370   23.5150 C   0  0  0  0  0  0  0  0  0  0  0  0
    9.5060   15.2130   21.2910 C   0  0  0  0  0  0  0  0  0  0  0  0
    9.5330   14.8170   22.7020 N   0  0  0  0  0  0  0  0  0  0  0  0
    8.6740   13.8930   23.1790 C   0  0  0  0  0  0  0  0  0  0  0  0
    7.7450   13.4650   22.5120 O   0  0  0  0  0  0  0  0  0  0  0  0
    8.9090   13.4210   24.6020 C   0  0  0  0  0  0  0  0  0  0  0  0
    7.8410   12.4740   25.1090 C   0  0  0  0  0  0  0  0  0  0  0  0
    6.7980   12.9130   25.9340 C   0  0  0  0  0  0  0  0  0  0  0  0
    6.6550   14.6300   26.3220 S   0  0  0  0  0  0  0  0  0  0  0  0
    7.4420   14.7550   27.9280 C   0  0  0  0  0  0  0  0  0  0  0  0
    7.9010   11.1110   24.8180 C   0  0  0  0  0  0  0  0  0  0  0  0
    9.3030   10.4270   23.7350 Br  0  0  0  0  0  0  0  0  0  0  0  0
    6.9790   10.2100   25.3170 C   0  0  0  0  0  0  0  0  0  0  0  0
    5.9750   10.6620   26.1500 C   0  0  0  0  0  0  0  0  0  0  0  0
    5.8760   12.0060   26.4570 C   0  0  0  0  0  0  0  0  0  0  0  0
 16 15  1  0
 15 14  1  0
 14 21  2  0
 21 20  1  0
 20 19  2  0
 19 17  1  0
 18 17  1  0
 17 13  2  0
 14 13  1  0
 13 12  1  0
 12 10  1  0
 11 10  2  0
 10  9  1  0
  9  7  1  0
  7  6  1  0
  6  5  1  0
  5  4  1  0
  4  2  1  6
  3  2  1  0
  2  1  2  0
  8  4  1  0
  9  8  1  0
M  END
>  <id>  (427) 
427

>  <inchikey>  (427) 
SRQVRMUCHBMAPS-JTQLQIEISA-N

>  <alias>  (427) 
A4670a

>  <smiles>  (427) 
CSc1cccc(Br)c1CC(=O)N1CCC[C@H](C(N)=O)C1

>  <path>  (427) 
/opt/xchem-fragalysis-2/maxwin/BulkDock/TARGETS/A71EV2A/aligned_files/A4670a/A4670a.pdb

>  <distance_score>  (427) 
None

>  <energy_score>  (427) 
None

>  <compound>  (427) 
SRQVRMUCHBMAPS-UHFFFAOYSA-N

>  <compound_id>  (427) 
319

>  <target>  (427) 
A71EV2A

>  <tags>  (427) 
['GOOD count', 'MEDIOCRE count', '[Other] S1 site', 'hits', '[Other] upload_3 2025-03-06', '[Other] S2 site', '[Other] P3 compound design', '[Series] Piperidine series', 'Main status', 'BAD count']

>  <inspirations>  (427) 
None

>  <subsites>  (427) 
None

>  <reference>  (427) 


>  <observation_longname>  (427) 
A71EV2A-x4670_A_201_v3

>  <ConformerSites alias>  (427) 
1b - A0911/A/147

>  <CanonSites alias>  (427) 
1 - Active Site

>  <CrystalformSites alias>  (427) 
F8h - A0884/A/147

>  <Quatassemblies alias>  (427) 
A1 - monomer

>  <Crystalforms alias>  (427) 
F8 - A712A_x4271_2.1_refmac1_1st_ref

>  <ConformerSites upload name>  (427) 
1b - A71EV2A-x0911/A/147

>  <CanonSites upload name>  (427) 
1 - A71EV2A-x0911/A/147/1

>  <CrystalformSites upload name>  (427) 
F8h - A71EV2A-x0884/A/147/1

>  <Quatassemblies upload name>  (427) 
A1 - monomer

>  <Crystalforms upload name>  (427) 
F8 - A712A_x4271_2.1_refmac1_1st_ref

>  <ConformerSites short tag>  (427) 
1b - A0911/A/147

>  <CanonSites short tag>  (427) 
1 - A0911/A/147/1

>  <CrystalformSites short tag>  (427) 
F8h - A0884/A/147

>  <Quatassemblies short tag>  (427) 
A1 - monomer

>  <Crystalforms short tag>  (427) 
F8 - A712A_x4271_2.1_refmac1_1st_ref

>  <Centroid res>  (427) 
A71EV2A-x0911/A/133/A_v1

>  <Experiment code>  (427) 
A71EV2A-x4670

>  <Pose>  (427) 
A4670a

$$$$
A4673a
     RDKit          3D

 22 24  0  0  0  0  0  0  0  0999 V2000
    9.5720   10.0880   23.9830 Br  0  0  0  0  0  0  0  0  0  0  0  0
    8.1270   10.7520   25.0090 C   0  0  0  0  0  0  0  0  0  0  0  0
    7.2030    9.8260   25.4560 C   0  0  0  0  0  0  0  0  0  0  0  0
    6.1020   10.2960   26.1200 C   0  0  0  0  0  0  0  0  0  0  0  0
    5.0200    9.5880   26.5930 O   0  0  0  0  0  0  0  0  0  0  0  0
    4.2590   10.5360   27.3500 C   0  0  0  0  0  0  0  0  0  0  0  0
    4.7420   11.8400   27.0260 O   0  0  0  0  0  0  0  0  0  0  0  0
    5.9240   11.6320   26.3480 C   0  0  0  0  0  0  0  0  0  0  0  0
    6.8530   12.5620   25.9160 C   0  0  0  0  0  0  0  0  0  0  0  0
    7.9890   12.1270   25.2300 C   0  0  0  0  0  0  0  0  0  0  0  0
    9.0390   13.1220   24.7890 C   0  0  0  0  0  0  0  0  0  0  0  0
    8.7990   13.6490   23.3850 C   0  0  0  0  0  0  0  0  0  0  0  0
    7.9110   13.2150   22.6760 O   0  0  0  0  0  0  0  0  0  0  0  0
    9.6360   14.6140   22.9560 N   0  0  0  0  0  0  0  0  0  0  0  0
   10.7230   15.2090   23.7500 C   0  0  0  0  0  0  0  0  0  0  0  0
   12.0500   15.0870   23.0150 C   0  0  0  0  0  0  0  0  0  0  0  0
   11.9350   15.6790   21.6090 C   0  0  0  0  0  0  0  0  0  0  0  0
    9.5110   15.1230   21.5840 C   0  0  0  0  0  0  0  0  0  0  0  0
   10.8340   14.9560   20.8320 C   0  0  1  0  0  0  0  0  0  0  0  0
   10.7210   15.4730   19.4090 C   0  0  0  0  0  0  0  0  0  0  0  0
   10.2980   16.6100   19.1730 O   0  0  0  0  0  0  0  0  0  0  0  0
   11.0180   14.5930   18.4460 N   0  0  0  0  0  0  0  0  0  0  0  0
 22 20  1  0
 21 20  2  0
 19 20  1  6
 19 17  1  0
 17 16  1  0
 16 15  1  0
 15 14  1  0
 14 12  1  0
 13 12  2  0
 12 11  1  0
 11 10  1  0
 10  9  2  0
  9  8  1  0
  8  4  2  0
  4  3  1  0
  3  2  2  0
 10  2  1  0
  2  1  1  0
  5  4  1  0
  6  5  1  0
  7  6  1  0
  8  7  1  0
 18 14  1  0
 19 18  1  0
M  END
>  <id>  (428) 
428

>  <inchikey>  (428) 
ZWOYLBVAIIBBQA-VIFPVBQESA-N

>  <alias>  (428) 
A4673a

>  <smiles>  (428) 
NC(=O)[C@H]1CCCN(C(=O)Cc2cc3c(cc2Br)OCO3)C1

>  <path>  (428) 
/opt/xchem-fragalysis-2/maxwin/BulkDock/TARGETS/A71EV2A/aligned_files/A4673a/A4673a_hippo.pdb

>  <distance_score>  (428) 
None

>  <energy_score>  (428) 
None

>  <compound>  (428) 
ZWOYLBVAIIBBQA-UHFFFAOYSA-N

>  <compound_id>  (428) 
320

>  <target>  (428) 
A71EV2A

>  <tags>  (428) 
['GOOD count', 'MEDIOCRE count', '[Other] S1 site', 'hits', '[Other] S2 site', '[Other] P3 compound design', '[Other] upload_1 2025-02-12', 'Main status', '[Series] Piperidine series', 'BAD count']

>  <inspirations>  (428) 
None

>  <subsites>  (428) 
None

>  <reference>  (428) 


>  <observation_longname>  (428) 
A71EV2A-x4673_A_201_v1

>  <ConformerSites alias>  (428) 
1b - A0911/A/147

>  <CanonSites alias>  (428) 
1 - Active Site

>  <CrystalformSites alias>  (428) 
F7q - A4303/A/201

>  <Quatassemblies alias>  (428) 
A1 - monomer

>  <Crystalforms alias>  (428) 
F7 - A712A_x4207_8.1_refmac1_1st_ref

>  <ConformerSites upload name>  (428) 
1b - A71EV2A-x0911/A/147

>  <CanonSites upload name>  (428) 
1 - A71EV2A-x0911/A/147/1

>  <CrystalformSites upload name>  (428) 
F7q - A71EV2A-x4303/A/201/1

>  <Quatassemblies upload name>  (428) 
A1 - monomer

>  <Crystalforms upload name>  (428) 
F7 - A712A_x4207_8.1_refmac1_1st_ref

>  <ConformerSites short tag>  (428) 
1b - A0911/A/147

>  <CanonSites short tag>  (428) 
1 - A0911/A/147/1

>  <CrystalformSites short tag>  (428) 
F7q - A4303/A/201

>  <Quatassemblies short tag>  (428) 
A1 - monomer

>  <Crystalforms short tag>  (428) 
F7 - A712A_x4207_8.1_refmac1_1st_ref

>  <Centroid res>  (428) 
A71EV2A-x0911/A/133/A_v1

>  <Experiment code>  (428) 
A71EV2A-x4673

>  <Pose>  (428) 
A4673a

$$$$
A4673b
     RDKit          3D

 22 24  0  0  0  0  0  0  0  0999 V2000
    9.7340   10.1680   23.9790 Br  0  0  0  0  0  0  0  0  0  0  0  0
    8.3410   10.8380   25.0670 C   0  0  0  0  0  0  0  0  0  0  0  0
    7.4010    9.9300   25.5360 C   0  0  0  0  0  0  0  0  0  0  0  0
    6.3350   10.4290   26.2470 C   0  0  0  0  0  0  0  0  0  0  0  0
    5.2560    9.7480   26.7750 O   0  0  0  0  0  0  0  0  0  0  0  0
    4.5510   10.7160   27.5550 C   0  0  0  0  0  0  0  0  0  0  0  0
    5.0780   12.0110   27.2360 O   0  0  0  0  0  0  0  0  0  0  0  0
    6.2140   11.7670   26.4950 C   0  0  0  0  0  0  0  0  0  0  0  0
    7.1550   12.6690   26.0400 C   0  0  0  0  0  0  0  0  0  0  0  0
    8.2550   12.2100   25.3110 C   0  0  0  0  0  0  0  0  0  0  0  0
    9.2960   13.1950   24.8230 C   0  0  0  0  0  0  0  0  0  0  0  0
    9.0030   13.6950   23.4160 C   0  0  0  0  0  0  0  0  0  0  0  0
    8.0880   13.2280   22.7490 O   0  0  0  0  0  0  0  0  0  0  0  0
    9.7890   14.6970   22.9530 N   0  0  0  0  0  0  0  0  0  0  0  0
   10.8620   15.3790   23.6990 C   0  0  0  0  0  0  0  0  0  0  0  0
   12.1910   15.2510   22.9540 C   0  0  0  0  0  0  0  0  0  0  0  0
   12.0480   15.7840   21.5260 C   0  0  0  0  0  0  0  0  0  0  0  0
    9.6200   15.1780   21.5770 C   0  0  0  0  0  0  0  0  0  0  0  0
   10.9330   15.0170   20.7940 C   0  0  1  0  0  0  0  0  0  0  0  0
   10.7720   15.5130   19.3680 C   0  0  0  0  0  0  0  0  0  0  0  0
   10.3780   16.6660   19.1370 O   0  0  0  0  0  0  0  0  0  0  0  0
   11.0460   14.6250   18.4120 N   0  0  0  0  0  0  0  0  0  0  0  0
 22 20  1  0
 21 20  2  0
 19 20  1  6
 19 17  1  0
 17 16  1  0
 16 15  1  0
 15 14  1  0
 14 12  1  0
 13 12  2  0
 12 11  1  0
 11 10  1  0
 10  9  2  0
  9  8  1  0
  8  4  2  0
  4  3  1  0
  3  2  2  0
 10  2  1  0
  2  1  1  0
  5  4  1  0
  6  5  1  0
  7  6  1  0
  8  7  1  0
 18 14  1  0
 19 18  1  0
M  END
>  <id>  (429) 
429

>  <inchikey>  (429) 
ZWOYLBVAIIBBQA-VIFPVBQESA-N

>  <alias>  (429) 
A4673b

>  <smiles>  (429) 
NC(=O)[C@H]1CCCN(C(=O)Cc2cc3c(cc2Br)OCO3)C1

>  <path>  (429) 
/opt/xchem-fragalysis-2/maxwin/BulkDock/TARGETS/A71EV2A/aligned_files/A4673b/A4673b.pdb

>  <distance_score>  (429) 
None

>  <energy_score>  (429) 
None

>  <compound>  (429) 
ZWOYLBVAIIBBQA-UHFFFAOYSA-N

>  <compound_id>  (429) 
320

>  <target>  (429) 
A71EV2A

>  <tags>  (429) 
['GOOD count', 'MEDIOCRE count', '[Other] S1 site', 'hits', '[Other] S2 site', '[Other] P3 compound design', '[Other] upload_1 2025-02-12', 'Main status', '[Series] Piperidine series', 'BAD count']

>  <inspirations>  (429) 
None

>  <subsites>  (429) 
None

>  <reference>  (429) 


>  <observation_longname>  (429) 
A71EV2A-x4673_C_201_v1

>  <ConformerSites alias>  (429) 
1b - A0911/A/147

>  <CanonSites alias>  (429) 
1 - Active Site

>  <CrystalformSites alias>  (429) 
F7r - A4303/C/201

>  <Quatassemblies alias>  (429) 
A1 - monomer

>  <Crystalforms alias>  (429) 
F7 - A712A_x4207_8.1_refmac1_1st_ref

>  <ConformerSites upload name>  (429) 
1b - A71EV2A-x0911/A/147

>  <CanonSites upload name>  (429) 
1 - A71EV2A-x0911/A/147/1

>  <CrystalformSites upload name>  (429) 
F7r - A71EV2A-x4303/C/201/1

>  <Quatassemblies upload name>  (429) 
A1 - monomer

>  <Crystalforms upload name>  (429) 
F7 - A712A_x4207_8.1_refmac1_1st_ref

>  <ConformerSites short tag>  (429) 
1b - A0911/A/147

>  <CanonSites short tag>  (429) 
1 - A0911/A/147/1

>  <CrystalformSites short tag>  (429) 
F7r - A4303/C/201

>  <Quatassemblies short tag>  (429) 
A1 - monomer

>  <Crystalforms short tag>  (429) 
F7 - A712A_x4207_8.1_refmac1_1st_ref

>  <Centroid res>  (429) 
A71EV2A-x0911/A/133/A_v1

>  <Experiment code>  (429) 
A71EV2A-x4673

>  <Pose>  (429) 
A4673a

$$$$
A4674a
     RDKit          3D

 22 24  0  0  0  0  0  0  0  0999 V2000
    7.8240   13.5430   22.4950 O   0  0  0  0  0  0  0  0  0  0  0  0
    8.7240   13.9560   23.2180 C   0  0  0  0  0  0  0  0  0  0  0  0
    9.4100   15.1020   22.9430 N   0  0  0  0  0  0  0  0  0  0  0  0
   10.5970   15.5420   23.7000 C   0  0  0  0  0  0  0  0  0  0  0  0
   11.8950   15.1660   22.9830 C   0  0  0  0  0  0  0  0  0  0  0  0
   11.8540   15.6140   21.5200 C   0  0  0  0  0  0  0  0  0  0  0  0
    9.3630   15.6070   21.5690 C   0  0  0  0  0  0  0  0  0  0  0  0
   10.5890   15.1030   20.8050 C   0  0  1  0  0  0  0  0  0  0  0  0
   10.5580   15.5350   19.3480 C   0  0  0  0  0  0  0  0  0  0  0  0
   10.2300   16.6800   19.0290 O   0  0  0  0  0  0  0  0  0  0  0  0
   10.9060   14.6110   18.4650 N   0  0  0  0  0  0  0  0  0  0  0  0
    9.0950   13.2960   24.3340 N   0  0  0  0  0  0  0  0  0  0  0  0
    8.4920   12.0790   24.7030 C   0  0  0  0  0  0  0  0  0  0  0  0
    7.3830   12.1100   25.5620 C   0  0  0  0  0  0  0  0  0  0  0  0
    7.0010   13.6980   26.2260 S   0  0  0  0  0  0  0  0  0  0  0  0
    5.4040   13.4230   27.0190 C   0  0  0  0  0  0  0  0  0  0  0  0
    5.3890   12.0790   27.7020 C   0  0  0  0  0  0  0  0  0  0  0  0
    5.4680   10.9100   26.7490 C   0  0  0  0  0  0  0  0  0  0  0  0
    6.6900   10.9260   25.8680 C   0  0  0  0  0  0  0  0  0  0  0  0
    7.1480    9.7380   25.3070 C   0  0  0  0  0  0  0  0  0  0  0  0
    8.2540    9.7080   24.4770 C   0  0  0  0  0  0  0  0  0  0  0  0
    8.9340   10.8740   24.1650 C   0  0  0  0  0  0  0  0  0  0  0  0
 11  9  1  0
 10  9  2  0
  8  9  1  6
  8  6  1  0
  6  5  1  0
  5  4  1  0
  4  3  1  0
  3  2  1  0
  2  1  2  0
 12  2  1  0
 13 12  1  0
 13 22  1  0
 22 21  2  0
 21 20  1  0
 20 19  2  0
 19 14  1  0
 14 13  2  0
 15 14  1  0
 16 15  1  0
 17 16  1  0
 18 17  1  0
 19 18  1  0
  7  3  1  0
  8  7  1  0
M  END
>  <id>  (430) 
430

>  <inchikey>  (430) 
OARBYSRMZQWEJK-LBPRGKRZSA-N

>  <alias>  (430) 
A4674a

>  <smiles>  (430) 
NC(=O)[C@H]1CCCN(C(=O)Nc2cccc3c2SCCC3)C1

>  <path>  (430) 
/opt/xchem-fragalysis-2/maxwin/BulkDock/TARGETS/A71EV2A/aligned_files/A4674a/A4674a_hippo.pdb

>  <distance_score>  (430) 
None

>  <energy_score>  (430) 
None

>  <compound>  (430) 
OARBYSRMZQWEJK-UHFFFAOYSA-N

>  <compound_id>  (430) 
321

>  <target>  (430) 
A71EV2A

>  <tags>  (430) 
['GOOD count', 'MEDIOCRE count', '[Other] S1 site', 'hits', '[Other] S2 site', '[Other] upload_6_2025-02-13', '[Other] P3 compound design', '[Other] upload_1 2025-02-12', 'Main status', '[Series] Piperidine series', 'BAD count']

>  <inspirations>  (430) 
None

>  <subsites>  (430) 
None

>  <reference>  (430) 


>  <observation_longname>  (430) 
A71EV2A-x4674_A_201_v1

>  <ConformerSites alias>  (430) 
1b - A0911/A/147

>  <CanonSites alias>  (430) 
1 - Active Site

>  <CrystalformSites alias>  (430) 
F7q - A4303/A/201

>  <Quatassemblies alias>  (430) 
A1 - monomer

>  <Crystalforms alias>  (430) 
F7 - A712A_x4207_8.1_refmac1_1st_ref

>  <ConformerSites upload name>  (430) 
1b - A71EV2A-x0911/A/147

>  <CanonSites upload name>  (430) 
1 - A71EV2A-x0911/A/147/1

>  <CrystalformSites upload name>  (430) 
F7q - A71EV2A-x4303/A/201/1

>  <Quatassemblies upload name>  (430) 
A1 - monomer

>  <Crystalforms upload name>  (430) 
F7 - A712A_x4207_8.1_refmac1_1st_ref

>  <ConformerSites short tag>  (430) 
1b - A0911/A/147

>  <CanonSites short tag>  (430) 
1 - A0911/A/147/1

>  <CrystalformSites short tag>  (430) 
F7q - A4303/A/201

>  <Quatassemblies short tag>  (430) 
A1 - monomer

>  <Crystalforms short tag>  (430) 
F7 - A712A_x4207_8.1_refmac1_1st_ref

>  <Centroid res>  (430) 
A71EV2A-x0911/A/133/A_v1

>  <Experiment code>  (430) 
A71EV2A-x4674

>  <Pose>  (430) 
A4674a

$$$$
A4674b
     RDKit          3D

 22 24  0  0  0  0  0  0  0  0999 V2000
    8.0050   13.4610   22.7060 O   0  0  0  0  0  0  0  0  0  0  0  0
    8.7900   14.0140   23.4700 C   0  0  0  0  0  0  0  0  0  0  0  0
    9.4850   15.1340   23.1050 N   0  0  0  0  0  0  0  0  0  0  0  0
   10.6790   15.6350   23.8030 C   0  0  0  0  0  0  0  0  0  0  0  0
   11.9500   15.2070   23.0790 C   0  0  0  0  0  0  0  0  0  0  0  0
   11.8960   15.6110   21.6030 C   0  0  0  0  0  0  0  0  0  0  0  0
    9.4020   15.5970   21.7170 C   0  0  0  0  0  0  0  0  0  0  0  0
   10.6130   15.1040   20.9200 C   0  0  1  0  0  0  0  0  0  0  0  0
   10.4830   15.6780   19.5190 C   0  0  0  0  0  0  0  0  0  0  0  0
   10.1020   16.8390   19.3390 O   0  0  0  0  0  0  0  0  0  0  0  0
   10.7910   14.8530   18.5290 N   0  0  0  0  0  0  0  0  0  0  0  0
    9.0140   13.5510   24.7310 N   0  0  0  0  0  0  0  0  0  0  0  0
    8.4070   12.3870   25.2650 C   0  0  0  0  0  0  0  0  0  0  0  0
    8.7720   11.1360   24.7350 C   0  0  0  0  0  0  0  0  0  0  0  0
   10.0330   11.1050   23.5030 S   0  0  0  0  0  0  0  0  0  0  0  0
   10.0000    9.4050   22.9000 C   0  0  0  0  0  0  0  0  0  0  0  0
    9.8190    8.4490   24.0340 C   0  0  0  0  0  0  0  0  0  0  0  0
    8.4350    8.6140   24.6060 C   0  0  0  0  0  0  0  0  0  0  0  0
    8.1720    9.9640   25.2240 C   0  0  0  0  0  0  0  0  0  0  0  0
    7.2500   10.0780   26.2640 C   0  0  0  0  0  0  0  0  0  0  0  0
    6.9020   11.3110   26.7860 C   0  0  0  0  0  0  0  0  0  0  0  0
    7.4660   12.4710   26.2880 C   0  0  0  0  0  0  0  0  0  0  0  0
 11  9  1  0
 10  9  2  0
  8  9  1  6
  8  6  1  0
  6  5  1  0
  5  4  1  0
  4  3  1  0
  3  2  1  0
  2  1  2  0
 12  2  1  0
 13 12  1  0
 13 22  1  0
 22 21  2  0
 21 20  1  0
 20 19  2  0
 19 14  1  0
 14 13  2  0
 15 14  1  0
 16 15  1  0
 17 16  1  0
 18 17  1  0
 19 18  1  0
  7  3  1  0
  8  7  1  0
M  END
>  <id>  (431) 
431

>  <inchikey>  (431) 
OARBYSRMZQWEJK-LBPRGKRZSA-N

>  <alias>  (431) 
A4674b

>  <smiles>  (431) 
NC(=O)[C@H]1CCCN(C(=O)Nc2cccc3c2SCCC3)C1

>  <path>  (431) 
/opt/xchem-fragalysis-2/maxwin/BulkDock/TARGETS/A71EV2A/aligned_files/A4674b/A4674b_hippo.pdb

>  <distance_score>  (431) 
None

>  <energy_score>  (431) 
None

>  <compound>  (431) 
OARBYSRMZQWEJK-UHFFFAOYSA-N

>  <compound_id>  (431) 
321

>  <target>  (431) 
A71EV2A

>  <tags>  (431) 
['GOOD count', 'MEDIOCRE count', '[Other] S1 site', 'hits', '[Other] S2 site', '[Other] upload_6_2025-02-13', '[Other] P3 compound design', '[Other] upload_1 2025-02-12', 'Main status', '[Series] Piperidine series', 'BAD count']

>  <inspirations>  (431) 
None

>  <subsites>  (431) 
None

>  <reference>  (431) 


>  <observation_longname>  (431) 
A71EV2A-x4674_C_201_v1

>  <ConformerSites alias>  (431) 
1b - A0911/A/147

>  <CanonSites alias>  (431) 
1 - Active Site

>  <CrystalformSites alias>  (431) 
F7r - A4303/C/201

>  <Quatassemblies alias>  (431) 
A1 - monomer

>  <Crystalforms alias>  (431) 
F7 - A712A_x4207_8.1_refmac1_1st_ref

>  <ConformerSites upload name>  (431) 
1b - A71EV2A-x0911/A/147

>  <CanonSites upload name>  (431) 
1 - A71EV2A-x0911/A/147/1

>  <CrystalformSites upload name>  (431) 
F7r - A71EV2A-x4303/C/201/1

>  <Quatassemblies upload name>  (431) 
A1 - monomer

>  <Crystalforms upload name>  (431) 
F7 - A712A_x4207_8.1_refmac1_1st_ref

>  <ConformerSites short tag>  (431) 
1b - A0911/A/147

>  <CanonSites short tag>  (431) 
1 - A0911/A/147/1

>  <CrystalformSites short tag>  (431) 
F7r - A4303/C/201

>  <Quatassemblies short tag>  (431) 
A1 - monomer

>  <Crystalforms short tag>  (431) 
F7 - A712A_x4207_8.1_refmac1_1st_ref

>  <Centroid res>  (431) 
A71EV2A-x0911/A/133/A_v1

>  <Experiment code>  (431) 
A71EV2A-x4674

>  <Pose>  (431) 
A4674a

$$$$
A4675a
     RDKit          3D

 22 23  0  0  0  0  0  0  0  0999 V2000
   10.4340   16.8290   19.1490 O   0  0  0  0  0  0  0  0  0  0  0  0
   10.7650   15.6690   19.4090 C   0  0  0  0  0  0  0  0  0  0  0  0
   11.0940   14.7930   18.4780 N   0  0  0  0  0  0  0  0  0  0  0  0
   10.8140   15.1680   20.8430 C   0  0  1  0  0  0  0  0  0  0  0  0
   11.9700   15.8130   21.6240 C   0  0  0  0  0  0  0  0  0  0  0  0
   12.0260   15.3100   23.0700 C   0  0  0  0  0  0  0  0  0  0  0  0
   10.6890   15.5020   23.7620 C   0  0  0  0  0  0  0  0  0  0  0  0
    9.5100   15.4550   21.5950 C   0  0  0  0  0  0  0  0  0  0  0  0
    9.6010   14.9240   22.9580 N   0  0  0  0  0  0  0  0  0  0  0  0
    8.7640   13.9520   23.3760 C   0  0  0  0  0  0  0  0  0  0  0  0
    7.8170   13.5760   22.7010 O   0  0  0  0  0  0  0  0  0  0  0  0
    9.0690   13.3280   24.7250 C   0  0  0  0  0  0  0  0  0  0  0  0
    8.8180   11.8380   24.7030 C   0  0  0  0  0  0  0  0  0  0  0  0
    7.5980   11.2490   25.0600 C   0  0  0  0  0  0  0  0  0  0  0  0
    6.1610   12.1910   25.5210 S   0  0  0  0  0  0  0  0  0  0  0  0
    5.1760   11.2730   26.0210 O   0  0  0  0  0  0  0  0  0  0  0  0
    5.8020   13.0170   24.4010 O   0  0  0  0  0  0  0  0  0  0  0  0
    6.6520   13.2340   26.8430 C   0  0  0  0  0  0  0  0  0  0  0  0
    9.8150   10.9960   24.2130 C   0  0  0  0  0  0  0  0  0  0  0  0
    9.6000    9.6420   24.0660 C   0  0  0  0  0  0  0  0  0  0  0  0
    8.4030    9.0880   24.4300 C   0  0  0  0  0  0  0  0  0  0  0  0
    7.3940    9.8820   24.9460 C   0  0  0  0  0  0  0  0  0  0  0  0
 18 15  1  0
 16 15  2  0
 17 15  2  0
 15 14  1  0
 14 22  2  0
 22 21  1  0
 21 20  2  0
 20 19  1  0
 19 13  2  0
 14 13  1  0
 13 12  1  0
 12 10  1  0
 11 10  2  0
 10  9  1  0
  9  7  1  0
  7  6  1  0
  6  5  1  0
  5  4  1  0
  4  2  1  6
  3  2  1  0
  2  1  2  0
  8  4  1  0
  9  8  1  0
M  END
>  <id>  (432) 
432

>  <inchikey>  (432) 
PSAGHVQLKXCCTK-LBPRGKRZSA-N

>  <alias>  (432) 
A4675a

>  <smiles>  (432) 
CS(=O)(=O)c1ccccc1CC(=O)N1CCC[C@H](C(N)=O)C1

>  <path>  (432) 
/opt/xchem-fragalysis-2/maxwin/BulkDock/TARGETS/A71EV2A/aligned_files/A4675a/A4675a.pdb

>  <distance_score>  (432) 
None

>  <energy_score>  (432) 
None

>  <compound>  (432) 
PSAGHVQLKXCCTK-UHFFFAOYSA-N

>  <compound_id>  (432) 
322

>  <target>  (432) 
A71EV2A

>  <tags>  (432) 
['GOOD count', 'MEDIOCRE count', '[Other] S1 site', 'hits', '[Other] upload_3 2025-03-06', '[Other] S2 site', '[Other] P3 compound design', '[Series] Piperidine series', 'Main status', 'BAD count']

>  <inspirations>  (432) 
None

>  <subsites>  (432) 
None

>  <reference>  (432) 


>  <observation_longname>  (432) 
A71EV2A-x4675_A_201_v3

>  <ConformerSites alias>  (432) 
1b - A0911/A/147

>  <CanonSites alias>  (432) 
1 - Active Site

>  <CrystalformSites alias>  (432) 
F8h - A0884/A/147

>  <Quatassemblies alias>  (432) 
A1 - monomer

>  <Crystalforms alias>  (432) 
F8 - A712A_x4271_2.1_refmac1_1st_ref

>  <ConformerSites upload name>  (432) 
1b - A71EV2A-x0911/A/147

>  <CanonSites upload name>  (432) 
1 - A71EV2A-x0911/A/147/1

>  <CrystalformSites upload name>  (432) 
F8h - A71EV2A-x0884/A/147/1

>  <Quatassemblies upload name>  (432) 
A1 - monomer

>  <Crystalforms upload name>  (432) 
F8 - A712A_x4271_2.1_refmac1_1st_ref

>  <ConformerSites short tag>  (432) 
1b - A0911/A/147

>  <CanonSites short tag>  (432) 
1 - A0911/A/147/1

>  <CrystalformSites short tag>  (432) 
F8h - A0884/A/147

>  <Quatassemblies short tag>  (432) 
A1 - monomer

>  <Crystalforms short tag>  (432) 
F8 - A712A_x4271_2.1_refmac1_1st_ref

>  <Centroid res>  (432) 
A71EV2A-x0911/A/133/A_v1

>  <Experiment code>  (432) 
A71EV2A-x4675

>  <Pose>  (432) 
A4675a

$$$$
A4684a
     RDKit          3D

 20 21  0  0  0  0  0  0  0  0999 V2000
   10.2620   16.5080   19.3010 O   0  0  0  0  0  0  0  0  0  0  0  0
   10.8280   15.4250   19.4770 C   0  0  0  0  0  0  0  0  0  0  0  0
   11.2290   14.6490   18.4780 N   0  0  0  0  0  0  0  0  0  0  0  0
   11.0230   14.8640   20.8760 C   0  0  1  0  0  0  0  0  0  0  0  0
   11.7810   15.8000   21.8370 C   0  0  0  0  0  0  0  0  0  0  0  0
   11.4140   15.2530   23.2140 C   0  0  0  0  0  0  0  0  0  0  0  0
    9.6810   14.6830   21.6040 C   0  0  0  0  0  0  0  0  0  0  0  0
   10.0400   14.7740   23.0250 N   0  0  0  0  0  0  0  0  0  0  0  0
    9.3940   14.1840   24.0770 C   0  0  0  0  0  0  0  0  0  0  0  0
    9.9420   14.0640   25.1690 O   0  0  0  0  0  0  0  0  0  0  0  0
    8.0990   13.7450   23.8900 N   0  0  0  0  0  0  0  0  0  0  0  0
    7.1820   14.5580   23.0920 C   0  0  0  0  0  0  0  0  0  0  0  0
    7.5130   12.6990   24.6800 C   0  0  0  0  0  0  0  0  0  0  0  0
    7.9190   11.3700   24.5430 C   0  0  0  0  0  0  0  0  0  0  0  0
    9.1620   11.0540   23.3250 S   0  0  0  0  0  0  0  0  0  0  0  0
    9.2560    9.2470   23.2770 C   0  0  0  0  0  0  0  0  0  0  0  0
    6.5450   13.0350   25.6260 C   0  0  0  0  0  0  0  0  0  0  0  0
    5.9730   12.0350   26.4010 C   0  0  0  0  0  0  0  0  0  0  0  0
    6.3550   10.7190   26.2380 C   0  0  0  0  0  0  0  0  0  0  0  0
    7.3310   10.3780   25.3160 C   0  0  0  0  0  0  0  0  0  0  0  0
 16 15  1  0
 15 14  1  0
 14 20  2  0
 20 19  1  0
 19 18  2  0
 18 17  1  0
 17 13  2  0
 14 13  1  0
 13 11  1  0
 12 11  1  0
 11  9  1  0
 10  9  2  0
  9  8  1  0
  8  6  1  0
  6  5  1  0
  5  4  1  0
  4  2  1  6
  3  2  1  0
  2  1  2  0
  7  4  1  0
  8  7  1  0
M  END
>  <id>  (433) 
433

>  <inchikey>  (433) 
GDQIPIWSEBEWLA-JTQLQIEISA-N

>  <alias>  (433) 
A4684a

>  <smiles>  (433) 
CSc1ccccc1N(C)C(=O)N1CC[C@H](C(N)=O)C1

>  <path>  (433) 
/opt/xchem-fragalysis-2/maxwin/BulkDock/TARGETS/A71EV2A/aligned_files/A4684a/A4684a.pdb

>  <distance_score>  (433) 
None

>  <energy_score>  (433) 
None

>  <compound>  (433) 
GDQIPIWSEBEWLA-UHFFFAOYSA-N

>  <compound_id>  (433) 
323

>  <target>  (433) 
A71EV2A

>  <tags>  (433) 
['GOOD count', 'MEDIOCRE count', '[Other] S1 site', 'hits', '[Other] S2 site', '[Other] P3 compound design', '[Other] upload_1 2025-02-12', 'Main status', '[Series] Piperidine series', 'BAD count']

>  <inspirations>  (433) 
None

>  <subsites>  (433) 
None

>  <reference>  (433) 


>  <observation_longname>  (433) 
A71EV2A-x4684_A_201_v1

>  <ConformerSites alias>  (433) 
1b - A0911/A/147

>  <CanonSites alias>  (433) 
1 - Active Site

>  <CrystalformSites alias>  (433) 
F1a - A0375/A/201

>  <Quatassemblies alias>  (433) 
A1 - monomer

>  <Crystalforms alias>  (433) 
F1 - A71_2A_open

>  <ConformerSites upload name>  (433) 
1b - A71EV2A-x0911/A/147

>  <CanonSites upload name>  (433) 
1 - A71EV2A-x0911/A/147/1

>  <CrystalformSites upload name>  (433) 
F1a - A71EV2A-x0375/A/201/1

>  <Quatassemblies upload name>  (433) 
A1 - monomer

>  <Crystalforms upload name>  (433) 
F1 - A71_2A_open

>  <ConformerSites short tag>  (433) 
1b - A0911/A/147

>  <CanonSites short tag>  (433) 
1 - A0911/A/147/1

>  <CrystalformSites short tag>  (433) 
F1a - A0375/A/201

>  <Quatassemblies short tag>  (433) 
A1 - monomer

>  <Crystalforms short tag>  (433) 
F1 - A71_2A_open

>  <Centroid res>  (433) 
A71EV2A-x0911/A/133/A_v1

>  <Experiment code>  (433) 
A71EV2A-x4684

>  <Pose>  (433) 
A4684a

$$$$
A4689a
     RDKit          3D

 20 21  0  0  0  0  0  0  0  0999 V2000
   10.4670   16.4960   19.0170 O   0  0  0  0  0  0  0  0  0  0  0  0
   10.8020   15.3640   19.3680 C   0  0  0  0  0  0  0  0  0  0  0  0
   11.1960   14.4410   18.5130 N   0  0  0  0  0  0  0  0  0  0  0  0
   10.7900   14.9570   20.8320 C   0  0  1  0  0  0  0  0  0  0  0  0
   11.8550   15.7250   21.6240 C   0  0  0  0  0  0  0  0  0  0  0  0
   11.8780   15.2960   23.0890 C   0  0  0  0  0  0  0  0  0  0  0  0
   10.4970   15.4320   23.7090 C   0  0  0  0  0  0  0  0  0  0  0  0
    9.4240   15.1010   21.5170 C   0  0  0  0  0  0  0  0  0  0  0  0
    9.4940   14.6950   22.9260 N   0  0  0  0  0  0  0  0  0  0  0  0
    8.6640   13.7580   23.4420 C   0  0  0  0  0  0  0  0  0  0  0  0
    7.7680   13.2530   22.7830 O   0  0  0  0  0  0  0  0  0  0  0  0
    8.8950   13.3430   24.8850 C   0  0  0  0  0  0  0  0  0  0  0  0
    8.0240   12.1810   25.3140 C   0  0  0  0  0  0  0  0  0  0  0  0
    8.1840   10.8700   24.8390 C   0  0  0  0  0  0  0  0  0  0  0  0
    9.5130   10.4390   23.7600 S   0  0  0  0  0  0  0  0  0  0  0  0
    9.2690    8.6910   23.4820 C   0  0  0  0  0  0  0  0  0  0  0  0
    7.0340   12.4100   26.2680 C   0  0  0  0  0  0  0  0  0  0  0  0
    6.2430   11.3690   26.7050 C   0  0  0  0  0  0  0  0  0  0  0  0
    6.3490   10.1190   26.2590 N   0  0  0  0  0  0  0  0  0  0  0  0
    7.2920    9.8850   25.3450 C   0  0  0  0  0  0  0  0  0  0  0  0
 16 15  1  0
 15 14  1  0
 14 20  2  0
 20 19  1  0
 19 18  2  0
 18 17  1  0
 17 13  2  0
 14 13  1  0
 13 12  1  0
 12 10  1  0
 11 10  2  0
 10  9  1  0
  9  7  1  0
  7  6  1  0
  6  5  1  0
  5  4  1  0
  4  2  1  6
  3  2  1  0
  2  1  2  0
  8  4  1  0
  9  8  1  0
M  END
>  <id>  (434) 
434

>  <inchikey>  (434) 
AOKSKQYDEIWOHX-NSHDSACASA-N

>  <alias>  (434) 
A4689a

>  <smiles>  (434) 
CSc1cnccc1CC(=O)N1CCC[C@H](C(N)=O)C1

>  <path>  (434) 
/opt/xchem-fragalysis-2/maxwin/BulkDock/TARGETS/A71EV2A/aligned_files/A4689a/A4689a.pdb

>  <distance_score>  (434) 
None

>  <energy_score>  (434) 
None

>  <compound>  (434) 
AOKSKQYDEIWOHX-UHFFFAOYSA-N

>  <compound_id>  (434) 
324

>  <target>  (434) 
A71EV2A

>  <tags>  (434) 
['GOOD count', 'MEDIOCRE count', '[Other] S1 site', 'hits', '[Other] S2 site', '[Other] P3 compound design', '[Other] upload_1 2025-02-12', 'Main status', '[Series] Piperidine series', 'BAD count']

>  <inspirations>  (434) 
None

>  <subsites>  (434) 
None

>  <reference>  (434) 


>  <observation_longname>  (434) 
A71EV2A-x4689_A_201_v1

>  <ConformerSites alias>  (434) 
1b - A0911/A/147

>  <CanonSites alias>  (434) 
1 - Active Site

>  <CrystalformSites alias>  (434) 
F8h - A0884/A/147

>  <Quatassemblies alias>  (434) 
A1 - monomer

>  <Crystalforms alias>  (434) 
F8 - A712A_x4271_2.1_refmac1_1st_ref

>  <ConformerSites upload name>  (434) 
1b - A71EV2A-x0911/A/147

>  <CanonSites upload name>  (434) 
1 - A71EV2A-x0911/A/147/1

>  <CrystalformSites upload name>  (434) 
F8h - A71EV2A-x0884/A/147/1

>  <Quatassemblies upload name>  (434) 
A1 - monomer

>  <Crystalforms upload name>  (434) 
F8 - A712A_x4271_2.1_refmac1_1st_ref

>  <ConformerSites short tag>  (434) 
1b - A0911/A/147

>  <CanonSites short tag>  (434) 
1 - A0911/A/147/1

>  <CrystalformSites short tag>  (434) 
F8h - A0884/A/147

>  <Quatassemblies short tag>  (434) 
A1 - monomer

>  <Crystalforms short tag>  (434) 
F8 - A712A_x4271_2.1_refmac1_1st_ref

>  <Centroid res>  (434) 
A71EV2A-x0911/A/133/A_v1

>  <Experiment code>  (434) 
A71EV2A-x4689

>  <Pose>  (434) 
A4689a

$$$$
A4694a
     RDKit          3D

 19 20  0  0  0  0  0  0  0  0999 V2000
   11.7520   14.4670   24.7630 O   0  0  0  0  0  0  0  0  0  0  0  0
   11.5610   14.5590   23.5640 C   0  0  0  0  0  0  0  0  0  0  0  0
   12.7230   14.7670   22.6210 C   0  0  0  0  0  0  0  0  0  0  0  0
   12.3870   14.7740   21.1270 C   0  0  0  0  0  0  0  0  0  0  0  0
   11.0350   15.4570   20.8570 C   0  0  1  0  0  0  0  0  0  0  0  0
   10.7360   15.5960   19.3730 C   0  0  0  0  0  0  0  0  0  0  0  0
   10.0870   16.5570   18.9490 O   0  0  0  0  0  0  0  0  0  0  0  0
   11.1550   14.6130   18.5830 N   0  0  0  0  0  0  0  0  0  0  0  0
    9.9440   14.7050   21.6200 C   0  0  0  0  0  0  0  0  0  0  0  0
   10.3170   14.5010   23.0230 N   0  0  0  0  0  0  0  0  0  0  0  0
    9.1780   14.2000   23.8850 C   0  0  0  0  0  0  0  0  0  0  0  0
    8.9360   12.7190   24.0810 C   0  0  0  0  0  0  0  0  0  0  0  0
    7.8610   12.2580   24.8560 C   0  0  0  0  0  0  0  0  0  0  0  0
    6.8450   13.4640   25.6590 S   0  0  0  0  0  0  0  0  0  0  0  0
    5.6370   12.4710   26.5520 C   0  0  0  0  0  0  0  0  0  0  0  0
    9.7590   11.7740   23.4690 C   0  0  0  0  0  0  0  0  0  0  0  0
    9.5150   10.4160   23.6020 C   0  0  0  0  0  0  0  0  0  0  0  0
    8.4650    9.9780   24.3620 C   0  0  0  0  0  0  0  0  0  0  0  0
    7.6330   10.8900   24.9930 C   0  0  0  0  0  0  0  0  0  0  0  0
 15 14  1  0
 14 13  1  0
 13 19  2  0
 19 18  1  0
 18 17  2  0
 17 16  1  0
 16 12  2  0
 13 12  1  0
 12 11  1  0
 11 10  1  0
 10  9  1  0
  9  5  1  0
  5  6  1  6
  8  6  1  0
  7  6  2  0
  5  4  1  0
  4  3  1  0
  3  2  1  0
 10  2  1  0
  2  1  2  0
M  END
>  <id>  (435) 
435

>  <inchikey>  (435) 
RLHAKIZJEMHKDK-LLVKDONJSA-N

>  <alias>  (435) 
A4694a

>  <smiles>  (435) 
CSc1ccccc1CN1C[C@H](C(N)=O)CCC1=O

>  <path>  (435) 
/opt/xchem-fragalysis-2/maxwin/BulkDock/TARGETS/A71EV2A/aligned_files/A4694a/A4694a.pdb

>  <distance_score>  (435) 
None

>  <energy_score>  (435) 
None

>  <compound>  (435) 
RLHAKIZJEMHKDK-UHFFFAOYSA-N

>  <compound_id>  (435) 
325

>  <target>  (435) 
A71EV2A

>  <tags>  (435) 
['GOOD count', 'MEDIOCRE count', '[Other] S1 site', 'hits', '[Other] S2 site', '[Other] P3 compound design', '[Other] upload_1 2025-02-12', 'Main status', '[Series] Piperidine series', 'BAD count']

>  <inspirations>  (435) 
None

>  <subsites>  (435) 
None

>  <reference>  (435) 


>  <observation_longname>  (435) 
A71EV2A-x4694_A_201_v1

>  <ConformerSites alias>  (435) 
1b - A0911/A/147

>  <CanonSites alias>  (435) 
1 - Active Site

>  <CrystalformSites alias>  (435) 
F1a - A0375/A/201

>  <Quatassemblies alias>  (435) 
A1 - monomer

>  <Crystalforms alias>  (435) 
F1 - A71_2A_open

>  <ConformerSites upload name>  (435) 
1b - A71EV2A-x0911/A/147

>  <CanonSites upload name>  (435) 
1 - A71EV2A-x0911/A/147/1

>  <CrystalformSites upload name>  (435) 
F1a - A71EV2A-x0375/A/201/1

>  <Quatassemblies upload name>  (435) 
A1 - monomer

>  <Crystalforms upload name>  (435) 
F1 - A71_2A_open

>  <ConformerSites short tag>  (435) 
1b - A0911/A/147

>  <CanonSites short tag>  (435) 
1 - A0911/A/147/1

>  <CrystalformSites short tag>  (435) 
F1a - A0375/A/201

>  <Quatassemblies short tag>  (435) 
A1 - monomer

>  <Crystalforms short tag>  (435) 
F1 - A71_2A_open

>  <Centroid res>  (435) 
A71EV2A-x0911/A/133/A_v1

>  <Experiment code>  (435) 
A71EV2A-x4694

>  <Pose>  (435) 
A4694a

$$$$
A4695a
     RDKit          3D

 19 20  0  0  0  0  0  0  0  0999 V2000
   11.4270   14.6920   24.8880 O   0  0  0  0  0  0  0  0  0  0  0  0
   11.3190   14.8460   23.6820 C   0  0  0  0  0  0  0  0  0  0  0  0
   12.5080   15.3000   22.8750 C   0  0  0  0  0  0  0  0  0  0  0  0
   12.1750   15.7870   21.4630 C   0  0  0  0  0  0  0  0  0  0  0  0
   11.1620   14.8670   20.7600 C   0  0  2  0  0  0  0  0  0  0  0  0
   10.8500   15.3630   19.3570 C   0  0  0  0  0  0  0  0  0  0  0  0
   10.3740   16.4880   19.1680 O   0  0  0  0  0  0  0  0  0  0  0  0
   11.0940   14.5180   18.3700 N   0  0  0  0  0  0  0  0  0  0  0  0
    9.8800   14.8410   21.6020 C   0  0  0  0  0  0  0  0  0  0  0  0
   10.1480   14.6360   23.0310 N   0  0  0  0  0  0  0  0  0  0  0  0
    8.9480   14.2680   23.7890 C   0  0  0  0  0  0  0  0  0  0  0  0
    8.7700   12.7790   23.9930 C   0  0  0  0  0  0  0  0  0  0  0  0
    7.8020   12.2500   24.8610 C   0  0  0  0  0  0  0  0  0  0  0  0
    6.7590   13.3850   25.7300 S   0  0  0  0  0  0  0  0  0  0  0  0
    5.6760   12.3280   26.7060 C   0  0  0  0  0  0  0  0  0  0  0  0
    9.6180   11.8910   23.3290 C   0  0  0  0  0  0  0  0  0  0  0  0
    9.5130   10.5240   23.5200 C   0  0  0  0  0  0  0  0  0  0  0  0
    8.5550   10.0160   24.3660 C   0  0  0  0  0  0  0  0  0  0  0  0
    7.6980   10.8720   25.0410 C   0  0  0  0  0  0  0  0  0  0  0  0
 15 14  1  0
 14 13  1  0
 13 19  2  0
 19 18  1  0
 18 17  2  0
 17 16  1  0
 16 12  2  0
 13 12  1  0
 12 11  1  0
 11 10  1  0
 10  9  1  0
  9  5  1  0
  5  6  1  6
  8  6  1  0
  7  6  2  0
  5  4  1  0
  4  3  1  0
  3  2  1  0
 10  2  1  0
  2  1  2  0
M  END
>  <id>  (436) 
436

>  <inchikey>  (436) 
RLHAKIZJEMHKDK-NSHDSACASA-N

>  <alias>  (436) 
A4695a

>  <smiles>  (436) 
CSc1ccccc1CN1C[C@@H](C(N)=O)CCC1=O

>  <path>  (436) 
/opt/xchem-fragalysis-2/maxwin/BulkDock/TARGETS/A71EV2A/aligned_files/A4695a/A4695a.pdb

>  <distance_score>  (436) 
None

>  <energy_score>  (436) 
None

>  <compound>  (436) 
RLHAKIZJEMHKDK-UHFFFAOYSA-N

>  <compound_id>  (436) 
325

>  <target>  (436) 
A71EV2A

>  <tags>  (436) 
['GOOD count', 'MEDIOCRE count', '[Other] S1 site', 'hits', '[Other] S2 site', '[Other] upload_6_2025-02-13', '[Other] P3 compound design', '[Other] upload_1 2025-02-12', 'Main status', '[Series] Piperidine series', 'BAD count']

>  <inspirations>  (436) 
None

>  <subsites>  (436) 
None

>  <reference>  (436) 


>  <observation_longname>  (436) 
A71EV2A-x4695_A_201_v1

>  <ConformerSites alias>  (436) 
1b - A0911/A/147

>  <CanonSites alias>  (436) 
1 - Active Site

>  <CrystalformSites alias>  (436) 
F8h - A0884/A/147

>  <Quatassemblies alias>  (436) 
A1 - monomer

>  <Crystalforms alias>  (436) 
F8 - A712A_x4271_2.1_refmac1_1st_ref

>  <ConformerSites upload name>  (436) 
1b - A71EV2A-x0911/A/147

>  <CanonSites upload name>  (436) 
1 - A71EV2A-x0911/A/147/1

>  <CrystalformSites upload name>  (436) 
F8h - A71EV2A-x0884/A/147/1

>  <Quatassemblies upload name>  (436) 
A1 - monomer

>  <Crystalforms upload name>  (436) 
F8 - A712A_x4271_2.1_refmac1_1st_ref

>  <ConformerSites short tag>  (436) 
1b - A0911/A/147

>  <CanonSites short tag>  (436) 
1 - A0911/A/147/1

>  <CrystalformSites short tag>  (436) 
F8h - A0884/A/147

>  <Quatassemblies short tag>  (436) 
A1 - monomer

>  <Crystalforms short tag>  (436) 
F8 - A712A_x4271_2.1_refmac1_1st_ref

>  <Centroid res>  (436) 
A71EV2A-x0911/A/133/A_v1

>  <Experiment code>  (436) 
A71EV2A-x4695

>  <Pose>  (436) 
A4695a

$$$$
A4701a
     RDKit          3D

 18 19  0  0  0  0  0  0  0  0999 V2000
   10.0360   16.4180   19.0930 O   0  0  0  0  0  0  0  0  0  0  0  0
   10.4960   15.3220   19.4070 C   0  0  0  0  0  0  0  0  0  0  0  0
   10.9020   14.4160   18.5280 N   0  0  0  0  0  0  0  0  0  0  0  0
   10.5670   14.8630   20.8540 C   0  0  1  0  0  0  0  0  0  0  0  0
   11.6910   15.5630   21.6320 C   0  0  0  0  0  0  0  0  0  0  0  0
   11.8920   15.0190   23.0290 C   0  0  0  0  0  0  0  0  0  0  0  0
   10.5970   14.9950   23.8220 C   0  0  0  0  0  0  0  0  0  0  0  0
    9.3500   15.1170   21.7240 C   0  0  0  0  0  0  0  0  0  0  0  0
    9.5300   14.4390   23.0000 N   0  0  0  0  0  0  0  0  0  0  0  0
    8.8590   13.3030   23.2950 C   0  0  0  0  0  0  0  0  0  0  0  0
    7.8570   12.9550   22.7180 O   0  0  0  0  0  0  0  0  0  0  0  0
    9.4670   12.3320   24.2840 C   0  0  0  0  0  0  0  0  0  0  0  0
    8.8170   10.9200   24.3160 C   0  0  0  0  0  0  0  0  0  0  0  0
    8.9610    9.9580   23.1770 C   0  0  0  0  0  0  0  0  0  0  0  0
    9.7390    9.7490   24.4620 C   0  0  0  0  0  0  0  0  0  0  0  0
    7.3400   10.7290   24.6940 C   0  0  0  0  0  0  0  0  0  0  0  0
    7.4160   11.1690   26.4450 S   0  0  0  0  0  0  0  0  0  0  0  0
    5.8610   10.7850   27.0190 C   0  0  0  0  0  0  0  0  0  0  0  0
 18 17  1  0
 17 16  1  0
 16 13  1  0
 13 12  1  0
 12 10  1  0
 11 10  2  0
 10  9  1  0
  9  7  1  0
  7  6  1  0
  6  5  1  0
  5  4  1  0
  4  2  1  6
  3  2  1  0
  2  1  2  0
  8  4  1  0
  9  8  1  0
 13 15  1  0
 15 14  1  0
 14 13  1  0
M  END
>  <id>  (437) 
437

>  <inchikey>  (437) 
HUXPZZDRMFMXBF-JTQLQIEISA-N

>  <alias>  (437) 
A4701a

>  <smiles>  (437) 
CSCC1(CC(=O)N2CCC[C@H](C(N)=O)C2)CC1

>  <path>  (437) 
/opt/xchem-fragalysis-2/maxwin/BulkDock/TARGETS/A71EV2A/aligned_files/A4701a/A4701a.pdb

>  <distance_score>  (437) 
None

>  <energy_score>  (437) 
None

>  <compound>  (437) 
HUXPZZDRMFMXBF-UHFFFAOYSA-N

>  <compound_id>  (437) 
326

>  <target>  (437) 
A71EV2A

>  <tags>  (437) 
['GOOD count', 'MEDIOCRE count', '[Other] S1 site', 'hits', '[Other] S2 site', '[Other] P3 compound design', '[Other] upload_1 2025-02-12', 'Main status', '[Series] Piperidine series', 'BAD count']

>  <inspirations>  (437) 
None

>  <subsites>  (437) 
None

>  <reference>  (437) 


>  <observation_longname>  (437) 
A71EV2A-x4701_A_201_v1

>  <ConformerSites alias>  (437) 
1b - A0911/A/147

>  <CanonSites alias>  (437) 
1 - Active Site

>  <CrystalformSites alias>  (437) 
F5i - A3175/A/201

>  <Quatassemblies alias>  (437) 
A1 - monomer

>  <Crystalforms alias>  (437) 
F5 - A71EV2A_x3178_new_long_dials_041024

>  <ConformerSites upload name>  (437) 
1b - A71EV2A-x0911/A/147

>  <CanonSites upload name>  (437) 
1 - A71EV2A-x0911/A/147/1

>  <CrystalformSites upload name>  (437) 
F5i - A71EV2A-x3175/A/201/1

>  <Quatassemblies upload name>  (437) 
A1 - monomer

>  <Crystalforms upload name>  (437) 
F5 - A71EV2A_x3178_new_long_dials_041024

>  <ConformerSites short tag>  (437) 
1b - A0911/A/147

>  <CanonSites short tag>  (437) 
1 - A0911/A/147/1

>  <CrystalformSites short tag>  (437) 
F5i - A3175/A/201

>  <Quatassemblies short tag>  (437) 
A1 - monomer

>  <Crystalforms short tag>  (437) 
F5 - A71EV2A_x3178_new_long_dials_041024

>  <Centroid res>  (437) 
A71EV2A-x0911/A/133/A_v1

>  <Experiment code>  (437) 
A71EV2A-x4701

>  <Pose>  (437) 
A4701a

$$$$
A4703a
     RDKit          3D

 20 21  0  0  0  0  0  0  0  0999 V2000
   10.3480   16.6010   19.2980 O   0  0  0  0  0  0  0  0  0  0  0  0
   10.7430   15.4610   19.5700 C   0  0  0  0  0  0  0  0  0  0  0  0
   11.2440   14.6370   18.6680 N   0  0  0  0  0  0  0  0  0  0  0  0
   10.6600   14.9160   20.9870 C   0  0  1  0  0  0  0  0  0  0  0  0
   11.8110   15.4400   21.8620 C   0  0  0  0  0  0  0  0  0  0  0  0
   11.7120   14.9460   23.3170 C   0  0  0  0  0  0  0  0  0  0  0  0
   10.3190   15.1750   23.8880 C   0  0  0  0  0  0  0  0  0  0  0  0
    9.3340   15.2820   21.6560 C   0  0  0  0  0  0  0  0  0  0  0  0
    9.2830   14.6560   22.9800 N   0  0  0  0  0  0  0  0  0  0  0  0
    8.3600   13.6800   23.2320 C   0  0  0  0  0  0  0  0  0  0  0  0
    7.6050   13.2670   22.3630 O   0  0  0  0  0  0  0  0  0  0  0  0
    8.2820   13.2050   24.5400 N   0  0  0  0  0  0  0  0  0  0  0  0
    7.7110   12.0170   24.9600 C   0  0  0  0  0  0  0  0  0  0  0  0
    6.7650   11.9610   25.9010 N   0  0  0  0  0  0  0  0  0  0  0  0
    6.4970   10.6390   26.0330 N   0  0  0  0  0  0  0  0  0  0  0  0
    5.4850   10.2060   26.9840 C   0  0  0  0  0  0  0  0  0  0  0  0
    7.2360    9.8690   25.2200 C   0  0  0  0  0  0  0  0  0  0  0  0
    8.0530   10.6910   24.4910 C   0  0  0  0  0  0  0  0  0  0  0  0
    9.2360   10.2540   23.2760 S   0  0  0  0  0  0  0  0  0  0  0  0
   10.6460   11.2170   23.7110 C   0  0  0  0  0  0  0  0  0  0  0  0
 20 19  1  0
 19 18  1  0
 18 17  2  0
 17 15  1  0
 16 15  1  0
 15 14  1  0
 14 13  2  0
 18 13  1  0
 13 12  1  0
 12 10  1  0
 11 10  2  0
 10  9  1  0
  9  7  1  0
  7  6  1  0
  6  5  1  0
  5  4  1  0
  4  2  1  6
  3  2  1  0
  2  1  2  0
  8  4  1  0
  9  8  1  0
M  END
>  <id>  (438) 
438

>  <inchikey>  (438) 
XJTLXYFPHTXJQS-QMMMGPOBSA-N

>  <alias>  (438) 
A4703a

>  <smiles>  (438) 
CSc1cn(C)nc1NC(=O)N1CCC[C@H](C(N)=O)C1

>  <path>  (438) 
/opt/xchem-fragalysis-2/maxwin/BulkDock/TARGETS/A71EV2A/aligned_files/A4703a/A4703a.pdb

>  <distance_score>  (438) 
None

>  <energy_score>  (438) 
None

>  <compound>  (438) 
XJTLXYFPHTXJQS-UHFFFAOYSA-N

>  <compound_id>  (438) 
327

>  <target>  (438) 
A71EV2A

>  <tags>  (438) 
['GOOD count', 'MEDIOCRE count', '[Other] S1 site', 'hits', '[Other] S2 site', '[Other] upload_6_2025-02-13', '[Other] P3 compound design', '[Other] upload_1 2025-02-12', 'Main status', '[Series] Piperidine series', 'BAD count']

>  <inspirations>  (438) 
None

>  <subsites>  (438) 
None

>  <reference>  (438) 


>  <observation_longname>  (438) 
A71EV2A-x4703_A_201_v1

>  <ConformerSites alias>  (438) 
1b - A0911/A/147

>  <CanonSites alias>  (438) 
1 - Active Site

>  <CrystalformSites alias>  (438) 
F8h - A0884/A/147

>  <Quatassemblies alias>  (438) 
A1 - monomer

>  <Crystalforms alias>  (438) 
F8 - A712A_x4271_2.1_refmac1_1st_ref

>  <ConformerSites upload name>  (438) 
1b - A71EV2A-x0911/A/147

>  <CanonSites upload name>  (438) 
1 - A71EV2A-x0911/A/147/1

>  <CrystalformSites upload name>  (438) 
F8h - A71EV2A-x0884/A/147/1

>  <Quatassemblies upload name>  (438) 
A1 - monomer

>  <Crystalforms upload name>  (438) 
F8 - A712A_x4271_2.1_refmac1_1st_ref

>  <ConformerSites short tag>  (438) 
1b - A0911/A/147

>  <CanonSites short tag>  (438) 
1 - A0911/A/147/1

>  <CrystalformSites short tag>  (438) 
F8h - A0884/A/147

>  <Quatassemblies short tag>  (438) 
A1 - monomer

>  <Crystalforms short tag>  (438) 
F8 - A712A_x4271_2.1_refmac1_1st_ref

>  <Centroid res>  (438) 
A71EV2A-x0911/A/133/A_v1

>  <Experiment code>  (438) 
A71EV2A-x4703

>  <Pose>  (438) 
A4703a

$$$$
A4706a
     RDKit          3D

 17 18  0  0  0  0  0  0  0  0999 V2000
    7.0590   13.0750   22.4120 O   0  0  0  0  0  0  0  0  0  0  0  0
    7.8550   13.5010   23.2230 C   0  0  0  0  0  0  0  0  0  0  0  0
    8.8030   14.3860   22.8560 N   0  0  0  0  0  0  0  0  0  0  0  0
    9.8530   14.8970   23.7550 C   0  0  0  0  0  0  0  0  0  0  0  0
   11.2350   14.6980   23.1490 C   0  0  0  0  0  0  0  0  0  0  0  0
   11.2980   15.3300   21.7600 C   0  0  0  0  0  0  0  0  0  0  0  0
    8.8330   14.9730   21.5090 C   0  0  0  0  0  0  0  0  0  0  0  0
   10.1990   14.7380   20.8560 C   0  0  1  0  0  0  0  0  0  0  0  0
   10.2940   15.2570   19.4310 C   0  0  0  0  0  0  0  0  0  0  0  0
    9.8880   16.3880   19.1370 O   0  0  0  0  0  0  0  0  0  0  0  0
   10.8480   14.4320   18.5480 N   0  0  0  0  0  0  0  0  0  0  0  0
    7.7080   13.1430   24.7160 C   0  0  0  0  0  0  0  0  0  0  0  0
    6.8590   14.1980   25.4430 C   0  0  0  0  0  0  0  0  0  0  0  0
    6.7600   13.9320   26.9400 C   0  0  0  0  0  0  0  0  0  0  0  0
    5.8850   12.3930   27.3130 S   0  0  0  0  0  0  0  0  0  0  0  0
    6.9350   11.2960   26.3260 C   0  0  0  0  0  0  0  0  0  0  0  0
    7.0590   11.7570   24.8780 C   0  0  0  0  0  0  0  0  0  0  0  0
 11  9  1  0
 10  9  2  0
  8  9  1  6
  8  6  1  0
  6  5  1  0
  5  4  1  0
  4  3  1  0
  3  2  1  0
  2  1  2  0
 12  2  1  0
 12 17  1  0
 17 16  1  0
 16 15  1  0
 15 14  1  0
 14 13  1  0
 13 12  1  0
  7  3  1  0
  8  7  1  0
M  END
>  <id>  (439) 
439

>  <inchikey>  (439) 
OJBHGPGRQLLRTQ-JTQLQIEISA-N

>  <alias>  (439) 
A4706a

>  <smiles>  (439) 
NC(=O)[C@H]1CCCN(C(=O)C2CCSCC2)C1

>  <path>  (439) 
/opt/xchem-fragalysis-2/maxwin/BulkDock/TARGETS/A71EV2A/aligned_files/A4706a/A4706a.pdb

>  <distance_score>  (439) 
None

>  <energy_score>  (439) 
None

>  <compound>  (439) 
OJBHGPGRQLLRTQ-UHFFFAOYSA-N

>  <compound_id>  (439) 
328

>  <target>  (439) 
A71EV2A

>  <tags>  (439) 
['GOOD count', 'MEDIOCRE count', '[Other] S1 site', 'hits', '[Other] S2 site', '[Other] P3 compound design', '[Other] upload_1 2025-02-12', 'Main status', '[Series] Piperidine series', 'BAD count']

>  <inspirations>  (439) 
None

>  <subsites>  (439) 
None

>  <reference>  (439) 


>  <observation_longname>  (439) 
A71EV2A-x4706_A_201_v1

>  <ConformerSites alias>  (439) 
1b - A0911/A/147

>  <CanonSites alias>  (439) 
1 - Active Site

>  <CrystalformSites alias>  (439) 
F5i - A3175/A/201

>  <Quatassemblies alias>  (439) 
A1 - monomer

>  <Crystalforms alias>  (439) 
F5 - A71EV2A_x3178_new_long_dials_041024

>  <ConformerSites upload name>  (439) 
1b - A71EV2A-x0911/A/147

>  <CanonSites upload name>  (439) 
1 - A71EV2A-x0911/A/147/1

>  <CrystalformSites upload name>  (439) 
F5i - A71EV2A-x3175/A/201/1

>  <Quatassemblies upload name>  (439) 
A1 - monomer

>  <Crystalforms upload name>  (439) 
F5 - A71EV2A_x3178_new_long_dials_041024

>  <ConformerSites short tag>  (439) 
1b - A0911/A/147

>  <CanonSites short tag>  (439) 
1 - A0911/A/147/1

>  <CrystalformSites short tag>  (439) 
F5i - A3175/A/201

>  <Quatassemblies short tag>  (439) 
A1 - monomer

>  <Crystalforms short tag>  (439) 
F5 - A71EV2A_x3178_new_long_dials_041024

>  <Centroid res>  (439) 
A71EV2A-x0911/A/133/A_v1

>  <Experiment code>  (439) 
A71EV2A-x4706

>  <Pose>  (439) 
A4706a

$$$$
A4707a
     RDKit          3D

 16 17  0  0  0  0  0  0  0  0999 V2000
    7.4500   12.7250   22.5540 O   0  0  0  0  0  0  0  0  0  0  0  0
    8.4010   13.0870   23.2010 C   0  0  0  0  0  0  0  0  0  0  0  0
    8.7780   12.3330   24.4480 C   0  0  0  0  0  0  0  0  0  0  0  0
    8.3160   10.8850   24.2720 C   0  0  0  0  0  0  0  0  0  0  0  0
    9.2980   10.3210   23.3110 C   0  0  0  0  0  0  0  0  0  0  0  0
    9.9820    9.1260   24.6340 S   0  0  0  0  0  0  0  0  0  0  0  0
    8.4140    9.8570   25.3690 C   0  0  0  0  0  0  0  0  0  0  0  0
    9.1100   14.1840   22.9120 N   0  0  0  0  0  0  0  0  0  0  0  0
   10.1470   14.6500   23.8400 C   0  0  0  0  0  0  0  0  0  0  0  0
   11.5270   14.6610   23.1600 C   0  0  0  0  0  0  0  0  0  0  0  0
   11.5270   15.3200   21.7880 C   0  0  0  0  0  0  0  0  0  0  0  0
    9.0510   14.9930   21.7060 C   0  0  0  0  0  0  0  0  0  0  0  0
   10.3460   14.8160   20.9360 C   0  0  1  0  0  0  0  0  0  0  0  0
   10.3220   15.3730   19.5180 C   0  0  0  0  0  0  0  0  0  0  0  0
    9.9550   16.4700   19.2650 O   0  0  0  0  0  0  0  0  0  0  0  0
   10.8010   14.4760   18.6290 N   0  0  0  0  0  0  0  0  0  0  0  0
 16 14  1  0
 15 14  2  0
 13 14  1  6
 13 11  1  0
 11 10  1  0
 10  9  1  0
  9  8  1  0
  8  2  1  0
  2  1  2  0
  3  2  1  0
  4  3  1  0
  4  7  1  0
  7  6  1  0
  6  5  1  0
  5  4  1  0
 12  8  1  0
 13 12  1  0
M  END
>  <id>  (440) 
440

>  <inchikey>  (440) 
BKTQIMHCVRWPFO-VIFPVBQESA-N

>  <alias>  (440) 
A4707a

>  <smiles>  (440) 
NC(=O)[C@H]1CCCN(C(=O)CC2CSC2)C1

>  <path>  (440) 
/opt/xchem-fragalysis-2/maxwin/BulkDock/TARGETS/A71EV2A/aligned_files/A4707a/A4707a.pdb

>  <distance_score>  (440) 
None

>  <energy_score>  (440) 
None

>  <compound>  (440) 
BKTQIMHCVRWPFO-UHFFFAOYSA-N

>  <compound_id>  (440) 
329

>  <target>  (440) 
A71EV2A

>  <tags>  (440) 
['GOOD count', 'MEDIOCRE count', '[Other] S1 site', 'hits', '[Other] S2 site', '[Other] P3 compound design', '[Other] upload_1 2025-02-12', 'Main status', '[Series] Piperidine series', 'BAD count']

>  <inspirations>  (440) 
None

>  <subsites>  (440) 
None

>  <reference>  (440) 


>  <observation_longname>  (440) 
A71EV2A-x4707_A_201_v1

>  <ConformerSites alias>  (440) 
1b - A0911/A/147

>  <CanonSites alias>  (440) 
1 - Active Site

>  <CrystalformSites alias>  (440) 
F5i - A3175/A/201

>  <Quatassemblies alias>  (440) 
A1 - monomer

>  <Crystalforms alias>  (440) 
F5 - A71EV2A_x3178_new_long_dials_041024

>  <ConformerSites upload name>  (440) 
1b - A71EV2A-x0911/A/147

>  <CanonSites upload name>  (440) 
1 - A71EV2A-x0911/A/147/1

>  <CrystalformSites upload name>  (440) 
F5i - A71EV2A-x3175/A/201/1

>  <Quatassemblies upload name>  (440) 
A1 - monomer

>  <Crystalforms upload name>  (440) 
F5 - A71EV2A_x3178_new_long_dials_041024

>  <ConformerSites short tag>  (440) 
1b - A0911/A/147

>  <CanonSites short tag>  (440) 
1 - A0911/A/147/1

>  <CrystalformSites short tag>  (440) 
F5i - A3175/A/201

>  <Quatassemblies short tag>  (440) 
A1 - monomer

>  <Crystalforms short tag>  (440) 
F5 - A71EV2A_x3178_new_long_dials_041024

>  <Centroid res>  (440) 
A71EV2A-x0911/A/133/A_v1

>  <Experiment code>  (440) 
A71EV2A-x4707

>  <Pose>  (440) 
A4707a

$$$$
A4708a
     RDKit          3D

 18 19  0  0  0  0  0  0  0  0999 V2000
    7.2080   13.0710   22.5060 O   0  0  0  0  0  0  0  0  0  0  0  0
    8.0330   13.5230   23.2720 C   0  0  0  0  0  0  0  0  0  0  0  0
    8.9540   14.3980   22.8250 N   0  0  0  0  0  0  0  0  0  0  0  0
    9.9710   15.0090   23.6980 C   0  0  0  0  0  0  0  0  0  0  0  0
   11.3660   14.9000   23.0990 C   0  0  0  0  0  0  0  0  0  0  0  0
   11.3830   15.4540   21.6780 C   0  0  0  0  0  0  0  0  0  0  0  0
    8.9480   14.8960   21.4450 C   0  0  0  0  0  0  0  0  0  0  0  0
   10.3310   14.7430   20.8090 C   0  0  1  0  0  0  0  0  0  0  0  0
   10.3940   15.2170   19.3670 C   0  0  0  0  0  0  0  0  0  0  0  0
    9.9150   16.3040   19.0360 O   0  0  0  0  0  0  0  0  0  0  0  0
   11.0010   14.4060   18.5140 N   0  0  0  0  0  0  0  0  0  0  0  0
    7.8290   13.1380   24.7590 C   0  0  0  0  0  0  0  0  0  0  0  0
    9.0830   13.1050   25.4370 O   0  0  0  0  0  0  0  0  0  0  0  0
    7.2320   11.7300   24.8780 C   0  0  0  0  0  0  0  0  0  0  0  0
    6.9230   11.2690   26.2930 C   0  0  0  0  0  0  0  0  0  0  0  0
    5.7220   12.3370   27.1240 S   0  0  0  0  0  0  0  0  0  0  0  0
    6.5910   13.9040   26.8870 C   0  0  0  0  0  0  0  0  0  0  0  0
    6.9180   14.1750   25.4270 C   0  0  0  0  0  0  0  0  0  0  0  0
 11  9  1  0
 10  9  2  0
  8  9  1  6
  8  6  1  0
  6  5  1  0
  5  4  1  0
  4  3  1  0
  3  2  1  0
  2  1  2  0
 12  2  1  0
 13 12  1  0
 12 18  1  0
 18 17  1  0
 17 16  1  0
 16 15  1  0
 15 14  1  0
 14 12  1  0
  7  3  1  0
  8  7  1  0
M  END
>  <id>  (441) 
441

>  <inchikey>  (441) 
JBKFOLYWCBQWFH-VIFPVBQESA-N

>  <alias>  (441) 
A4708a

>  <smiles>  (441) 
NC(=O)[C@H]1CCCN(C(=O)C2(O)CCSCC2)C1

>  <path>  (441) 
/opt/xchem-fragalysis-2/maxwin/BulkDock/TARGETS/A71EV2A/aligned_files/A4708a/A4708a.pdb

>  <distance_score>  (441) 
None

>  <energy_score>  (441) 
None

>  <compound>  (441) 
JBKFOLYWCBQWFH-UHFFFAOYSA-N

>  <compound_id>  (441) 
330

>  <target>  (441) 
A71EV2A

>  <tags>  (441) 
['GOOD count', 'MEDIOCRE count', '[Other] S1 site', 'hits', '[Other] S2 site', '[Other] P3 compound design', '[Other] upload_1 2025-02-12', 'Main status', '[Series] Piperidine series', 'BAD count']

>  <inspirations>  (441) 
None

>  <subsites>  (441) 
None

>  <reference>  (441) 


>  <observation_longname>  (441) 
A71EV2A-x4708_A_201_v1

>  <ConformerSites alias>  (441) 
1b - A0911/A/147

>  <CanonSites alias>  (441) 
1 - Active Site

>  <CrystalformSites alias>  (441) 
F5i - A3175/A/201

>  <Quatassemblies alias>  (441) 
A1 - monomer

>  <Crystalforms alias>  (441) 
F5 - A71EV2A_x3178_new_long_dials_041024

>  <ConformerSites upload name>  (441) 
1b - A71EV2A-x0911/A/147

>  <CanonSites upload name>  (441) 
1 - A71EV2A-x0911/A/147/1

>  <CrystalformSites upload name>  (441) 
F5i - A71EV2A-x3175/A/201/1

>  <Quatassemblies upload name>  (441) 
A1 - monomer

>  <Crystalforms upload name>  (441) 
F5 - A71EV2A_x3178_new_long_dials_041024

>  <ConformerSites short tag>  (441) 
1b - A0911/A/147

>  <CanonSites short tag>  (441) 
1 - A0911/A/147/1

>  <CrystalformSites short tag>  (441) 
F5i - A3175/A/201

>  <Quatassemblies short tag>  (441) 
A1 - monomer

>  <Crystalforms short tag>  (441) 
F5 - A71EV2A_x3178_new_long_dials_041024

>  <Centroid res>  (441) 
A71EV2A-x0911/A/133/A_v1

>  <Experiment code>  (441) 
A71EV2A-x4708

>  <Pose>  (441) 
A4708a

$$$$
A4710a
     RDKit          3D

 19 20  0  0  0  0  0  0  0  0999 V2000
   11.8170   14.2330   24.6730 O   0  0  0  0  0  0  0  0  0  0  0  0
   11.5990   14.3900   23.4830 C   0  0  0  0  0  0  0  0  0  0  0  0
   12.7450   14.6340   22.5360 C   0  0  0  0  0  0  0  0  0  0  0  0
   12.3920   14.5330   21.0480 C   0  0  0  0  0  0  0  0  0  0  0  0
   11.0720   15.2640   20.7760 C   0  0  1  0  0  0  0  0  0  0  0  0
   10.7810   15.4080   19.2900 C   0  0  0  0  0  0  0  0  0  0  0  0
   10.0560   16.3160   18.8780 O   0  0  0  0  0  0  0  0  0  0  0  0
   11.3660   14.5360   18.4820 N   0  0  0  0  0  0  0  0  0  0  0  0
    9.9680   14.5470   21.5550 C   0  0  0  0  0  0  0  0  0  0  0  0
   10.3430   14.3620   22.9630 N   0  0  0  0  0  0  0  0  0  0  0  0
    9.2040   14.1050   23.8530 C   0  0  0  0  0  0  0  0  0  0  0  0
    8.8630   12.6380   24.0020 C   0  0  0  0  0  0  0  0  0  0  0  0
    9.6310   11.6560   23.3900 C   0  0  0  0  0  0  0  0  0  0  0  0
    9.3370   10.3130   23.5660 C   0  0  0  0  0  0  0  0  0  0  0  0
    8.2860    9.9300   24.3760 C   0  0  0  0  0  0  0  0  0  0  0  0
    7.7920   12.2430   24.7970 C   0  0  0  0  0  0  0  0  0  0  0  0
    7.5110   10.8930   25.0030 C   0  0  0  0  0  0  0  0  0  0  0  0
    6.2170   10.4280   26.1120 S   0  0  0  0  0  0  0  0  0  0  0  0
    5.4950   11.9990   26.6020 C   0  0  0  0  0  0  0  0  0  0  0  0
 19 18  1  0
 18 17  1  0
 17 15  2  0
 15 14  1  0
 14 13  2  0
 13 12  1  0
 12 11  1  0
 11 10  1  0
 10  9  1  0
  9  5  1  0
  5  6  1  6
  8  6  1  0
  7  6  2  0
  5  4  1  0
  4  3  1  0
  3  2  1  0
 10  2  1  0
  2  1  2  0
 16 12  2  0
 17 16  1  0
M  END
>  <id>  (442) 
442

>  <inchikey>  (442) 
ZJIYWYXPZXQCRR-LLVKDONJSA-N

>  <alias>  (442) 
A4710a

>  <smiles>  (442) 
CSc1cccc(CN2C[C@H](C(N)=O)CCC2=O)c1

>  <path>  (442) 
/opt/xchem-fragalysis-2/maxwin/BulkDock/TARGETS/A71EV2A/aligned_files/A4710a/A4710a.pdb

>  <distance_score>  (442) 
None

>  <energy_score>  (442) 
None

>  <compound>  (442) 
ZJIYWYXPZXQCRR-UHFFFAOYSA-N

>  <compound_id>  (442) 
331

>  <target>  (442) 
A71EV2A

>  <tags>  (442) 
['GOOD count', 'MEDIOCRE count', '[Other] S1 site', 'hits', '[Other] S2 site', '[Other] P3 compound design', '[Other] upload_1 2025-02-12', 'Main status', '[Series] Piperidine series', 'BAD count']

>  <inspirations>  (442) 
None

>  <subsites>  (442) 
None

>  <reference>  (442) 


>  <observation_longname>  (442) 
A71EV2A-x4710_A_201_v1

>  <ConformerSites alias>  (442) 
1b - A0911/A/147

>  <CanonSites alias>  (442) 
1 - Active Site

>  <CrystalformSites alias>  (442) 
F1a - A0375/A/201

>  <Quatassemblies alias>  (442) 
A1 - monomer

>  <Crystalforms alias>  (442) 
F1 - A71_2A_open

>  <ConformerSites upload name>  (442) 
1b - A71EV2A-x0911/A/147

>  <CanonSites upload name>  (442) 
1 - A71EV2A-x0911/A/147/1

>  <CrystalformSites upload name>  (442) 
F1a - A71EV2A-x0375/A/201/1

>  <Quatassemblies upload name>  (442) 
A1 - monomer

>  <Crystalforms upload name>  (442) 
F1 - A71_2A_open

>  <ConformerSites short tag>  (442) 
1b - A0911/A/147

>  <CanonSites short tag>  (442) 
1 - A0911/A/147/1

>  <CrystalformSites short tag>  (442) 
F1a - A0375/A/201

>  <Quatassemblies short tag>  (442) 
A1 - monomer

>  <Crystalforms short tag>  (442) 
F1 - A71_2A_open

>  <Centroid res>  (442) 
A71EV2A-x0911/A/133/A_v1

>  <Experiment code>  (442) 
A71EV2A-x4710

>  <Pose>  (442) 
A4710a

$$$$
A4711a
     RDKit          3D

 19 20  0  0  0  0  0  0  0  0999 V2000
   11.1220   14.7520   25.1150 O   0  0  0  0  0  0  0  0  0  0  0  0
   11.0750   14.8840   23.8970 C   0  0  0  0  0  0  0  0  0  0  0  0
   12.2960   15.3370   23.1460 C   0  0  0  0  0  0  0  0  0  0  0  0
   12.0160   15.8910   21.7480 C   0  0  0  0  0  0  0  0  0  0  0  0
   11.0540   14.9720   20.9860 C   0  0  2  0  0  0  0  0  0  0  0  0
   10.8240   15.4800   19.5750 C   0  0  0  0  0  0  0  0  0  0  0  0
   10.4490   16.6400   19.3680 O   0  0  0  0  0  0  0  0  0  0  0  0
   11.0410   14.6090   18.6000 N   0  0  0  0  0  0  0  0  0  0  0  0
    9.7300   14.9310   21.7640 C   0  0  0  0  0  0  0  0  0  0  0  0
    9.9370   14.6800   23.1970 N   0  0  0  0  0  0  0  0  0  0  0  0
    8.7100   14.2960   23.9000 C   0  0  0  0  0  0  0  0  0  0  0  0
    8.5160   12.8050   24.0550 C   0  0  0  0  0  0  0  0  0  0  0  0
    9.3480   11.8970   23.4150 C   0  0  0  0  0  0  0  0  0  0  0  0
    9.1730   10.5340   23.5870 C   0  0  0  0  0  0  0  0  0  0  0  0
    8.1590   10.0590   24.4020 C   0  0  0  0  0  0  0  0  0  0  0  0
    7.4950   12.3220   24.8700 C   0  0  0  0  0  0  0  0  0  0  0  0
    7.3110   10.9520   25.0400 C   0  0  0  0  0  0  0  0  0  0  0  0
    5.9960   10.3300   26.0450 S   0  0  0  0  0  0  0  0  0  0  0  0
    5.3070   11.7990   26.8080 C   0  0  0  0  0  0  0  0  0  0  0  0
 19 18  1  0
 18 17  1  0
 17 15  2  0
 15 14  1  0
 14 13  2  0
 13 12  1  0
 12 11  1  0
 11 10  1  0
 10  9  1  0
  9  5  1  0
  5  6  1  6
  8  6  1  0
  7  6  2  0
  5  4  1  0
  4  3  1  0
  3  2  1  0
 10  2  1  0
  2  1  2  0
 16 12  2  0
 17 16  1  0
M  END
>  <id>  (443) 
443

>  <inchikey>  (443) 
ZJIYWYXPZXQCRR-NSHDSACASA-N

>  <alias>  (443) 
A4711a

>  <smiles>  (443) 
CSc1cccc(CN2C[C@@H](C(N)=O)CCC2=O)c1

>  <path>  (443) 
/opt/xchem-fragalysis-2/maxwin/BulkDock/TARGETS/A71EV2A/aligned_files/A4711a/A4711a.pdb

>  <distance_score>  (443) 
None

>  <energy_score>  (443) 
None

>  <compound>  (443) 
ZJIYWYXPZXQCRR-UHFFFAOYSA-N

>  <compound_id>  (443) 
331

>  <target>  (443) 
A71EV2A

>  <tags>  (443) 
['GOOD count', 'MEDIOCRE count', '[Other] S1 site', 'hits', '[Other] S2 site', '[Other] upload_6_2025-02-13', '[Other] P3 compound design', '[Other] upload_1 2025-02-12', 'Main status', '[Series] Piperidine series', 'BAD count']

>  <inspirations>  (443) 
None

>  <subsites>  (443) 
None

>  <reference>  (443) 


>  <observation_longname>  (443) 
A71EV2A-x4711_A_201_v1

>  <ConformerSites alias>  (443) 
1b - A0911/A/147

>  <CanonSites alias>  (443) 
1 - Active Site

>  <CrystalformSites alias>  (443) 
F4f - A0836/A/301

>  <Quatassemblies alias>  (443) 
A1 - monomer

>  <Crystalforms alias>  (443) 
F4 - A71_2A_new_model_x2721_4.1_ref3

>  <ConformerSites upload name>  (443) 
1b - A71EV2A-x0911/A/147

>  <CanonSites upload name>  (443) 
1 - A71EV2A-x0911/A/147/1

>  <CrystalformSites upload name>  (443) 
F4f - A71EV2A-x0836/A/301/1

>  <Quatassemblies upload name>  (443) 
A1 - monomer

>  <Crystalforms upload name>  (443) 
F4 - A71_2A_new_model_x2721_4.1_ref3

>  <ConformerSites short tag>  (443) 
1b - A0911/A/147

>  <CanonSites short tag>  (443) 
1 - A0911/A/147/1

>  <CrystalformSites short tag>  (443) 
F4f - A0836/A/301

>  <Quatassemblies short tag>  (443) 
A1 - monomer

>  <Crystalforms short tag>  (443) 
F4 - A71_2A_new_model_x2721_4.1_ref3

>  <Centroid res>  (443) 
A71EV2A-x0911/A/133/A_v1

>  <Experiment code>  (443) 
A71EV2A-x4711

>  <Pose>  (443) 
A4711a

$$$$
A4712a
     RDKit          3D

 21 22  0  0  0  0  0  0  0  0999 V2000
   10.3210   16.5610   19.1690 O   0  0  0  0  0  0  0  0  0  0  0  0
   10.7460   15.4250   19.4160 C   0  0  0  0  0  0  0  0  0  0  0  0
   11.2420   14.6220   18.4840 N   0  0  0  0  0  0  0  0  0  0  0  0
   10.6770   14.8490   20.8180 C   0  0  1  0  0  0  0  0  0  0  0  0
   11.9210   15.2260   21.6440 C   0  0  0  0  0  0  0  0  0  0  0  0
   11.8850   14.5460   23.0140 C   0  0  0  0  0  0  0  0  0  0  0  0
   10.5820   14.8340   23.7480 C   0  0  0  0  0  0  0  0  0  0  0  0
    9.4220   15.2490   21.6050 C   0  0  0  0  0  0  0  0  0  0  0  0
    9.4010   14.5760   22.9090 N   0  0  0  0  0  0  0  0  0  0  0  0
    8.2880   13.8200   23.2230 C   0  0  0  0  0  0  0  0  0  0  0  0
    7.5460   13.3950   22.3580 O   0  0  0  0  0  0  0  0  0  0  0  0
    8.0280   13.5720   24.5520 N   0  0  0  0  0  0  0  0  0  0  0  0
    8.1460   14.6710   25.5150 C   0  0  0  0  0  0  0  0  0  0  0  0
    7.3940   12.3720   25.0070 C   0  0  0  0  0  0  0  0  0  0  0  0
    7.8750   11.1080   24.6450 C   0  0  0  0  0  0  0  0  0  0  0  0
    9.3690   11.0210   23.6990 S   0  0  0  0  0  0  0  0  0  0  0  0
    9.5730    9.2340   23.4040 C   0  0  0  0  0  0  0  0  0  0  0  0
    6.2120   12.4740   25.7400 C   0  0  0  0  0  0  0  0  0  0  0  0
    5.5150   11.3320   26.0920 C   0  0  0  0  0  0  0  0  0  0  0  0
    5.9880   10.0930   25.7380 C   0  0  0  0  0  0  0  0  0  0  0  0
    7.1690    9.9710   25.0190 C   0  0  0  0  0  0  0  0  0  0  0  0
 17 16  1  0
 16 15  1  0
 15 21  2  0
 21 20  1  0
 20 19  2  0
 19 18  1  0
 18 14  2  0
 15 14  1  0
 14 12  1  0
 13 12  1  0
 12 10  1  0
 11 10  2  0
 10  9  1  0
  9  7  1  0
  7  6  1  0
  6  5  1  0
  5  4  1  0
  4  2  1  6
  3  2  1  0
  2  1  2  0
  8  4  1  0
  9  8  1  0
M  END
>  <id>  (444) 
444

>  <inchikey>  (444) 
ZLXAWJCPNCQXOK-NSHDSACASA-N

>  <alias>  (444) 
A4712a

>  <smiles>  (444) 
CSc1ccccc1N(C)C(=O)N1CCC[C@H](C(N)=O)C1

>  <path>  (444) 
/opt/xchem-fragalysis-2/maxwin/BulkDock/TARGETS/A71EV2A/aligned_files/A4712a/A4712a.pdb

>  <distance_score>  (444) 
None

>  <energy_score>  (444) 
None

>  <compound>  (444) 
ZLXAWJCPNCQXOK-UHFFFAOYSA-N

>  <compound_id>  (444) 
332

>  <target>  (444) 
A71EV2A

>  <tags>  (444) 
['GOOD count', 'MEDIOCRE count', '[Other] S1 site', 'hits', '[Other] S2 site', '[Other] P3 compound design', '[Other] upload_1 2025-02-12', 'Main status', '[Series] Piperidine series', 'BAD count']

>  <inspirations>  (444) 
None

>  <subsites>  (444) 
None

>  <reference>  (444) 


>  <observation_longname>  (444) 
A71EV2A-x4712_A_201_v1

>  <ConformerSites alias>  (444) 
1b - A0911/A/147

>  <CanonSites alias>  (444) 
1 - Active Site

>  <CrystalformSites alias>  (444) 
F1a - A0375/A/201

>  <Quatassemblies alias>  (444) 
A1 - monomer

>  <Crystalforms alias>  (444) 
F1 - A71_2A_open

>  <ConformerSites upload name>  (444) 
1b - A71EV2A-x0911/A/147

>  <CanonSites upload name>  (444) 
1 - A71EV2A-x0911/A/147/1

>  <CrystalformSites upload name>  (444) 
F1a - A71EV2A-x0375/A/201/1

>  <Quatassemblies upload name>  (444) 
A1 - monomer

>  <Crystalforms upload name>  (444) 
F1 - A71_2A_open

>  <ConformerSites short tag>  (444) 
1b - A0911/A/147

>  <CanonSites short tag>  (444) 
1 - A0911/A/147/1

>  <CrystalformSites short tag>  (444) 
F1a - A0375/A/201

>  <Quatassemblies short tag>  (444) 
A1 - monomer

>  <Crystalforms short tag>  (444) 
F1 - A71_2A_open

>  <Centroid res>  (444) 
A71EV2A-x0911/A/133/A_v1

>  <Experiment code>  (444) 
A71EV2A-x4712

>  <Pose>  (444) 
A4712a

$$$$
A4715a
     RDKit          3D

 16 17  0  0  0  0  0  0  0  0999 V2000
    7.7530   13.9460   22.6790 O   0  0  0  0  0  0  0  0  0  0  0  0
    8.8440   13.8920   23.2200 C   0  0  0  0  0  0  0  0  0  0  0  0
    9.9810   14.2160   22.5720 N   0  0  0  0  0  0  0  0  0  0  0  0
   11.4440   14.1760   22.6590 C   0  0  0  0  0  0  0  0  0  0  0  0
   11.5020   14.9370   21.3250 C   0  0  0  0  0  0  0  0  0  0  0  0
   12.2510   14.3280   20.2700 O   0  0  0  0  0  0  0  0  0  0  0  0
    9.9820   14.7560   21.2090 C   0  0  0  0  0  0  0  0  0  0  0  0
    8.9820   13.4400   24.6620 C   0  0  0  0  0  0  0  0  0  0  0  0
    7.9680   12.3790   25.0290 C   0  0  0  0  0  0  0  0  0  0  0  0
    8.0520   11.0680   24.5480 C   0  0  0  0  0  0  0  0  0  0  0  0
    9.2960   10.7180   23.3450 S   0  0  0  0  0  0  0  0  0  0  0  0
    9.2270    8.9250   23.2250 C   0  0  0  0  0  0  0  0  0  0  0  0
    6.9650   12.6740   25.9490 C   0  0  0  0  0  0  0  0  0  0  0  0
    6.0970   11.6940   26.3990 C   0  0  0  0  0  0  0  0  0  0  0  0
    6.2090   10.4060   25.9400 C   0  0  0  0  0  0  0  0  0  0  0  0
    7.1780   10.0840   25.0090 C   0  0  0  0  0  0  0  0  0  0  0  0
 12 11  1  0
 11 10  1  0
 10 16  2  0
 16 15  1  0
 15 14  2  0
 14 13  1  0
 13  9  2  0
 10  9  1  0
  9  8  1  0
  8  2  1  0
  2  1  2  0
  3  2  1  0
  3  7  1  0
  7  5  1  0
  6  5  1  0
  5  4  1  0
  4  3  1  0
M  END
>  <id>  (445) 
445

>  <inchikey>  (445) 
YMOIRNXOTTYMES-UHFFFAOYSA-N

>  <alias>  (445) 
A4715a

>  <smiles>  (445) 
CSc1ccccc1CC(=O)N1CC(O)C1

>  <path>  (445) 
/opt/xchem-fragalysis-2/maxwin/BulkDock/TARGETS/A71EV2A/aligned_files/A4715a/A4715a_hippo.pdb

>  <distance_score>  (445) 
None

>  <energy_score>  (445) 
None

>  <compound>  (445) 
YMOIRNXOTTYMES-UHFFFAOYSA-N

>  <compound_id>  (445) 
333

>  <target>  (445) 
A71EV2A

>  <tags>  (445) 
['GOOD count', 'MEDIOCRE count', '[Other] S1 site', 'hits', '[Other] S2 site', '[Other] upload_6_2025-02-13', '[Other] P3 compound design', '[Other] upload_1 2025-02-12', 'Main status', '[Series] Piperidine series', 'BAD count']

>  <inspirations>  (445) 
None

>  <subsites>  (445) 
None

>  <reference>  (445) 


>  <observation_longname>  (445) 
A71EV2A-x4715_A_201_v1

>  <ConformerSites alias>  (445) 
1b - A0911/A/147

>  <CanonSites alias>  (445) 
1 - Active Site

>  <CrystalformSites alias>  (445) 
F5i - A3175/A/201

>  <Quatassemblies alias>  (445) 
A1 - monomer

>  <Crystalforms alias>  (445) 
F5 - A71EV2A_x3178_new_long_dials_041024

>  <ConformerSites upload name>  (445) 
1b - A71EV2A-x0911/A/147

>  <CanonSites upload name>  (445) 
1 - A71EV2A-x0911/A/147/1

>  <CrystalformSites upload name>  (445) 
F5i - A71EV2A-x3175/A/201/1

>  <Quatassemblies upload name>  (445) 
A1 - monomer

>  <Crystalforms upload name>  (445) 
F5 - A71EV2A_x3178_new_long_dials_041024

>  <ConformerSites short tag>  (445) 
1b - A0911/A/147

>  <CanonSites short tag>  (445) 
1 - A0911/A/147/1

>  <CrystalformSites short tag>  (445) 
F5i - A3175/A/201

>  <Quatassemblies short tag>  (445) 
A1 - monomer

>  <Crystalforms short tag>  (445) 
F5 - A71EV2A_x3178_new_long_dials_041024

>  <Centroid res>  (445) 
A71EV2A-x0911/A/133/A_v1

>  <Experiment code>  (445) 
A71EV2A-x4715

>  <Pose>  (445) 
A4715a

$$$$
A4721a
     RDKit          3D

 18 19  0  0  0  0  0  0  0  0999 V2000
    5.3960   13.3510   21.0630 O   0  0  0  0  0  0  0  0  0  0  0  0
    5.6740   14.2190   21.8790 C   0  0  0  0  0  0  0  0  0  0  0  0
    4.8280   15.1710   22.1880 N   0  0  0  0  0  0  0  0  0  0  0  0
    4.7360   15.8040   23.4730 C   0  0  0  0  0  0  0  0  0  0  0  0
    6.1220   16.1540   23.9230 C   0  0  0  0  0  0  0  0  0  0  0  0
    6.9780   14.1850   22.6210 C   0  0  0  0  0  0  0  0  0  0  0  0
    7.0310   15.0060   23.8280 N   0  0  0  0  0  0  0  0  0  0  0  0
    7.9620   14.7810   24.7730 C   0  0  0  0  0  0  0  0  0  0  0  0
    8.1260   15.5080   25.7400 O   0  0  0  0  0  0  0  0  0  0  0  0
    8.7610   13.5150   24.5870 C   0  0  0  0  0  0  0  0  0  0  0  0
    7.9720   12.4060   25.2210 C   0  0  0  0  0  0  0  0  0  0  0  0
    8.0790   11.0840   24.7970 C   0  0  0  0  0  0  0  0  0  0  0  0
    9.2150   10.6690   23.5050 S   0  0  0  0  0  0  0  0  0  0  0  0
    8.9400    8.9280   23.2450 C   0  0  0  0  0  0  0  0  0  0  0  0
    7.0400   12.7140   26.2100 C   0  0  0  0  0  0  0  0  0  0  0  0
    6.2280   11.7470   26.7600 C   0  0  0  0  0  0  0  0  0  0  0  0
    6.3370   10.4660   26.3410 C   0  0  0  0  0  0  0  0  0  0  0  0
    7.2640   10.1350   25.3660 C   0  0  0  0  0  0  0  0  0  0  0  0
 14 13  1  0
 13 12  1  0
 12 18  2  0
 18 17  1  0
 17 16  2  0
 16 15  1  0
 15 11  2  0
 12 11  1  0
 11 10  1  0
 10  8  1  0
  9  8  2  0
  8  7  1  0
  7  5  1  0
  5  4  1  0
  4  3  1  0
  3  2  1  0
  2  1  2  0
  6  2  1  0
  7  6  1  0
M  END
>  <id>  (446) 
446

>  <inchikey>  (446) 
DSPNJSCWZPVLHX-UHFFFAOYSA-N

>  <alias>  (446) 
A4721a

>  <smiles>  (446) 
CSc1ccccc1CC(=O)N1CCNC(=O)C1

>  <path>  (446) 
/opt/xchem-fragalysis-2/maxwin/BulkDock/TARGETS/A71EV2A/aligned_files/A4721a/A4721a.pdb

>  <distance_score>  (446) 
None

>  <energy_score>  (446) 
None

>  <compound>  (446) 
DSPNJSCWZPVLHX-UHFFFAOYSA-N

>  <compound_id>  (446) 
334

>  <target>  (446) 
A71EV2A

>  <tags>  (446) 
['GOOD count', 'MEDIOCRE count', '[Other] S1 site', 'hits', '[Other] S2 site', '[Other] upload_6_2025-02-13', '[Other] P3 compound design', '[Other] upload_1 2025-02-12', 'Main status', '[Series] Piperidine series', 'BAD count']

>  <inspirations>  (446) 
None

>  <subsites>  (446) 
None

>  <reference>  (446) 


>  <observation_longname>  (446) 
A71EV2A-x4721_A_201_v1

>  <ConformerSites alias>  (446) 
1b - A0911/A/147

>  <CanonSites alias>  (446) 
1 - Active Site

>  <CrystalformSites alias>  (446) 
F5i - A3175/A/201

>  <Quatassemblies alias>  (446) 
A1 - monomer

>  <Crystalforms alias>  (446) 
F5 - A71EV2A_x3178_new_long_dials_041024

>  <ConformerSites upload name>  (446) 
1b - A71EV2A-x0911/A/147

>  <CanonSites upload name>  (446) 
1 - A71EV2A-x0911/A/147/1

>  <CrystalformSites upload name>  (446) 
F5i - A71EV2A-x3175/A/201/1

>  <Quatassemblies upload name>  (446) 
A1 - monomer

>  <Crystalforms upload name>  (446) 
F5 - A71EV2A_x3178_new_long_dials_041024

>  <ConformerSites short tag>  (446) 
1b - A0911/A/147

>  <CanonSites short tag>  (446) 
1 - A0911/A/147/1

>  <CrystalformSites short tag>  (446) 
F5i - A3175/A/201

>  <Quatassemblies short tag>  (446) 
A1 - monomer

>  <Crystalforms short tag>  (446) 
F5 - A71EV2A_x3178_new_long_dials_041024

>  <Centroid res>  (446) 
A71EV2A-x0911/A/133/A_v1

>  <Experiment code>  (446) 
A71EV2A-x4721

>  <Pose>  (446) 
A4721a

$$$$
A4724a
     RDKit          3D

 22 23  0  0  0  0  0  0  0  0999 V2000
   10.1900   16.7750   19.0860 O   0  0  0  0  0  0  0  0  0  0  0  0
   10.5450   15.6190   19.3570 C   0  0  0  0  0  0  0  0  0  0  0  0
   10.9660   14.7640   18.4440 N   0  0  0  0  0  0  0  0  0  0  0  0
   10.5520   15.0950   20.7820 C   0  0  1  0  0  0  0  0  0  0  0  0
   11.7480   15.5920   21.5660 C   0  0  0  0  0  0  0  0  0  0  0  0
   12.8740   15.1390   20.9370 F   0  0  0  0  0  0  0  0  0  0  0  0
   11.8390   16.9590   21.5080 F   0  0  0  0  0  0  0  0  0  0  0  0
   11.7710   15.1460   23.0090 C   0  0  0  0  0  0  0  0  0  0  0  0
   10.4310   15.3310   23.7040 C   0  0  0  0  0  0  0  0  0  0  0  0
    9.2410   15.3200   21.5580 C   0  0  0  0  0  0  0  0  0  0  0  0
    9.3420   14.7490   22.9060 N   0  0  0  0  0  0  0  0  0  0  0  0
    8.5040   13.7810   23.3490 C   0  0  0  0  0  0  0  0  0  0  0  0
    7.6400   13.2900   22.6380 O   0  0  0  0  0  0  0  0  0  0  0  0
    8.6680   13.3300   24.7880 C   0  0  0  0  0  0  0  0  0  0  0  0
    7.8170   12.1230   25.1120 C   0  0  0  0  0  0  0  0  0  0  0  0
    8.1010   10.8370   24.6270 C   0  0  0  0  0  0  0  0  0  0  0  0
    9.4620   10.6520   23.5100 S   0  0  0  0  0  0  0  0  0  0  0  0
    9.6250    8.8780   23.3370 C   0  0  0  0  0  0  0  0  0  0  0  0
    6.7490   12.2740   26.0000 C   0  0  0  0  0  0  0  0  0  0  0  0
    6.0120   11.1860   26.4310 C   0  0  0  0  0  0  0  0  0  0  0  0
    6.3040    9.9290   25.9570 C   0  0  0  0  0  0  0  0  0  0  0  0
    7.3360    9.7470   25.0470 C   0  0  0  0  0  0  0  0  0  0  0  0
 18 17  1  0
 17 16  1  0
 16 22  2  0
 22 21  1  0
 21 20  2  0
 20 19  1  0
 19 15  2  0
 16 15  1  0
 15 14  1  0
 14 12  1  0
 13 12  2  0
 12 11  1  0
 11  9  1  0
  9  8  1  0
  8  5  1  0
  6  5  1  0
  7  5  1  0
  5  4  1  0
  4  2  1  6
  3  2  1  0
  2  1  2  0
 10  4  1  0
 11 10  1  0
M  END
>  <id>  (447) 
447

>  <inchikey>  (447) 
QMMKKHPCWQJEDH-NSHDSACASA-N

>  <alias>  (447) 
A4724a

>  <smiles>  (447) 
CSc1ccccc1CC(=O)N1CCC(F)(F)[C@H](C(N)=O)C1

>  <path>  (447) 
/opt/xchem-fragalysis-2/maxwin/BulkDock/TARGETS/A71EV2A/aligned_files/A4724a/A4724a.pdb

>  <distance_score>  (447) 
None

>  <energy_score>  (447) 
None

>  <compound>  (447) 
QMMKKHPCWQJEDH-UHFFFAOYSA-N

>  <compound_id>  (447) 
335

>  <target>  (447) 
A71EV2A

>  <tags>  (447) 
['GOOD count', 'MEDIOCRE count', '[Other] S1 site', 'hits', '[Other] S2 site', '[Other] P3 compound design', '[Other] upload_1 2025-02-12', 'Main status', '[Series] Piperidine series', 'BAD count']

>  <inspirations>  (447) 
None

>  <subsites>  (447) 
None

>  <reference>  (447) 


>  <observation_longname>  (447) 
A71EV2A-x4724_A_201_v1

>  <ConformerSites alias>  (447) 
1b - A0911/A/147

>  <CanonSites alias>  (447) 
1 - Active Site

>  <CrystalformSites alias>  (447) 
F8h - A0884/A/147

>  <Quatassemblies alias>  (447) 
A1 - monomer

>  <Crystalforms alias>  (447) 
F8 - A712A_x4271_2.1_refmac1_1st_ref

>  <ConformerSites upload name>  (447) 
1b - A71EV2A-x0911/A/147

>  <CanonSites upload name>  (447) 
1 - A71EV2A-x0911/A/147/1

>  <CrystalformSites upload name>  (447) 
F8h - A71EV2A-x0884/A/147/1

>  <Quatassemblies upload name>  (447) 
A1 - monomer

>  <Crystalforms upload name>  (447) 
F8 - A712A_x4271_2.1_refmac1_1st_ref

>  <ConformerSites short tag>  (447) 
1b - A0911/A/147

>  <CanonSites short tag>  (447) 
1 - A0911/A/147/1

>  <CrystalformSites short tag>  (447) 
F8h - A0884/A/147

>  <Quatassemblies short tag>  (447) 
A1 - monomer

>  <Crystalforms short tag>  (447) 
F8 - A712A_x4271_2.1_refmac1_1st_ref

>  <Centroid res>  (447) 
A71EV2A-x0911/A/133/A_v1

>  <Experiment code>  (447) 
A71EV2A-x4724

>  <Pose>  (447) 
A4724a

$$$$
A4727a
     RDKit          3D

 21 22  0  0  0  0  0  0  0  0999 V2000
   10.3870   16.7620   19.0940 O   0  0  0  0  0  0  0  0  0  0  0  0
   10.6620   15.5800   19.3030 C   0  0  0  0  0  0  0  0  0  0  0  0
   10.9030   14.7140   18.3350 N   0  0  0  0  0  0  0  0  0  0  0  0
   10.7140   15.0260   20.7150 C   0  0  1  0  0  0  0  0  0  0  0  0
   11.7810   15.7250   21.5530 C   0  0  0  0  0  0  0  0  0  0  0  0
   11.8260   15.1520   22.9650 C   0  0  0  0  0  0  0  0  0  0  0  0
   10.4600   15.1930   23.6160 C   0  0  0  0  0  0  0  0  0  0  0  0
    9.3770   15.2540   21.4080 C   0  0  0  0  0  0  0  0  0  0  0  0
    9.4210   14.6490   22.7370 N   0  0  0  0  0  0  0  0  0  0  0  0
    8.6240   13.5960   23.0440 C   0  0  0  0  0  0  0  0  0  0  0  0
    7.6620   13.2890   22.3720 O   0  0  0  0  0  0  0  0  0  0  0  0
    8.9700   12.9070   24.1710 N   0  0  0  0  0  0  0  0  0  0  0  0
    7.9770   12.5500   25.1000 C   0  0  0  0  0  0  0  0  0  0  0  0
    7.1660   13.4500   25.8720 C   0  0  0  0  0  0  0  0  0  0  0  0
    7.2280   14.9360   25.9920 C   0  0  0  0  0  0  0  0  0  0  0  0
    6.2700   12.7790   26.5660 N   0  0  0  0  0  0  0  0  0  0  0  0
    6.4920   11.4700   26.2800 N   0  0  0  0  0  0  0  0  0  0  0  0
    5.6410   10.4440   26.8680 C   0  0  0  0  0  0  0  0  0  0  0  0
    7.5200   11.2950   25.4140 C   0  0  0  0  0  0  0  0  0  0  0  0
    8.0120    9.6970   24.9520 S   0  0  0  0  0  0  0  0  0  0  0  0
    9.5370    9.9660   24.1280 C   0  0  0  0  0  0  0  0  0  0  0  0
 21 20  1  0
 20 19  1  0
 19 13  2  0
 13 12  1  0
 12 10  1  0
 11 10  2  0
 10  9  1  0
  9  7  1  0
  7  6  1  0
  6  5  1  0
  5  4  1  0
  4  2  1  6
  3  2  1  0
  2  1  2  0
  8  4  1  0
  9  8  1  0
 14 13  1  0
 15 14  1  0
 16 14  2  0
 17 16  1  0
 19 17  1  0
 18 17  1  0
M  END
>  <id>  (448) 
448

>  <inchikey>  (448) 
FQKAQMHJXGTAAH-VIFPVBQESA-N

>  <alias>  (448) 
A4727a

>  <smiles>  (448) 
CSc1c(NC(=O)N2CCC[C@H](C(N)=O)C2)c(C)nn1C

>  <path>  (448) 
/opt/xchem-fragalysis-2/maxwin/BulkDock/TARGETS/A71EV2A/aligned_files/A4727a/A4727a.pdb

>  <distance_score>  (448) 
None

>  <energy_score>  (448) 
None

>  <compound>  (448) 
FQKAQMHJXGTAAH-UHFFFAOYSA-N

>  <compound_id>  (448) 
336

>  <target>  (448) 
A71EV2A

>  <tags>  (448) 
['GOOD count', 'MEDIOCRE count', '[Other] S1 site', 'hits', '[Other] S2 site', '[Other] upload_6_2025-02-13', '[Other] P3 compound design', '[Other] upload_1 2025-02-12', 'Main status', '[Series] Piperidine series', 'BAD count']

>  <inspirations>  (448) 
None

>  <subsites>  (448) 
None

>  <reference>  (448) 


>  <observation_longname>  (448) 
A71EV2A-x4727_A_201_v1

>  <ConformerSites alias>  (448) 
1b - A0911/A/147

>  <CanonSites alias>  (448) 
1 - Active Site

>  <CrystalformSites alias>  (448) 
F8h - A0884/A/147

>  <Quatassemblies alias>  (448) 
A1 - monomer

>  <Crystalforms alias>  (448) 
F8 - A712A_x4271_2.1_refmac1_1st_ref

>  <ConformerSites upload name>  (448) 
1b - A71EV2A-x0911/A/147

>  <CanonSites upload name>  (448) 
1 - A71EV2A-x0911/A/147/1

>  <CrystalformSites upload name>  (448) 
F8h - A71EV2A-x0884/A/147/1

>  <Quatassemblies upload name>  (448) 
A1 - monomer

>  <Crystalforms upload name>  (448) 
F8 - A712A_x4271_2.1_refmac1_1st_ref

>  <ConformerSites short tag>  (448) 
1b - A0911/A/147

>  <CanonSites short tag>  (448) 
1 - A0911/A/147/1

>  <CrystalformSites short tag>  (448) 
F8h - A0884/A/147

>  <Quatassemblies short tag>  (448) 
A1 - monomer

>  <Crystalforms short tag>  (448) 
F8 - A712A_x4271_2.1_refmac1_1st_ref

>  <Centroid res>  (448) 
A71EV2A-x0911/A/133/A_v1

>  <Experiment code>  (448) 
A71EV2A-x4727

>  <Pose>  (448) 
A4727a

$$$$
A4735a
     RDKit          3D

 21 23  0  0  0  0  0  0  0  0999 V2000
    8.4760   13.3900   22.7820 O   0  0  0  0  0  0  0  0  0  0  0  0
    9.3560   13.5950   23.5540 C   0  0  0  0  0  0  0  0  0  0  0  0
    9.1110   13.1850   24.9920 C   0  0  0  0  0  0  0  0  0  0  0  0
    7.9930   12.1560   25.0900 C   0  0  0  0  0  0  0  0  0  0  0  0
    6.8460   12.4550   25.8250 C   0  0  0  0  0  0  0  0  0  0  0  0
    5.9130   11.4870   26.1170 C   0  0  0  0  0  0  0  0  0  0  0  0
    6.0940   10.1950   25.6890 C   0  0  0  0  0  0  0  0  0  0  0  0
    7.1830    9.8700   24.8990 C   0  0  0  0  0  0  0  0  0  0  0  0
    8.1260   10.8540   24.5870 C   0  0  0  0  0  0  0  0  0  0  0  0
    9.4660   10.5020   23.4910 S   0  0  0  0  0  0  0  0  0  0  0  0
    9.1500    8.7560   22.9340 C   0  0  0  0  0  0  0  0  0  0  0  0
   10.5160   14.1250   23.0740 N   0  0  0  0  0  0  0  0  0  0  0  0
   10.4610   14.3780   21.6350 C   0  0  2  0  0  0  0  0  0  0  0  0
   11.9440   14.3960   21.2190 C   0  0  0  0  0  0  0  0  0  0  0  0
   12.6960   14.8530   22.4770 C   0  0  0  0  0  0  0  0  0  0  0  0
   11.7820   14.5840   23.6630 C   0  0  0  0  0  0  0  0  0  0  0  0
    9.8210   15.6740   21.1940 C   0  0  0  0  0  0  0  0  0  0  0  0
    9.6760   16.7950   21.9660 N   0  0  0  0  0  0  0  0  0  0  0  0
    9.1650   17.7610   21.1970 C   0  0  0  0  0  0  0  0  0  0  0  0
    8.9450   17.3240   19.9660 N   0  0  0  0  0  0  0  0  0  0  0  0
    9.3620   16.0210   19.9540 C   0  0  0  0  0  0  0  0  0  0  0  0
 11 10  1  0
 10  9  1  0
  9  8  1  0
  8  7  2  0
  7  6  1  0
  6  5  2  0
  5  4  1  0
  9  4  2  0
  4  3  1  0
  3  2  1  0
  2  1  2  0
 12  2  1  0
 12 16  1  0
 16 15  1  0
 15 14  1  0
 14 13  1  0
 13 12  1  0
 13 17  1  1
 17 21  2  0
 21 20  1  0
 20 19  2  0
 19 18  1  0
 18 17  1  0
M  END
>  <id>  (449) 
449

>  <inchikey>  (449) 
IQMOOOOGYWCBAO-CQSZACIVSA-N

>  <alias>  (449) 
A4735a

>  <smiles>  (449) 
CSc1ccccc1CC(=O)N1CCC[C@@H]1c1cnc[nH]1

>  <path>  (449) 
/opt/xchem-fragalysis-2/maxwin/BulkDock/TARGETS/A71EV2A/aligned_files/A4735a/A4735a.pdb

>  <distance_score>  (449) 
None

>  <energy_score>  (449) 
None

>  <compound>  (449) 
IQMOOOOGYWCBAO-UHFFFAOYSA-N

>  <compound_id>  (449) 
337

>  <target>  (449) 
A71EV2A

>  <tags>  (449) 
['GOOD count', 'MEDIOCRE count', '[Other] S1 site', 'hits', '[Other] S2 site', '[Other] P3 compound design', '[Other] upload_1 2025-02-12', 'Main status', '[Series] Piperidine series', 'BAD count']

>  <inspirations>  (449) 
None

>  <subsites>  (449) 
None

>  <reference>  (449) 


>  <observation_longname>  (449) 
A71EV2A-x4735_A_201_v1

>  <ConformerSites alias>  (449) 
1b - A0911/A/147

>  <CanonSites alias>  (449) 
1 - Active Site

>  <CrystalformSites alias>  (449) 
F5i - A3175/A/201

>  <Quatassemblies alias>  (449) 
A1 - monomer

>  <Crystalforms alias>  (449) 
F5 - A71EV2A_x3178_new_long_dials_041024

>  <ConformerSites upload name>  (449) 
1b - A71EV2A-x0911/A/147

>  <CanonSites upload name>  (449) 
1 - A71EV2A-x0911/A/147/1

>  <CrystalformSites upload name>  (449) 
F5i - A71EV2A-x3175/A/201/1

>  <Quatassemblies upload name>  (449) 
A1 - monomer

>  <Crystalforms upload name>  (449) 
F5 - A71EV2A_x3178_new_long_dials_041024

>  <ConformerSites short tag>  (449) 
1b - A0911/A/147

>  <CanonSites short tag>  (449) 
1 - A0911/A/147/1

>  <CrystalformSites short tag>  (449) 
F5i - A3175/A/201

>  <Quatassemblies short tag>  (449) 
A1 - monomer

>  <Crystalforms short tag>  (449) 
F5 - A71EV2A_x3178_new_long_dials_041024

>  <Centroid res>  (449) 
A71EV2A-x0911/A/133/A_v1

>  <Experiment code>  (449) 
A71EV2A-x4735

>  <Pose>  (449) 
A4735a

$$$$
A4736a
     RDKit          3D

 17 18  0  0  0  0  0  0  0  0999 V2000
    9.9730   16.4440   19.1970 O   0  0  0  0  0  0  0  0  0  0  0  0
   10.4710   15.3610   19.5160 C   0  0  0  0  0  0  0  0  0  0  0  0
   11.1360   14.5860   18.6640 N   0  0  0  0  0  0  0  0  0  0  0  0
   10.3430   14.8340   20.9340 C   0  0  1  0  0  0  0  0  0  0  0  0
   11.4060   15.4560   21.8480 C   0  0  0  0  0  0  0  0  0  0  0  0
   11.3350   14.8390   23.2420 C   0  0  0  0  0  0  0  0  0  0  0  0
    9.9480   15.0350   23.8200 C   0  0  0  0  0  0  0  0  0  0  0  0
    8.9470   15.0330   21.5380 C   0  0  0  0  0  0  0  0  0  0  0  0
    8.8990   14.5300   22.9160 N   0  0  0  0  0  0  0  0  0  0  0  0
    7.8900   13.7300   23.3270 C   0  0  0  0  0  0  0  0  0  0  0  0
    7.2040   13.1280   22.5270 O   0  0  0  0  0  0  0  0  0  0  0  0
    7.5450   13.7340   24.8110 C   0  0  1  0  0  0  0  0  0  0  0  0
    6.3090   12.9890   25.2530 C   0  0  0  0  0  0  0  0  0  0  0  0
    7.6570   12.4540   25.6150 C   0  0  1  0  0  0  0  0  0  0  0  0
    8.0840   11.1080   25.0440 C   0  0  0  0  0  0  0  0  0  0  0  0
    9.8520   10.8650   24.7750 S   0  0  0  0  0  0  0  0  0  0  0  0
    9.8540    9.3230   23.8620 C   0  0  0  0  0  0  0  0  0  0  0  0
 17 16  1  0
 16 15  1  0
 14 15  1  6
 14 13  1  0
 13 12  1  0
 14 12  1  0
 12 10  1  6
 11 10  2  0
 10  9  1  0
  9  7  1  0
  7  6  1  0
  6  5  1  0
  5  4  1  0
  4  2  1  6
  3  2  1  0
  2  1  2  0
  8  4  1  0
  9  8  1  0
M  END
>  <id>  (450) 
450

>  <inchikey>  (450) 
JJJYSLKCPGSMLG-GUBZILKMSA-N

>  <alias>  (450) 
A4736a

>  <smiles>  (450) 
CSC[C@@H]1C[C@@H]1C(=O)N1CCC[C@H](C(N)=O)C1

>  <path>  (450) 
/opt/xchem-fragalysis-2/maxwin/BulkDock/TARGETS/A71EV2A/aligned_files/A4736a/A4736a.pdb

>  <distance_score>  (450) 
None

>  <energy_score>  (450) 
None

>  <compound>  (450) 
JJJYSLKCPGSMLG-UHFFFAOYSA-N

>  <compound_id>  (450) 
338

>  <target>  (450) 
A71EV2A

>  <tags>  (450) 
['GOOD count', 'MEDIOCRE count', '[Other] S1 site', 'hits', '[Other] S2 site', '[Other] P3 compound design', '[Other] upload_1 2025-02-12', 'Main status', '[Series] Piperidine series', 'BAD count']

>  <inspirations>  (450) 
None

>  <subsites>  (450) 
None

>  <reference>  (450) 


>  <observation_longname>  (450) 
A71EV2A-x4736_A_201_v1

>  <ConformerSites alias>  (450) 
1b - A0911/A/147

>  <CanonSites alias>  (450) 
1 - Active Site

>  <CrystalformSites alias>  (450) 
F1a - A0375/A/201

>  <Quatassemblies alias>  (450) 
A1 - monomer

>  <Crystalforms alias>  (450) 
F1 - A71_2A_open

>  <ConformerSites upload name>  (450) 
1b - A71EV2A-x0911/A/147

>  <CanonSites upload name>  (450) 
1 - A71EV2A-x0911/A/147/1

>  <CrystalformSites upload name>  (450) 
F1a - A71EV2A-x0375/A/201/1

>  <Quatassemblies upload name>  (450) 
A1 - monomer

>  <Crystalforms upload name>  (450) 
F1 - A71_2A_open

>  <ConformerSites short tag>  (450) 
1b - A0911/A/147

>  <CanonSites short tag>  (450) 
1 - A0911/A/147/1

>  <CrystalformSites short tag>  (450) 
F1a - A0375/A/201

>  <Quatassemblies short tag>  (450) 
A1 - monomer

>  <Crystalforms short tag>  (450) 
F1 - A71_2A_open

>  <Centroid res>  (450) 
A71EV2A-x0911/A/133/A_v1

>  <Experiment code>  (450) 
A71EV2A-x4736

>  <Pose>  (450) 
A4736a

$$$$
A4739a
     RDKit          3D

 21 23  0  0  0  0  0  0  0  0999 V2000
   10.5170   16.7780   19.0560 O   0  0  0  0  0  0  0  0  0  0  0  0
   10.9130   15.6380   19.3310 C   0  0  0  0  0  0  0  0  0  0  0  0
   11.2780   14.7590   18.4190 N   0  0  0  0  0  0  0  0  0  0  0  0
   10.9800   15.1520   20.7590 C   0  0  1  0  0  0  0  0  0  0  0  0
   11.0290   16.1020   21.9370 C   0  0  2  0  0  0  0  0  0  0  0  0
   11.8180   15.6400   23.1640 C   0  0  0  0  0  0  0  0  0  0  0  0
   11.3800   14.2880   23.7390 C   0  0  0  0  0  0  0  0  0  0  0  0
    9.7520   15.4370   21.5980 C   0  0  2  0  0  0  0  0  0  0  0  0
    9.3370   14.1830   22.3600 C   0  0  0  0  0  0  0  0  0  0  0  0
    9.9160   14.1470   23.7100 N   0  0  0  0  0  0  0  0  0  0  0  0
    9.1660   13.9590   24.8210 C   0  0  0  0  0  0  0  0  0  0  0  0
    9.6390   14.0250   25.9470 O   0  0  0  0  0  0  0  0  0  0  0  0
    7.7030   13.6170   24.6110 C   0  0  0  0  0  0  0  0  0  0  0  0
    7.2960   12.3750   25.3680 C   0  0  0  0  0  0  0  0  0  0  0  0
    7.7080   11.0810   25.0120 C   0  0  0  0  0  0  0  0  0  0  0  0
    8.9920   10.8820   23.8080 S   0  0  0  0  0  0  0  0  0  0  0  0
    9.1780    9.1060   23.6390 C   0  0  0  0  0  0  0  0  0  0  0  0
    6.3550   12.5140   26.3860 C   0  0  0  0  0  0  0  0  0  0  0  0
    5.7960   11.4090   26.9980 C   0  0  0  0  0  0  0  0  0  0  0  0
    6.1710   10.1460   26.6110 C   0  0  0  0  0  0  0  0  0  0  0  0
    7.1260    9.9730   25.6230 C   0  0  0  0  0  0  0  0  0  0  0  0
 17 16  1  0
 16 15  1  0
 15 21  2  0
 21 20  1  0
 20 19  2  0
 19 18  1  0
 18 14  2  0
 15 14  1  0
 14 13  1  0
 13 11  1  0
 12 11  2  0
 11 10  1  0
 10  7  1  0
  7  6  1  0
  5  6  1  1
  5  8  1  0
  8  9  1  1
 10  9  1  0
  8  4  1  0
  5  4  1  0
  4  2  1  6
  3  2  1  0
  2  1  2  0
M  END
>  <id>  (451) 
451

>  <inchikey>  (451) 
UZZFRRNYJXSFIQ-XUJVJEKNSA-N

>  <alias>  (451) 
A4739a

>  <smiles>  (451) 
CSc1ccccc1CC(=O)N1CC[C@@H]2[C@H](C1)[C@H]2C(N)=O

>  <path>  (451) 
/opt/xchem-fragalysis-2/maxwin/BulkDock/TARGETS/A71EV2A/aligned_files/A4739a/A4739a.pdb

>  <distance_score>  (451) 
None

>  <energy_score>  (451) 
None

>  <compound>  (451) 
UZZFRRNYJXSFIQ-UHFFFAOYSA-N

>  <compound_id>  (451) 
339

>  <target>  (451) 
A71EV2A

>  <tags>  (451) 
['GOOD count', 'MEDIOCRE count', '[Other] S1 site', 'hits', '[Other] S2 site', '[Other] upload_6_2025-02-13', '[Other] P3 compound design', '[Other] upload_1 2025-02-12', 'Main status', '[Series] Piperidine series', 'BAD count']

>  <inspirations>  (451) 
None

>  <subsites>  (451) 
None

>  <reference>  (451) 


>  <observation_longname>  (451) 
A71EV2A-x4739_A_201_v1

>  <ConformerSites alias>  (451) 
1b - A0911/A/147

>  <CanonSites alias>  (451) 
1 - Active Site

>  <CrystalformSites alias>  (451) 
F8h - A0884/A/147

>  <Quatassemblies alias>  (451) 
A1 - monomer

>  <Crystalforms alias>  (451) 
F8 - A712A_x4271_2.1_refmac1_1st_ref

>  <ConformerSites upload name>  (451) 
1b - A71EV2A-x0911/A/147

>  <CanonSites upload name>  (451) 
1 - A71EV2A-x0911/A/147/1

>  <CrystalformSites upload name>  (451) 
F8h - A71EV2A-x0884/A/147/1

>  <Quatassemblies upload name>  (451) 
A1 - monomer

>  <Crystalforms upload name>  (451) 
F8 - A712A_x4271_2.1_refmac1_1st_ref

>  <ConformerSites short tag>  (451) 
1b - A0911/A/147

>  <CanonSites short tag>  (451) 
1 - A0911/A/147/1

>  <CrystalformSites short tag>  (451) 
F8h - A0884/A/147

>  <Quatassemblies short tag>  (451) 
A1 - monomer

>  <Crystalforms short tag>  (451) 
F8 - A712A_x4271_2.1_refmac1_1st_ref

>  <Centroid res>  (451) 
A71EV2A-x0911/A/133/A_v1

>  <Experiment code>  (451) 
A71EV2A-x4739

>  <Pose>  (451) 
A4739a

$$$$
A4742a
     RDKit          3D

 21 23  0  0  0  0  0  0  0  0999 V2000
    7.8060   13.1790   22.7690 O   0  0  0  0  0  0  0  0  0  0  0  0
    8.6790   13.6500   23.4700 C   0  0  0  0  0  0  0  0  0  0  0  0
    9.4720   14.6460   23.0360 N   0  0  0  0  0  0  0  0  0  0  0  0
   10.5460   15.2860   23.8200 C   0  0  0  0  0  0  0  0  0  0  0  0
   11.8900   15.1440   23.1190 C   0  0  0  0  0  0  0  0  0  0  0  0
   11.8010   15.6470   21.6680 C   0  0  0  0  0  0  0  0  0  0  0  0
    9.3310   15.2010   21.6870 C   0  0  0  0  0  0  0  0  0  0  0  0
   10.6340   14.9790   20.9170 C   0  0  1  0  0  0  0  0  0  0  0  0
   10.5580   15.4420   19.4710 C   0  0  0  0  0  0  0  0  0  0  0  0
   10.2040   16.5870   19.1860 O   0  0  0  0  0  0  0  0  0  0  0  0
   10.8440   14.5320   18.5570 N   0  0  0  0  0  0  0  0  0  0  0  0
    8.9000   13.1150   24.8830 C   0  0  1  0  0  0  0  0  0  0  0  0
    7.5710   12.6660   25.4500 C   0  0  0  0  0  0  0  0  0  0  0  0
    6.6230   13.6130   25.8320 C   0  0  0  0  0  0  0  0  0  0  0  0
    5.4640   13.2400   26.4890 C   0  0  0  0  0  0  0  0  0  0  0  0
    5.2380   11.9210   26.7870 C   0  0  0  0  0  0  0  0  0  0  0  0
    6.1420   10.9540   26.3900 C   0  0  0  0  0  0  0  0  0  0  0  0
    7.2920   11.3180   25.6900 C   0  0  0  0  0  0  0  0  0  0  0  0
    8.2500    9.9840   25.0630 S   0  0  0  0  0  0  0  0  0  0  0  0
    9.5670   10.7880   24.1160 C   0  0  0  0  0  0  0  0  0  0  0  0
    9.9970   12.0200   24.8950 C   0  0  0  0  0  0  0  0  0  0  0  0
 11  9  1  0
 10  9  2  0
  8  9  1  6
  8  6  1  0
  6  5  1  0
  5  4  1  0
  4  3  1  0
  3  2  1  0
  2  1  2  0
 12  2  1  6
 12 21  1  0
 21 20  1  0
 20 19  1  0
 19 18  1  0
 18 17  1  0
 17 16  2  0
 16 15  1  0
 15 14  2  0
 14 13  1  0
 18 13  2  0
 13 12  1  0
  7  3  1  0
  8  7  1  0
M  END
>  <id>  (452) 
452

>  <inchikey>  (452) 
CIPSLIIOJPGGQL-WCQYABFASA-N

>  <alias>  (452) 
A4742a

>  <smiles>  (452) 
NC(=O)[C@H]1CCCN(C(=O)[C@@H]2CCSc3ccccc32)C1

>  <path>  (452) 
/opt/xchem-fragalysis-2/maxwin/BulkDock/TARGETS/A71EV2A/aligned_files/A4742a/A4742a_hippo.pdb

>  <distance_score>  (452) 
None

>  <energy_score>  (452) 
None

>  <compound>  (452) 
CIPSLIIOJPGGQL-UHFFFAOYSA-N

>  <compound_id>  (452) 
340

>  <target>  (452) 
A71EV2A

>  <tags>  (452) 
['GOOD count', 'MEDIOCRE count', '[Other] S1 site', 'hits', '[Other] S2 site', '[Other] P3 compound design', '[Other] upload_1 2025-02-12', 'Main status', '[Series] Piperidine series', 'BAD count']

>  <inspirations>  (452) 
None

>  <subsites>  (452) 
None

>  <reference>  (452) 


>  <observation_longname>  (452) 
A71EV2A-x4742_A_201_v1

>  <ConformerSites alias>  (452) 
1b - A0911/A/147

>  <CanonSites alias>  (452) 
1 - Active Site

>  <CrystalformSites alias>  (452) 
F7q - A4303/A/201

>  <Quatassemblies alias>  (452) 
A1 - monomer

>  <Crystalforms alias>  (452) 
F7 - A712A_x4207_8.1_refmac1_1st_ref

>  <ConformerSites upload name>  (452) 
1b - A71EV2A-x0911/A/147

>  <CanonSites upload name>  (452) 
1 - A71EV2A-x0911/A/147/1

>  <CrystalformSites upload name>  (452) 
F7q - A71EV2A-x4303/A/201/1

>  <Quatassemblies upload name>  (452) 
A1 - monomer

>  <Crystalforms upload name>  (452) 
F7 - A712A_x4207_8.1_refmac1_1st_ref

>  <ConformerSites short tag>  (452) 
1b - A0911/A/147

>  <CanonSites short tag>  (452) 
1 - A0911/A/147/1

>  <CrystalformSites short tag>  (452) 
F7q - A4303/A/201

>  <Quatassemblies short tag>  (452) 
A1 - monomer

>  <Crystalforms short tag>  (452) 
F7 - A712A_x4207_8.1_refmac1_1st_ref

>  <Centroid res>  (452) 
A71EV2A-x0911/A/133/A_v1

>  <Experiment code>  (452) 
A71EV2A-x4742

>  <Pose>  (452) 
A4742a

$$$$
A4742b
     RDKit          3D

 21 23  0  0  0  0  0  0  0  0999 V2000
    7.9960   13.1370   22.8060 O   0  0  0  0  0  0  0  0  0  0  0  0
    8.9330   13.5680   23.4670 C   0  0  0  0  0  0  0  0  0  0  0  0
    9.7390   14.5490   22.9980 N   0  0  0  0  0  0  0  0  0  0  0  0
   10.7710   15.2690   23.7670 C   0  0  0  0  0  0  0  0  0  0  0  0
   12.1290   15.2090   23.0630 C   0  0  0  0  0  0  0  0  0  0  0  0
   12.0150   15.6760   21.6080 C   0  0  0  0  0  0  0  0  0  0  0  0
    9.5980   15.0420   21.6230 C   0  0  0  0  0  0  0  0  0  0  0  0
   10.9190   14.9000   20.8580 C   0  0  1  0  0  0  0  0  0  0  0  0
   10.7490   15.4120   19.4370 C   0  0  0  0  0  0  0  0  0  0  0  0
   10.4140   16.5830   19.2170 O   0  0  0  0  0  0  0  0  0  0  0  0
   10.9610   14.5260   18.4710 N   0  0  0  0  0  0  0  0  0  0  0  0
    9.1640   13.0520   24.8880 C   0  0  1  0  0  0  0  0  0  0  0  0
    7.8690   12.5340   25.4850 C   0  0  0  0  0  0  0  0  0  0  0  0
    6.9640   13.4290   26.0530 C   0  0  0  0  0  0  0  0  0  0  0  0
    5.7890   12.9840   26.6350 C   0  0  0  0  0  0  0  0  0  0  0  0
    5.4950   11.6420   26.6610 C   0  0  0  0  0  0  0  0  0  0  0  0
    6.3680   10.7280   26.0950 C   0  0  0  0  0  0  0  0  0  0  0  0
    7.5520   11.1730   25.5060 C   0  0  0  0  0  0  0  0  0  0  0  0
    8.6070    9.9000   24.8990 S   0  0  0  0  0  0  0  0  0  0  0  0
    9.9680   10.7670   24.0880 C   0  0  0  0  0  0  0  0  0  0  0  0
   10.3100   11.9970   24.9170 C   0  0  0  0  0  0  0  0  0  0  0  0
 11  9  1  0
 10  9  2  0
  8  9  1  6
  8  6  1  0
  6  5  1  0
  5  4  1  0
  4  3  1  0
  3  2  1  0
  2  1  2  0
 12  2  1  6
 12 21  1  0
 21 20  1  0
 20 19  1  0
 19 18  1  0
 18 17  1  0
 17 16  2  0
 16 15  1  0
 15 14  2  0
 14 13  1  0
 18 13  2  0
 13 12  1  0
  7  3  1  0
  8  7  1  0
M  END
>  <id>  (453) 
453

>  <inchikey>  (453) 
CIPSLIIOJPGGQL-WCQYABFASA-N

>  <alias>  (453) 
A4742b

>  <smiles>  (453) 
NC(=O)[C@H]1CCCN(C(=O)[C@@H]2CCSc3ccccc32)C1

>  <path>  (453) 
/opt/xchem-fragalysis-2/maxwin/BulkDock/TARGETS/A71EV2A/aligned_files/A4742b/A4742b_hippo.pdb

>  <distance_score>  (453) 
None

>  <energy_score>  (453) 
None

>  <compound>  (453) 
CIPSLIIOJPGGQL-UHFFFAOYSA-N

>  <compound_id>  (453) 
340

>  <target>  (453) 
A71EV2A

>  <tags>  (453) 
['GOOD count', 'MEDIOCRE count', '[Other] S1 site', 'hits', '[Other] S2 site', '[Other] P3 compound design', '[Other] upload_1 2025-02-12', 'Main status', '[Series] Piperidine series', 'BAD count']

>  <inspirations>  (453) 
None

>  <subsites>  (453) 
None

>  <reference>  (453) 


>  <observation_longname>  (453) 
A71EV2A-x4742_C_201_v1

>  <ConformerSites alias>  (453) 
1b - A0911/A/147

>  <CanonSites alias>  (453) 
1 - Active Site

>  <CrystalformSites alias>  (453) 
F7r - A4303/C/201

>  <Quatassemblies alias>  (453) 
A1 - monomer

>  <Crystalforms alias>  (453) 
F7 - A712A_x4207_8.1_refmac1_1st_ref

>  <ConformerSites upload name>  (453) 
1b - A71EV2A-x0911/A/147

>  <CanonSites upload name>  (453) 
1 - A71EV2A-x0911/A/147/1

>  <CrystalformSites upload name>  (453) 
F7r - A71EV2A-x4303/C/201/1

>  <Quatassemblies upload name>  (453) 
A1 - monomer

>  <Crystalforms upload name>  (453) 
F7 - A712A_x4207_8.1_refmac1_1st_ref

>  <ConformerSites short tag>  (453) 
1b - A0911/A/147

>  <CanonSites short tag>  (453) 
1 - A0911/A/147/1

>  <CrystalformSites short tag>  (453) 
F7r - A4303/C/201

>  <Quatassemblies short tag>  (453) 
A1 - monomer

>  <Crystalforms short tag>  (453) 
F7 - A712A_x4207_8.1_refmac1_1st_ref

>  <Centroid res>  (453) 
A71EV2A-x0911/A/133/A_v1

>  <Experiment code>  (453) 
A71EV2A-x4742

>  <Pose>  (453) 
A4742a

$$$$
A4745a
     RDKit          3D

 21 22  0  0  0  0  0  0  0  0999 V2000
   12.4160   15.2310   18.8370 O   0  0  0  0  0  0  0  0  0  0  0  0
   11.0290   15.3860   19.1380 S   0  0  0  0  0  0  0  0  0  0  0  0
   10.3930   16.6640   18.9830 O   0  0  0  0  0  0  0  0  0  0  0  0
   10.2230   14.3150   18.2860 N   0  0  0  0  0  0  0  0  0  0  0  0
   10.8130   14.9010   20.8410 C   0  0  1  0  0  0  0  0  0  0  0  0
   11.8500   15.5660   21.7500 C   0  0  0  0  0  0  0  0  0  0  0  0
   11.7560   14.9780   23.1600 C   0  0  0  0  0  0  0  0  0  0  0  0
   10.3640   15.1920   23.7190 C   0  0  0  0  0  0  0  0  0  0  0  0
    9.4230   15.1660   21.4150 C   0  0  0  0  0  0  0  0  0  0  0  0
    9.3380   14.6780   22.7950 N   0  0  0  0  0  0  0  0  0  0  0  0
    8.3610   13.8270   23.1710 C   0  0  0  0  0  0  0  0  0  0  0  0
    7.4910   13.4720   22.4050 O   0  0  0  0  0  0  0  0  0  0  0  0
    8.3470   13.4250   24.6360 C   0  0  0  0  0  0  0  0  0  0  0  0
    7.4410   12.2530   24.9380 C   0  0  0  0  0  0  0  0  0  0  0  0
    7.7750   10.9330   24.6080 C   0  0  0  0  0  0  0  0  0  0  0  0
    9.1600   10.6910   23.5340 S   0  0  0  0  0  0  0  0  0  0  0  0
    9.3420    8.9140   23.4380 C   0  0  0  0  0  0  0  0  0  0  0  0
    6.3250   12.4710   25.7420 C   0  0  0  0  0  0  0  0  0  0  0  0
    5.6110   11.4170   26.2760 C   0  0  0  0  0  0  0  0  0  0  0  0
    5.9720   10.1280   25.9840 C   0  0  0  0  0  0  0  0  0  0  0  0
    7.0340    9.8730   25.1270 C   0  0  0  0  0  0  0  0  0  0  0  0
 17 16  1  0
 16 15  1  0
 15 21  2  0
 21 20  1  0
 20 19  2  0
 19 18  1  0
 18 14  2  0
 15 14  1  0
 14 13  1  0
 13 11  1  0
 12 11  2  0
 11 10  1  0
 10  8  1  0
  8  7  1  0
  7  6  1  0
  6  5  1  0
  5  2  1  6
  4  2  1  0
  3  2  2  0
  2  1  2  0
  9  5  1  0
 10  9  1  0
M  END
>  <id>  (454) 
454

>  <inchikey>  (454) 
IJMORUNSZSDHCA-LBPRGKRZSA-N

>  <alias>  (454) 
A4745a

>  <smiles>  (454) 
CSc1ccccc1CC(=O)N1CCC[C@H](S(N)(=O)=O)C1

>  <path>  (454) 
/opt/xchem-fragalysis-2/maxwin/BulkDock/TARGETS/A71EV2A/aligned_files/A4745a/A4745a.pdb

>  <distance_score>  (454) 
None

>  <energy_score>  (454) 
None

>  <compound>  (454) 
IJMORUNSZSDHCA-UHFFFAOYSA-N

>  <compound_id>  (454) 
341

>  <target>  (454) 
A71EV2A

>  <tags>  (454) 
['GOOD count', 'MEDIOCRE count', '[Other] S1 site', 'hits', '[Other] S2 site', '[Other] upload_6_2025-02-13', '[Other] P3 compound design', '[Other] upload_1 2025-02-12', 'Main status', '[Series] Piperidine series', 'BAD count']

>  <inspirations>  (454) 
None

>  <subsites>  (454) 
None

>  <reference>  (454) 


>  <observation_longname>  (454) 
A71EV2A-x4745_A_201_v1

>  <ConformerSites alias>  (454) 
1b - A0911/A/147

>  <CanonSites alias>  (454) 
1 - Active Site

>  <CrystalformSites alias>  (454) 
F5i - A3175/A/201

>  <Quatassemblies alias>  (454) 
A1 - monomer

>  <Crystalforms alias>  (454) 
F5 - A71EV2A_x3178_new_long_dials_041024

>  <ConformerSites upload name>  (454) 
1b - A71EV2A-x0911/A/147

>  <CanonSites upload name>  (454) 
1 - A71EV2A-x0911/A/147/1

>  <CrystalformSites upload name>  (454) 
F5i - A71EV2A-x3175/A/201/1

>  <Quatassemblies upload name>  (454) 
A1 - monomer

>  <Crystalforms upload name>  (454) 
F5 - A71EV2A_x3178_new_long_dials_041024

>  <ConformerSites short tag>  (454) 
1b - A0911/A/147

>  <CanonSites short tag>  (454) 
1 - A0911/A/147/1

>  <CrystalformSites short tag>  (454) 
F5i - A3175/A/201

>  <Quatassemblies short tag>  (454) 
A1 - monomer

>  <Crystalforms short tag>  (454) 
F5 - A71EV2A_x3178_new_long_dials_041024

>  <Centroid res>  (454) 
A71EV2A-x0911/A/133/A_v1

>  <Experiment code>  (454) 
A71EV2A-x4745

>  <Pose>  (454) 
A4745a

$$$$
A4746a
     RDKit          3D

 20 21  0  0  0  0  0  0  0  0999 V2000
   10.3270   16.3580   18.7500 F   0  0  0  0  0  0  0  0  0  0  0  0
   10.4850   15.0120   18.9120 C   0  0  0  0  0  0  0  0  0  0  0  0
   11.6530   14.7050   18.3080 F   0  0  0  0  0  0  0  0  0  0  0  0
   10.5720   14.6870   20.3170 C   0  0  1  0  0  0  0  0  0  0  0  0
   11.7460   15.4200   20.9730 C   0  0  0  0  0  0  0  0  0  0  0  0
   11.8160   15.1670   22.4680 C   0  0  0  0  0  0  0  0  0  0  0  0
   10.4640   15.4130   23.1230 C   0  0  0  0  0  0  0  0  0  0  0  0
    9.2840   15.1060   20.9910 C   0  0  0  0  0  0  0  0  0  0  0  0
    9.3860   14.7240   22.3970 N   0  0  0  0  0  0  0  0  0  0  0  0
    8.5650   13.7960   22.9120 C   0  0  0  0  0  0  0  0  0  0  0  0
    7.5970   13.3810   22.3120 O   0  0  0  0  0  0  0  0  0  0  0  0
    8.8910   13.3680   24.3280 C   0  0  0  0  0  0  0  0  0  0  0  0
    7.8990   12.3680   24.8600 C   0  0  0  0  0  0  0  0  0  0  0  0
    8.1250   10.9920   24.7600 C   0  0  0  0  0  0  0  0  0  0  0  0
    9.1270   10.4760   23.3910 S   0  0  0  0  0  0  0  0  0  0  0  0
    9.8210    8.9220   23.8620 C   0  0  0  0  0  0  0  0  0  0  0  0
    6.8630   12.8130   25.6760 C   0  0  0  0  0  0  0  0  0  0  0  0
    6.1540   11.9360   26.4720 C   0  0  0  0  0  0  0  0  0  0  0  0
    6.4590   10.6070   26.4550 C   0  0  0  0  0  0  0  0  0  0  0  0
    7.4290   10.1240   25.5870 C   0  0  0  0  0  0  0  0  0  0  0  0
 16 15  1  0
 15 14  1  0
 14 20  2  0
 20 19  1  0
 19 18  2  0
 18 17  1  0
 17 13  2  0
 14 13  1  0
 13 12  1  0
 12 10  1  0
 11 10  2  0
 10  9  1  0
  9  7  1  0
  7  6  1  0
  6  5  1  0
  5  4  1  0
  4  2  1  6
  3  2  1  0
  2  1  1  0
  8  4  1  0
  9  8  1  0
M  END
>  <id>  (455) 
455

>  <inchikey>  (455) 
GOYPQPVBNWXXPJ-LBPRGKRZSA-N

>  <alias>  (455) 
A4746a

>  <smiles>  (455) 
CSc1ccccc1CC(=O)N1CCC[C@H](C(F)F)C1

>  <path>  (455) 
/opt/xchem-fragalysis-2/maxwin/BulkDock/TARGETS/A71EV2A/aligned_files/A4746a/A4746a.pdb

>  <distance_score>  (455) 
None

>  <energy_score>  (455) 
None

>  <compound>  (455) 
GOYPQPVBNWXXPJ-UHFFFAOYSA-N

>  <compound_id>  (455) 
342

>  <target>  (455) 
A71EV2A

>  <tags>  (455) 
['GOOD count', 'MEDIOCRE count', '[Other] S1 site', 'hits', '[Other] S2 site', '[Other] P3 compound design', '[Other] upload_1 2025-02-12', 'Main status', '[Series] Piperidine series', 'BAD count']

>  <inspirations>  (455) 
None

>  <subsites>  (455) 
None

>  <reference>  (455) 


>  <observation_longname>  (455) 
A71EV2A-x4746_A_201_v1

>  <ConformerSites alias>  (455) 
1b - A0911/A/147

>  <CanonSites alias>  (455) 
1 - Active Site

>  <CrystalformSites alias>  (455) 
F5i - A3175/A/201

>  <Quatassemblies alias>  (455) 
A1 - monomer

>  <Crystalforms alias>  (455) 
F5 - A71EV2A_x3178_new_long_dials_041024

>  <ConformerSites upload name>  (455) 
1b - A71EV2A-x0911/A/147

>  <CanonSites upload name>  (455) 
1 - A71EV2A-x0911/A/147/1

>  <CrystalformSites upload name>  (455) 
F5i - A71EV2A-x3175/A/201/1

>  <Quatassemblies upload name>  (455) 
A1 - monomer

>  <Crystalforms upload name>  (455) 
F5 - A71EV2A_x3178_new_long_dials_041024

>  <ConformerSites short tag>  (455) 
1b - A0911/A/147

>  <CanonSites short tag>  (455) 
1 - A0911/A/147/1

>  <CrystalformSites short tag>  (455) 
F5i - A3175/A/201

>  <Quatassemblies short tag>  (455) 
A1 - monomer

>  <Crystalforms short tag>  (455) 
F5 - A71EV2A_x3178_new_long_dials_041024

>  <Centroid res>  (455) 
A71EV2A-x0911/A/133/A_v1

>  <Experiment code>  (455) 
A71EV2A-x4746

>  <Pose>  (455) 
A4746a

$$$$
A4748a
     RDKit          3D

 20 21  0  0  0  0  0  0  0  0999 V2000
   10.3240   16.6110   19.0340 O   0  0  0  0  0  0  0  0  0  0  0  0
   10.7550   15.4770   19.2800 C   0  0  0  0  0  0  0  0  0  0  0  0
   11.2170   14.6560   18.3510 N   0  0  0  0  0  0  0  0  0  0  0  0
   10.7750   14.9770   20.7260 C   0  0  1  0  0  0  0  0  0  0  0  0
   11.7230   15.7180   21.5150 O   0  0  0  0  0  0  0  0  0  0  0  0
   11.8400   15.1740   22.8460 C   0  0  0  0  0  0  0  0  0  0  0  0
   10.5170   15.2480   23.5780 C   0  0  0  0  0  0  0  0  0  0  0  0
    9.4000   15.0360   21.3780 C   0  0  0  0  0  0  0  0  0  0  0  0
    9.4600   14.6060   22.7800 N   0  0  0  0  0  0  0  0  0  0  0  0
    8.5640   13.7190   23.2700 C   0  0  0  0  0  0  0  0  0  0  0  0
    7.6660   13.2580   22.5790 O   0  0  0  0  0  0  0  0  0  0  0  0
    8.7030   13.3330   24.7330 C   0  0  0  0  0  0  0  0  0  0  0  0
    7.7600   12.2160   25.1280 C   0  0  0  0  0  0  0  0  0  0  0  0
    7.9810   10.8780   24.7690 C   0  0  0  0  0  0  0  0  0  0  0  0
    9.2610   10.5850   23.5870 S   0  0  0  0  0  0  0  0  0  0  0  0
    9.3280    8.7880   23.4540 C   0  0  0  0  0  0  0  0  0  0  0  0
    6.6600   12.5060   25.9340 C   0  0  0  0  0  0  0  0  0  0  0  0
    5.8340   11.5030   26.4070 C   0  0  0  0  0  0  0  0  0  0  0  0
    6.0930   10.1880   26.0890 C   0  0  0  0  0  0  0  0  0  0  0  0
    7.1590    9.8670   25.2680 C   0  0  0  0  0  0  0  0  0  0  0  0
 16 15  1  0
 15 14  1  0
 14 20  2  0
 20 19  1  0
 19 18  2  0
 18 17  1  0
 17 13  2  0
 14 13  1  0
 13 12  1  0
 12 10  1  0
 11 10  2  0
 10  9  1  0
  9  7  1  0
  7  6  1  0
  6  5  1  0
  5  4  1  0
  4  2  1  6
  3  2  1  0
  2  1  2  0
  8  4  1  0
  9  8  1  0
M  END
>  <id>  (456) 
456

>  <inchikey>  (456) 
CBMRPEIYSTUDMN-NSHDSACASA-N

>  <alias>  (456) 
A4748a

>  <smiles>  (456) 
CSc1ccccc1CC(=O)N1CCO[C@H](C(N)=O)C1

>  <path>  (456) 
/opt/xchem-fragalysis-2/maxwin/BulkDock/TARGETS/A71EV2A/aligned_files/A4748a/A4748a.pdb

>  <distance_score>  (456) 
None

>  <energy_score>  (456) 
None

>  <compound>  (456) 
CBMRPEIYSTUDMN-UHFFFAOYSA-N

>  <compound_id>  (456) 
343

>  <target>  (456) 
A71EV2A

>  <tags>  (456) 
['GOOD count', 'MEDIOCRE count', '[Other] S1 site', 'hits', '[Other] S2 site', '[Other] P3 compound design', '[Other] upload_1 2025-02-12', 'Main status', '[Series] Piperidine series', 'BAD count']

>  <inspirations>  (456) 
None

>  <subsites>  (456) 
None

>  <reference>  (456) 


>  <observation_longname>  (456) 
A71EV2A-x4748_A_201_v1

>  <ConformerSites alias>  (456) 
1b - A0911/A/147

>  <CanonSites alias>  (456) 
1 - Active Site

>  <CrystalformSites alias>  (456) 
F1a - A0375/A/201

>  <Quatassemblies alias>  (456) 
A1 - monomer

>  <Crystalforms alias>  (456) 
F1 - A71_2A_open

>  <ConformerSites upload name>  (456) 
1b - A71EV2A-x0911/A/147

>  <CanonSites upload name>  (456) 
1 - A71EV2A-x0911/A/147/1

>  <CrystalformSites upload name>  (456) 
F1a - A71EV2A-x0375/A/201/1

>  <Quatassemblies upload name>  (456) 
A1 - monomer

>  <Crystalforms upload name>  (456) 
F1 - A71_2A_open

>  <ConformerSites short tag>  (456) 
1b - A0911/A/147

>  <CanonSites short tag>  (456) 
1 - A0911/A/147/1

>  <CrystalformSites short tag>  (456) 
F1a - A0375/A/201

>  <Quatassemblies short tag>  (456) 
A1 - monomer

>  <Crystalforms short tag>  (456) 
F1 - A71_2A_open

>  <Centroid res>  (456) 
A71EV2A-x0911/A/133/A_v1

>  <Experiment code>  (456) 
A71EV2A-x4748

>  <Pose>  (456) 
A4748a

$$$$
A4751a
     RDKit          3D

 19 20  0  0  0  0  0  0  0  0999 V2000
   10.0310   16.5550   18.7310 F   0  0  0  0  0  0  0  0  0  0  0  0
   10.8250   15.5330   18.9940 C   0  0  0  0  0  0  0  0  0  0  0  0
   10.6650   14.8250   20.4190 C   0  0  1  0  0  0  0  0  0  0  0  0
   11.9340   15.1170   21.2050 C   0  0  0  0  0  0  0  0  0  0  0  0
   11.9270   14.5030   22.5950 C   0  0  0  0  0  0  0  0  0  0  0  0
   10.7290   14.9810   23.3860 C   0  0  0  0  0  0  0  0  0  0  0  0
    9.4540   15.1770   21.2790 C   0  0  0  0  0  0  0  0  0  0  0  0
    9.5240   14.6330   22.6400 N   0  0  0  0  0  0  0  0  0  0  0  0
    8.5770   13.8210   23.1730 C   0  0  0  0  0  0  0  0  0  0  0  0
    7.6410   13.4990   22.5470 O   0  0  0  0  0  0  0  0  0  0  0  0
    8.6590   13.2910   24.5970 C   0  0  0  0  0  0  0  0  0  0  0  0
    7.6650   12.1740   24.8830 C   0  0  0  0  0  0  0  0  0  0  0  0
    7.8940   10.8510   24.4780 C   0  0  0  0  0  0  0  0  0  0  0  0
    9.2510   10.6030   23.3720 S   0  0  0  0  0  0  0  0  0  0  0  0
    9.2800    8.7460   23.1140 C   0  0  0  0  0  0  0  0  0  0  0  0
    6.5500   12.4320   25.6800 C   0  0  0  0  0  0  0  0  0  0  0  0
    5.7120   11.4090   26.0800 C   0  0  0  0  0  0  0  0  0  0  0  0
    5.9910   10.1090   25.7420 C   0  0  0  0  0  0  0  0  0  0  0  0
    7.0790    9.8160   24.9360 C   0  0  0  0  0  0  0  0  0  0  0  0
 15 14  1  0
 14 13  1  0
 13 19  2  0
 19 18  1  0
 18 17  2  0
 17 16  1  0
 16 12  2  0
 13 12  1  0
 12 11  1  0
 11  9  1  0
 10  9  2  0
  9  8  1  0
  8  6  1  0
  6  5  1  0
  5  4  1  0
  4  3  1  0
  3  2  1  6
  2  1  1  0
  7  3  1  0
  8  7  1  0
M  END
>  <id>  (457) 
457

>  <inchikey>  (457) 
CCVZZJFVCZKBEW-GFCCVEGCSA-N

>  <alias>  (457) 
A4751a

>  <smiles>  (457) 
CSc1ccccc1CC(=O)N1CCC[C@H](CF)C1

>  <path>  (457) 
/opt/xchem-fragalysis-2/maxwin/BulkDock/TARGETS/A71EV2A/aligned_files/A4751a/A4751a.pdb

>  <distance_score>  (457) 
None

>  <energy_score>  (457) 
None

>  <compound>  (457) 
CCVZZJFVCZKBEW-UHFFFAOYSA-N

>  <compound_id>  (457) 
344

>  <target>  (457) 
A71EV2A

>  <tags>  (457) 
['GOOD count', 'MEDIOCRE count', '[Other] S1 site', 'hits', '[Other] S2 site', '[Other] P3 compound design', '[Other] upload_1 2025-02-12', 'Main status', '[Series] Piperidine series', 'BAD count']

>  <inspirations>  (457) 
None

>  <subsites>  (457) 
None

>  <reference>  (457) 


>  <observation_longname>  (457) 
A71EV2A-x4751_A_201_v1

>  <ConformerSites alias>  (457) 
1b - A0911/A/147

>  <CanonSites alias>  (457) 
1 - Active Site

>  <CrystalformSites alias>  (457) 
F5i - A3175/A/201

>  <Quatassemblies alias>  (457) 
A1 - monomer

>  <Crystalforms alias>  (457) 
F5 - A71EV2A_x3178_new_long_dials_041024

>  <ConformerSites upload name>  (457) 
1b - A71EV2A-x0911/A/147

>  <CanonSites upload name>  (457) 
1 - A71EV2A-x0911/A/147/1

>  <CrystalformSites upload name>  (457) 
F5i - A71EV2A-x3175/A/201/1

>  <Quatassemblies upload name>  (457) 
A1 - monomer

>  <Crystalforms upload name>  (457) 
F5 - A71EV2A_x3178_new_long_dials_041024

>  <ConformerSites short tag>  (457) 
1b - A0911/A/147

>  <CanonSites short tag>  (457) 
1 - A0911/A/147/1

>  <CrystalformSites short tag>  (457) 
F5i - A3175/A/201

>  <Quatassemblies short tag>  (457) 
A1 - monomer

>  <Crystalforms short tag>  (457) 
F5 - A71EV2A_x3178_new_long_dials_041024

>  <Centroid res>  (457) 
A71EV2A-x0911/A/133/A_v1

>  <Experiment code>  (457) 
A71EV2A-x4751

>  <Pose>  (457) 
A4751a

$$$$
A4752a
     RDKit          3D

 22 24  0  0  0  0  0  0  0  0999 V2000
    7.6040   13.4620   22.4490 O   0  0  0  0  0  0  0  0  0  0  0  0
    7.3440   13.8680   23.5250 C   0  0  0  0  0  0  0  0  0  0  0  0
    8.0830   13.2660   24.7030 C   0  0  0  0  0  0  0  0  0  0  0  0
    7.5350   11.9100   25.0980 C   0  0  0  0  0  0  0  0  0  0  0  0
    6.5050   11.8820   26.0300 C   0  0  0  0  0  0  0  0  0  0  0  0
    6.0370   10.6990   26.5610 C   0  0  0  0  0  0  0  0  0  0  0  0
    6.5640    9.5230   26.1570 C   0  0  0  0  0  0  0  0  0  0  0  0
    7.5700    9.5010   25.2060 C   0  0  0  0  0  0  0  0  0  0  0  0
    8.0540   10.6820   24.6620 C   0  0  0  0  0  0  0  0  0  0  0  0
    9.2740   10.5260   23.3940 S   0  0  0  0  0  0  0  0  0  0  0  0
    9.1030    8.7600   22.8250 C   0  0  0  0  0  0  0  0  0  0  0  0
    6.4210   14.8320   23.6920 N   0  0  0  0  0  0  0  0  0  0  0  0
    5.4310   15.1720   22.7120 C   0  0  0  0  0  0  0  0  0  0  0  0
    4.0740   15.0550   23.3570 C   0  0  0  0  0  0  0  0  0  0  0  0
    3.9660   14.8410   24.7380 C   0  0  0  0  0  0  0  0  0  0  0  0
    5.0670   15.2350   25.6720 C   0  0  0  0  0  0  0  0  0  0  0  0
    6.4000   15.4640   24.9990 C   0  0  0  0  0  0  0  0  0  0  0  0
    2.8990   15.0510   22.6250 C   0  0  0  0  0  0  0  0  0  0  0  0
    2.9650   15.5130   21.3720 O   0  0  0  0  0  0  0  0  0  0  0  0
    1.7040   14.7200   23.2240 C   0  0  0  0  0  0  0  0  0  0  0  0
    1.7210   14.4770   24.5840 C   0  0  0  0  0  0  0  0  0  0  0  0
    2.8150   14.5330   25.3420 N   0  0  0  0  0  0  0  0  0  0  0  0
 11 10  1  0
 10  9  1  0
  9  8  1  0
  8  7  2  0
  7  6  1  0
  6  5  2  0
  5  4  1  0
  9  4  2  0
  4  3  1  0
  3  2  1  0
  2  1  2  0
 12  2  1  0
 12 17  1  0
 17 16  1  0
 16 15  1  0
 15 22  2  0
 22 21  1  0
 21 20  2  0
 20 18  1  0
 19 18  1  0
 18 14  2  0
 15 14  1  0
 14 13  1  0
 13 12  1  0
M  END
>  <id>  (458) 
458

>  <inchikey>  (458) 
DYNBLKMWIHEGPC-UHFFFAOYSA-N

>  <alias>  (458) 
A4752a

>  <smiles>  (458) 
CSc1ccccc1CC(=O)N1CCc2nccc(O)c2C1

>  <path>  (458) 
/opt/xchem-fragalysis-2/maxwin/BulkDock/TARGETS/A71EV2A/aligned_files/A4752a/A4752a.pdb

>  <distance_score>  (458) 
None

>  <energy_score>  (458) 
None

>  <compound>  (458) 
DYNBLKMWIHEGPC-UHFFFAOYSA-N

>  <compound_id>  (458) 
345

>  <target>  (458) 
A71EV2A

>  <tags>  (458) 
['GOOD count', 'MEDIOCRE count', '[Other] S1 site', 'hits', '[Other] S2 site', '[Other] P3 compound design', '[Other] upload_1 2025-02-12', 'Main status', '[Series] Piperidine series', 'BAD count']

>  <inspirations>  (458) 
None

>  <subsites>  (458) 
None

>  <reference>  (458) 


>  <observation_longname>  (458) 
A71EV2A-x4752_A_201_v1

>  <ConformerSites alias>  (458) 
1b - A0911/A/147

>  <CanonSites alias>  (458) 
1 - Active Site

>  <CrystalformSites alias>  (458) 
F5i - A3175/A/201

>  <Quatassemblies alias>  (458) 
A1 - monomer

>  <Crystalforms alias>  (458) 
F5 - A71EV2A_x3178_new_long_dials_041024

>  <ConformerSites upload name>  (458) 
1b - A71EV2A-x0911/A/147

>  <CanonSites upload name>  (458) 
1 - A71EV2A-x0911/A/147/1

>  <CrystalformSites upload name>  (458) 
F5i - A71EV2A-x3175/A/201/1

>  <Quatassemblies upload name>  (458) 
A1 - monomer

>  <Crystalforms upload name>  (458) 
F5 - A71EV2A_x3178_new_long_dials_041024

>  <ConformerSites short tag>  (458) 
1b - A0911/A/147

>  <CanonSites short tag>  (458) 
1 - A0911/A/147/1

>  <CrystalformSites short tag>  (458) 
F5i - A3175/A/201

>  <Quatassemblies short tag>  (458) 
A1 - monomer

>  <Crystalforms short tag>  (458) 
F5 - A71EV2A_x3178_new_long_dials_041024

>  <Centroid res>  (458) 
A71EV2A-x0911/A/133/A_v1

>  <Experiment code>  (458) 
A71EV2A-x4752

>  <Pose>  (458) 
A4752a

$$$$
A4753a
     RDKit          3D

 21 22  0  0  0  0  0  0  0  0999 V2000
   10.2650   16.8090   19.2890 O   0  0  0  0  0  0  0  0  0  0  0  0
   10.6860   15.6690   19.4950 C   0  0  0  0  0  0  0  0  0  0  0  0
   11.0970   14.8490   18.5400 N   0  0  0  0  0  0  0  0  0  0  0  0
   10.7420   15.1550   20.9420 C   0  0  1  0  0  0  0  0  0  0  0  0
   11.0490   13.8070   20.9770 F   0  0  0  0  0  0  0  0  0  0  0  0
   11.8080   15.8660   21.7570 C   0  0  0  0  0  0  0  0  0  0  0  0
   11.8110   15.4110   23.2170 C   0  0  0  0  0  0  0  0  0  0  0  0
   10.4190   15.5300   23.8090 C   0  0  0  0  0  0  0  0  0  0  0  0
    9.3500   15.3790   21.5880 C   0  0  0  0  0  0  0  0  0  0  0  0
    9.4070   14.8760   22.9630 N   0  0  0  0  0  0  0  0  0  0  0  0
    8.5140   13.9570   23.3930 C   0  0  0  0  0  0  0  0  0  0  0  0
    7.5990   13.5560   22.6880 O   0  0  0  0  0  0  0  0  0  0  0  0
    8.6690   13.4760   24.8220 C   0  0  0  0  0  0  0  0  0  0  0  0
    7.7580   12.3040   25.1140 C   0  0  0  0  0  0  0  0  0  0  0  0
    7.9800   11.0100   24.6160 C   0  0  0  0  0  0  0  0  0  0  0  0
    9.3520   10.7820   23.5240 S   0  0  0  0  0  0  0  0  0  0  0  0
    9.3740    9.0110   23.2220 C   0  0  0  0  0  0  0  0  0  0  0  0
    6.6630   12.5080   25.9510 C   0  0  0  0  0  0  0  0  0  0  0  0
    5.8370   11.4580   26.3180 C   0  0  0  0  0  0  0  0  0  0  0  0
    6.0780   10.1950   25.8510 C   0  0  0  0  0  0  0  0  0  0  0  0
    7.1360    9.9610   24.9820 C   0  0  0  0  0  0  0  0  0  0  0  0
 17 16  1  0
 16 15  1  0
 15 21  2  0
 21 20  1  0
 20 19  2  0
 19 18  1  0
 18 14  2  0
 15 14  1  0
 14 13  1  0
 13 11  1  0
 12 11  2  0
 11 10  1  0
 10  8  1  0
  8  7  1  0
  7  6  1  0
  6  4  1  0
  4  5  1  6
  4  2  1  0
  3  2  1  0
  2  1  2  0
  9  4  1  0
 10  9  1  0
M  END
>  <id>  (459) 
459

>  <inchikey>  (459) 
VWQRAZBSLICPHQ-OAHLLOKOSA-N

>  <alias>  (459) 
A4753a

>  <smiles>  (459) 
CSc1ccccc1CC(=O)N1CCC[C@](F)(C(N)=O)C1

>  <path>  (459) 
/opt/xchem-fragalysis-2/maxwin/BulkDock/TARGETS/A71EV2A/aligned_files/A4753a/A4753a.pdb

>  <distance_score>  (459) 
None

>  <energy_score>  (459) 
None

>  <compound>  (459) 
VWQRAZBSLICPHQ-UHFFFAOYSA-N

>  <compound_id>  (459) 
346

>  <target>  (459) 
A71EV2A

>  <tags>  (459) 
['GOOD count', 'MEDIOCRE count', '[Other] S1 site', 'hits', '[Other] S2 site', '[Other] P3 compound design', '[Other] upload_1 2025-02-12', 'Main status', '[Series] Piperidine series', 'BAD count']

>  <inspirations>  (459) 
None

>  <subsites>  (459) 
None

>  <reference>  (459) 


>  <observation_longname>  (459) 
A71EV2A-x4753_A_201_v1

>  <ConformerSites alias>  (459) 
1b - A0911/A/147

>  <CanonSites alias>  (459) 
1 - Active Site

>  <CrystalformSites alias>  (459) 
F8h - A0884/A/147

>  <Quatassemblies alias>  (459) 
A1 - monomer

>  <Crystalforms alias>  (459) 
F8 - A712A_x4271_2.1_refmac1_1st_ref

>  <ConformerSites upload name>  (459) 
1b - A71EV2A-x0911/A/147

>  <CanonSites upload name>  (459) 
1 - A71EV2A-x0911/A/147/1

>  <CrystalformSites upload name>  (459) 
F8h - A71EV2A-x0884/A/147/1

>  <Quatassemblies upload name>  (459) 
A1 - monomer

>  <Crystalforms upload name>  (459) 
F8 - A712A_x4271_2.1_refmac1_1st_ref

>  <ConformerSites short tag>  (459) 
1b - A0911/A/147

>  <CanonSites short tag>  (459) 
1 - A0911/A/147/1

>  <CrystalformSites short tag>  (459) 
F8h - A0884/A/147

>  <Quatassemblies short tag>  (459) 
A1 - monomer

>  <Crystalforms short tag>  (459) 
F8 - A712A_x4271_2.1_refmac1_1st_ref

>  <Centroid res>  (459) 
A71EV2A-x0911/A/133/A_v1

>  <Experiment code>  (459) 
A71EV2A-x4753

>  <Pose>  (459) 
A4753a

$$$$
A4771a
     RDKit          3D

 22 24  0  0  0  0  0  0  0  0999 V2000
    2.7860   14.9140   20.8040 O   0  0  0  0  0  0  0  0  0  0  0  0
    2.7550   14.7890   22.0330 C   0  0  0  0  0  0  0  0  0  0  0  0
    1.5510   14.6320   22.6910 N   0  0  0  0  0  0  0  0  0  0  0  0
    1.4400   14.6060   24.0350 C   0  0  0  0  0  0  0  0  0  0  0  0
    2.4340   14.7390   24.8730 N   0  0  0  0  0  0  0  0  0  0  0  0
    3.8950   14.8990   22.9120 C   0  0  0  0  0  0  0  0  0  0  0  0
    3.6800   14.8990   24.2780 C   0  0  0  0  0  0  0  0  0  0  0  0
    4.7810   15.1660   25.2590 C   0  0  0  0  0  0  0  0  0  0  0  0
    6.0320   15.6740   24.5500 C   0  0  0  0  0  0  0  0  0  0  0  0
    5.2800   14.9750   22.3200 C   0  0  0  0  0  0  0  0  0  0  0  0
    6.3120   14.8740   23.3500 N   0  0  0  0  0  0  0  0  0  0  0  0
    7.4000   14.0830   23.1890 C   0  0  0  0  0  0  0  0  0  0  0  0
    7.6670   13.5550   22.1240 O   0  0  0  0  0  0  0  0  0  0  0  0
    8.2870   13.8550   24.3970 C   0  0  0  0  0  0  0  0  0  0  0  0
    7.8330   12.6470   25.1830 C   0  0  0  0  0  0  0  0  0  0  0  0
    8.1490   11.3300   24.8260 C   0  0  0  0  0  0  0  0  0  0  0  0
    9.2010   11.0110   23.4370 S   0  0  0  0  0  0  0  0  0  0  0  0
    9.6070    9.2730   23.5900 C   0  0  0  0  0  0  0  0  0  0  0  0
    6.9680   12.8460   26.2560 C   0  0  0  0  0  0  0  0  0  0  0  0
    6.3880   11.7880   26.9210 C   0  0  0  0  0  0  0  0  0  0  0  0
    6.6910   10.5130   26.5590 C   0  0  0  0  0  0  0  0  0  0  0  0
    7.5860   10.2740   25.5310 C   0  0  0  0  0  0  0  0  0  0  0  0
 18 17  1  0
 17 16  1  0
 16 22  2  0
 22 21  1  0
 21 20  2  0
 20 19  1  0
 19 15  2  0
 16 15  1  0
 15 14  1  0
 14 12  1  0
 13 12  2  0
 12 11  1  0
 11  9  1  0
  9  8  1  0
  8  7  1  0
  7  5  1  0
  5  4  2  0
  4  3  1  0
  3  2  1  0
  2  1  2  0
  6  2  1  0
  7  6  2  0
 10  6  1  0
 11 10  1  0
M  END
>  <id>  (460) 
460

>  <inchikey>  (460) 
AETMPRGAEUVJPB-UHFFFAOYSA-N

>  <alias>  (460) 
A4771a

>  <smiles>  (460) 
CSc1ccccc1CC(=O)N1CCc2nc[nH]c(=O)c2C1

>  <path>  (460) 
/opt/xchem-fragalysis-2/maxwin/BulkDock/TARGETS/A71EV2A/aligned_files/A4771a/A4771a.pdb

>  <distance_score>  (460) 
None

>  <energy_score>  (460) 
None

>  <compound>  (460) 
AETMPRGAEUVJPB-UHFFFAOYSA-N

>  <compound_id>  (460) 
347

>  <target>  (460) 
A71EV2A

>  <tags>  (460) 
['GOOD count', 'MEDIOCRE count', '[Other] S1 site', 'hits', '[Other] S2 site', '[Other] upload_6_2025-02-13', '[Other] P3 compound design', '[Other] upload_1 2025-02-12', 'Main status', '[Series] Piperidine series', 'BAD count']

>  <inspirations>  (460) 
None

>  <subsites>  (460) 
None

>  <reference>  (460) 


>  <observation_longname>  (460) 
A71EV2A-x4771_A_201_v1

>  <ConformerSites alias>  (460) 
1b - A0911/A/147

>  <CanonSites alias>  (460) 
1 - Active Site

>  <CrystalformSites alias>  (460) 
F5i - A3175/A/201

>  <Quatassemblies alias>  (460) 
A1 - monomer

>  <Crystalforms alias>  (460) 
F5 - A71EV2A_x3178_new_long_dials_041024

>  <ConformerSites upload name>  (460) 
1b - A71EV2A-x0911/A/147

>  <CanonSites upload name>  (460) 
1 - A71EV2A-x0911/A/147/1

>  <CrystalformSites upload name>  (460) 
F5i - A71EV2A-x3175/A/201/1

>  <Quatassemblies upload name>  (460) 
A1 - monomer

>  <Crystalforms upload name>  (460) 
F5 - A71EV2A_x3178_new_long_dials_041024

>  <ConformerSites short tag>  (460) 
1b - A0911/A/147

>  <CanonSites short tag>  (460) 
1 - A0911/A/147/1

>  <CrystalformSites short tag>  (460) 
F5i - A3175/A/201

>  <Quatassemblies short tag>  (460) 
A1 - monomer

>  <Crystalforms short tag>  (460) 
F5 - A71EV2A_x3178_new_long_dials_041024

>  <Centroid res>  (460) 
A71EV2A-x0911/A/133/A_v1

>  <Experiment code>  (460) 
A71EV2A-x4771

>  <Pose>  (460) 
A4771a

$$$$
A4774a
     RDKit          3D

 20 21  0  0  0  0  0  0  0  0999 V2000
   10.5210   16.7120   19.1980 O   0  0  0  0  0  0  0  0  0  0  0  0
   10.7850   15.5270   19.4230 C   0  0  0  0  0  0  0  0  0  0  0  0
   11.0970   14.6690   18.4680 N   0  0  0  0  0  0  0  0  0  0  0  0
   10.8150   14.9840   20.8440 C   0  0  1  0  0  0  0  0  0  0  0  0
   11.8960   15.6830   21.6850 C   0  0  0  0  0  0  0  0  0  0  0  0
   11.9890   15.0770   23.0870 C   0  0  0  0  0  0  0  0  0  0  0  0
   10.6480   15.1450   23.7830 C   0  0  0  0  0  0  0  0  0  0  0  0
    9.4880   15.1400   21.5910 C   0  0  0  0  0  0  0  0  0  0  0  0
    9.5810   14.5750   22.9420 N   0  0  0  0  0  0  0  0  0  0  0  0
    8.7130   13.6300   23.3700 C   0  0  0  0  0  0  0  0  0  0  0  0
    7.9290   13.0820   22.6120 O   0  0  0  0  0  0  0  0  0  0  0  0
    8.7310   13.2860   24.8480 C   0  0  0  0  0  0  0  0  0  0  0  0
    7.9420   12.0510   25.1750 C   0  0  0  0  0  0  0  0  0  0  0  0
    8.2260   10.7020   24.6900 C   0  0  0  0  0  0  0  0  0  0  0  0
    9.5800   10.4700   23.5940 S   0  0  0  0  0  0  0  0  0  0  0  0
    9.5520    8.6990   23.3230 C   0  0  0  0  0  0  0  0  0  0  0  0
    6.9270   12.2400   26.0290 N   0  0  0  0  0  0  0  0  0  0  0  0
    6.2210   11.1680   26.4190 C   0  0  0  0  0  0  0  0  0  0  0  0
    6.4940    9.9020   25.9510 C   0  0  0  0  0  0  0  0  0  0  0  0
    7.4920    9.6570   25.0820 N   0  0  0  0  0  0  0  0  0  0  0  0
 16 15  1  0
 15 14  1  0
 14 20  2  0
 20 19  1  0
 19 18  2  0
 18 17  1  0
 17 13  2  0
 14 13  1  0
 13 12  1  0
 12 10  1  0
 11 10  2  0
 10  9  1  0
  9  7  1  0
  7  6  1  0
  6  5  1  0
  5  4  1  0
  4  2  1  6
  3  2  1  0
  2  1  2  0
  8  4  1  0
  9  8  1  0
M  END
>  <id>  (461) 
461

>  <inchikey>  (461) 
WUSGUAGFFPWQJA-VIFPVBQESA-N

>  <alias>  (461) 
A4774a

>  <smiles>  (461) 
CSc1nccnc1CC(=O)N1CCC[C@H](C(N)=O)C1

>  <path>  (461) 
/opt/xchem-fragalysis-2/maxwin/BulkDock/TARGETS/A71EV2A/aligned_files/A4774a/A4774a.pdb

>  <distance_score>  (461) 
None

>  <energy_score>  (461) 
None

>  <compound>  (461) 
WUSGUAGFFPWQJA-UHFFFAOYSA-N

>  <compound_id>  (461) 
348

>  <target>  (461) 
A71EV2A

>  <tags>  (461) 
['GOOD count', 'MEDIOCRE count', '[Other] S1 site', 'hits', '[Other] upload_3 2025-03-06', '[Other] S2 site', '[Other] P3 compound design', '[Series] Piperidine series', 'Main status', 'BAD count']

>  <inspirations>  (461) 
None

>  <subsites>  (461) 
None

>  <reference>  (461) 


>  <observation_longname>  (461) 
A71EV2A-x4774_A_201_v3

>  <ConformerSites alias>  (461) 
1b - A0911/A/147

>  <CanonSites alias>  (461) 
1 - Active Site

>  <CrystalformSites alias>  (461) 
F8h - A0884/A/147

>  <Quatassemblies alias>  (461) 
A1 - monomer

>  <Crystalforms alias>  (461) 
F8 - A712A_x4271_2.1_refmac1_1st_ref

>  <ConformerSites upload name>  (461) 
1b - A71EV2A-x0911/A/147

>  <CanonSites upload name>  (461) 
1 - A71EV2A-x0911/A/147/1

>  <CrystalformSites upload name>  (461) 
F8h - A71EV2A-x0884/A/147/1

>  <Quatassemblies upload name>  (461) 
A1 - monomer

>  <Crystalforms upload name>  (461) 
F8 - A712A_x4271_2.1_refmac1_1st_ref

>  <ConformerSites short tag>  (461) 
1b - A0911/A/147

>  <CanonSites short tag>  (461) 
1 - A0911/A/147/1

>  <CrystalformSites short tag>  (461) 
F8h - A0884/A/147

>  <Quatassemblies short tag>  (461) 
A1 - monomer

>  <Crystalforms short tag>  (461) 
F8 - A712A_x4271_2.1_refmac1_1st_ref

>  <Centroid res>  (461) 
A71EV2A-x0911/A/133/A_v1

>  <Experiment code>  (461) 
A71EV2A-x4774

>  <Pose>  (461) 
A4774a

$$$$
A4777a
     RDKit          3D

 24 25  0  0  0  0  0  0  0  0999 V2000
    9.9680   16.5590   18.9060 O   0  0  0  0  0  0  0  0  0  0  0  0
   10.5520   15.5570   19.3300 C   0  0  0  0  0  0  0  0  0  0  0  0
   11.1800   14.6710   18.5510 N   0  0  0  0  0  0  0  0  0  0  0  0
   10.5840   15.4270   20.8410 C   0  0  2  0  0  0  0  0  0  0  0  0
   12.3250   15.3080   21.3560 S   0  0  0  0  0  0  0  0  0  0  0  0
   11.9970   15.1350   23.1200 C   0  0  0  0  0  0  0  0  0  0  0  0
   11.1650   13.9190   23.4220 C   0  0  0  0  0  0  0  0  0  0  0  0
    9.9430   14.1090   21.2240 C   0  0  0  0  0  0  0  0  0  0  0  0
    9.8880   13.9350   22.6790 N   0  0  0  0  0  0  0  0  0  0  0  0
    8.6970   13.6020   23.2150 C   0  0  0  0  0  0  0  0  0  0  0  0
    7.6820   13.4940   22.5410 O   0  0  0  0  0  0  0  0  0  0  0  0
    8.7060   13.3240   24.7040 C   0  0  0  0  0  0  0  0  0  0  0  0
    7.7030   12.2600   25.0750 C   0  0  0  0  0  0  0  0  0  0  0  0
    7.9050   10.9260   24.7350 C   0  0  0  0  0  0  0  0  0  0  0  0
    8.7880   10.7300   23.7040 O   0  0  0  0  0  0  0  0  0  0  0  0
    9.5620    9.5300   23.6800 C   0  0  0  0  0  0  0  0  0  0  0  0
    6.6410   12.5800   25.9040 C   0  0  0  0  0  0  0  0  0  0  0  0
    5.8270   11.6120   26.4660 C   0  0  0  0  0  0  0  0  0  0  0  0
    4.7500   12.0290   27.4130 C   0  0  0  0  0  0  0  0  0  0  0  0
    4.3650   11.0560   28.2280 F   0  0  0  0  0  0  0  0  0  0  0  0
    3.6560   12.5020   26.7990 F   0  0  0  0  0  0  0  0  0  0  0  0
    5.1390   13.0500   28.1620 F   0  0  0  0  0  0  0  0  0  0  0  0
    6.0940   10.2780   26.1740 C   0  0  0  0  0  0  0  0  0  0  0  0
    7.1160    9.9300   25.3010 C   0  0  0  0  0  0  0  0  0  0  0  0
 16 15  1  0
 15 14  1  0
 14 24  2  0
 24 23  1  0
 23 18  2  0
 19 18  1  0
 22 19  1  0
 21 19  1  0
 20 19  1  0
 18 17  1  0
 17 13  2  0
 14 13  1  0
 13 12  1  0
 12 10  1  0
 11 10  2  0
 10  9  1  0
  9  7  1  0
  7  6  1  0
  6  5  1  0
  5  4  1  0
  4  2  1  6
  3  2  1  0
  2  1  2  0
  8  4  1  0
  9  8  1  0
M  END
>  <id>  (462) 
462

>  <inchikey>  (462) 
DNENLOCKKIRGNY-GFCCVEGCSA-N

>  <alias>  (462) 
A4777a

>  <smiles>  (462) 
COc1ccc(C(F)(F)F)cc1CC(=O)N1CCS[C@@H](C(N)=O)C1

>  <path>  (462) 
/opt/xchem-fragalysis-2/maxwin/BulkDock/TARGETS/A71EV2A/aligned_files/A4777a/A4777a.pdb

>  <distance_score>  (462) 
None

>  <energy_score>  (462) 
None

>  <compound>  (462) 
DNENLOCKKIRGNY-UHFFFAOYSA-N

>  <compound_id>  (462) 
349

>  <target>  (462) 
A71EV2A

>  <tags>  (462) 
['GOOD count', 'MEDIOCRE count', '[Other] S1 site', 'hits', '[Other] S2 site', '[Other] P3 compound design', '[Other] upload_1 2025-02-12', 'Main status', '[Series] Piperidine series', 'BAD count']

>  <inspirations>  (462) 
None

>  <subsites>  (462) 
None

>  <reference>  (462) 


>  <observation_longname>  (462) 
A71EV2A-x4777_A_201_v1

>  <ConformerSites alias>  (462) 
1b - A0911/A/147

>  <CanonSites alias>  (462) 
1 - Active Site

>  <CrystalformSites alias>  (462) 
F5i - A3175/A/201

>  <Quatassemblies alias>  (462) 
A1 - monomer

>  <Crystalforms alias>  (462) 
F5 - A71EV2A_x3178_new_long_dials_041024

>  <ConformerSites upload name>  (462) 
1b - A71EV2A-x0911/A/147

>  <CanonSites upload name>  (462) 
1 - A71EV2A-x0911/A/147/1

>  <CrystalformSites upload name>  (462) 
F5i - A71EV2A-x3175/A/201/1

>  <Quatassemblies upload name>  (462) 
A1 - monomer

>  <Crystalforms upload name>  (462) 
F5 - A71EV2A_x3178_new_long_dials_041024

>  <ConformerSites short tag>  (462) 
1b - A0911/A/147

>  <CanonSites short tag>  (462) 
1 - A0911/A/147/1

>  <CrystalformSites short tag>  (462) 
F5i - A3175/A/201

>  <Quatassemblies short tag>  (462) 
A1 - monomer

>  <Crystalforms short tag>  (462) 
F5 - A71EV2A_x3178_new_long_dials_041024

>  <Centroid res>  (462) 
A71EV2A-x0911/A/133/A_v1

>  <Experiment code>  (462) 
A71EV2A-x4777

>  <Pose>  (462) 
A4777a

$$$$
A4778a
     RDKit          3D

 24 25  0  0  0  0  0  0  0  0999 V2000
   10.0850   16.7750   19.0460 O   0  0  0  0  0  0  0  0  0  0  0  0
   10.4740   15.6450   19.3470 C   0  0  0  0  0  0  0  0  0  0  0  0
   10.9780   14.8010   18.4620 N   0  0  0  0  0  0  0  0  0  0  0  0
   10.4780   15.1480   20.7860 C   0  0  1  0  0  0  0  0  0  0  0  0
   11.8280   16.1430   21.4700 S   0  0  0  0  0  0  0  0  0  0  0  0
   11.8240   15.3500   23.0950 C   0  0  0  0  0  0  0  0  0  0  0  0
   10.4890   15.4690   23.7840 C   0  0  0  0  0  0  0  0  0  0  0  0
    9.2430   15.3610   21.6540 C   0  0  0  0  0  0  0  0  0  0  0  0
    9.4290   14.8270   23.0070 N   0  0  0  0  0  0  0  0  0  0  0  0
    8.6900   13.7980   23.4550 C   0  0  0  0  0  0  0  0  0  0  0  0
    7.8400   13.2740   22.7720 O   0  0  0  0  0  0  0  0  0  0  0  0
    8.9850   13.3070   24.8610 C   0  0  0  0  0  0  0  0  0  0  0  0
    8.0310   12.2180   25.2940 C   0  0  0  0  0  0  0  0  0  0  0  0
    8.1380   10.9290   24.7760 C   0  0  0  0  0  0  0  0  0  0  0  0
    9.1770   10.7390   23.9190 O   0  0  0  0  0  0  0  0  0  0  0  0
    9.1820    9.5360   23.1680 C   0  0  0  0  0  0  0  0  0  0  0  0
    6.9780   12.4930   26.1520 C   0  0  0  0  0  0  0  0  0  0  0  0
    6.0160   11.5410   26.4620 C   0  0  0  0  0  0  0  0  0  0  0  0
    4.8380   11.9200   27.3030 C   0  0  0  0  0  0  0  0  0  0  0  0
    4.1830   12.9240   26.8480 F   0  0  0  0  0  0  0  0  0  0  0  0
    5.1970   12.2610   28.5080 F   0  0  0  0  0  0  0  0  0  0  0  0
    3.9230   10.9950   27.3530 F   0  0  0  0  0  0  0  0  0  0  0  0
    6.1510   10.2600   25.9390 C   0  0  0  0  0  0  0  0  0  0  0  0
    7.2120    9.9450   25.1060 C   0  0  0  0  0  0  0  0  0  0  0  0
 16 15  1  0
 15 14  1  0
 14 24  2  0
 24 23  1  0
 23 18  2  0
 19 18  1  0
 22 19  1  0
 21 19  1  0
 20 19  1  0
 18 17  1  0
 17 13  2  0
 14 13  1  0
 13 12  1  0
 12 10  1  0
 11 10  2  0
 10  9  1  0
  9  7  1  0
  7  6  1  0
  6  5  1  0
  5  4  1  0
  4  2  1  6
  3  2  1  0
  2  1  2  0
  8  4  1  0
  9  8  1  0
M  END
>  <id>  (463) 
463

>  <inchikey>  (463) 
DNENLOCKKIRGNY-LBPRGKRZSA-N

>  <alias>  (463) 
A4778a

>  <smiles>  (463) 
COc1ccc(C(F)(F)F)cc1CC(=O)N1CCS[C@H](C(N)=O)C1

>  <path>  (463) 
/opt/xchem-fragalysis-2/maxwin/BulkDock/TARGETS/A71EV2A/aligned_files/A4778a/A4778a.pdb

>  <distance_score>  (463) 
None

>  <energy_score>  (463) 
None

>  <compound>  (463) 
DNENLOCKKIRGNY-UHFFFAOYSA-N

>  <compound_id>  (463) 
349

>  <target>  (463) 
A71EV2A

>  <tags>  (463) 
['GOOD count', 'MEDIOCRE count', '[Other] S1 site', 'hits', '[Other] S2 site', '[Other] upload_6_2025-02-13', '[Other] P3 compound design', '[Other] upload_1 2025-02-12', 'Main status', '[Series] Piperidine series', 'BAD count']

>  <inspirations>  (463) 
None

>  <subsites>  (463) 
None

>  <reference>  (463) 


>  <observation_longname>  (463) 
A71EV2A-x4778_A_201_v1

>  <ConformerSites alias>  (463) 
1b - A0911/A/147

>  <CanonSites alias>  (463) 
1 - Active Site

>  <CrystalformSites alias>  (463) 
F8h - A0884/A/147

>  <Quatassemblies alias>  (463) 
A1 - monomer

>  <Crystalforms alias>  (463) 
F8 - A712A_x4271_2.1_refmac1_1st_ref

>  <ConformerSites upload name>  (463) 
1b - A71EV2A-x0911/A/147

>  <CanonSites upload name>  (463) 
1 - A71EV2A-x0911/A/147/1

>  <CrystalformSites upload name>  (463) 
F8h - A71EV2A-x0884/A/147/1

>  <Quatassemblies upload name>  (463) 
A1 - monomer

>  <Crystalforms upload name>  (463) 
F8 - A712A_x4271_2.1_refmac1_1st_ref

>  <ConformerSites short tag>  (463) 
1b - A0911/A/147

>  <CanonSites short tag>  (463) 
1 - A0911/A/147/1

>  <CrystalformSites short tag>  (463) 
F8h - A0884/A/147

>  <Quatassemblies short tag>  (463) 
A1 - monomer

>  <Crystalforms short tag>  (463) 
F8 - A712A_x4271_2.1_refmac1_1st_ref

>  <Centroid res>  (463) 
A71EV2A-x0911/A/133/A_v1

>  <Experiment code>  (463) 
A71EV2A-x4778

>  <Pose>  (463) 
A4778a

$$$$
A4784a
     RDKit          3D

 18 19  0  0  0  0  0  0  0  0999 V2000
    7.1580   13.6860   21.8500 O   0  0  0  0  0  0  0  0  0  0  0  0
    7.9610   14.0330   22.6900 C   0  0  0  0  0  0  0  0  0  0  0  0
    8.9490   14.9050   22.4150 N   0  0  0  0  0  0  0  0  0  0  0  0
   10.0790   15.1850   23.3160 C   0  0  0  0  0  0  0  0  0  0  0  0
   11.4400   14.9400   22.6430 C   0  0  0  0  0  0  0  0  0  0  0  0
   11.4790   15.5420   21.2500 C   0  0  0  0  0  0  0  0  0  0  0  0
    9.0410   15.5470   21.1050 C   0  0  0  0  0  0  0  0  0  0  0  0
   10.2990   15.0340   20.4220 C   0  0  1  0  0  0  0  0  0  0  0  0
   10.4620   15.4090   18.9620 C   0  0  0  0  0  0  0  0  0  0  0  0
   10.0630   16.4960   18.5360 O   0  0  0  0  0  0  0  0  0  0  0  0
   11.1110   14.5210   18.2310 N   0  0  0  0  0  0  0  0  0  0  0  0
    7.8410   13.5270   24.1020 C   0  0  0  0  0  0  0  0  0  0  0  0
    7.7320   12.0170   24.1150 C   0  0  1  0  0  0  0  0  0  0  0  0
    9.2350   11.4380   23.2380 S   0  0  0  0  0  0  0  0  0  0  0  0
    9.2440    9.6510   23.5190 C   0  0  0  0  0  0  0  0  0  0  0  0
    8.8760    9.2790   24.8240 C   0  0  0  0  0  0  0  0  0  0  0  0
    7.2000    9.7880   25.2830 S   0  0  0  0  0  0  0  0  0  0  0  0
    7.5760   11.5330   25.5050 C   0  0  0  0  0  0  0  0  0  0  0  0
 11  9  1  0
 10  9  2  0
  8  9  1  6
  8  6  1  0
  6  5  1  0
  5  4  1  0
  4  3  1  0
  3  2  1  0
  2  1  2  0
 12  2  1  0
 13 12  1  1
 13 18  1  0
 18 17  1  0
 17 16  1  0
 16 15  1  0
 15 14  1  0
 14 13  1  0
  7  3  1  0
  8  7  1  0
M  END
>  <id>  (464) 
464

>  <inchikey>  (464) 
KOQMCRODGRBJEU-VHSXEESVSA-N

>  <alias>  (464) 
A4784a

>  <smiles>  (464) 
NC(=O)[C@H]1CCCN(C(=O)C[C@@H]2CSCCS2)C1

>  <path>  (464) 
/opt/xchem-fragalysis-2/maxwin/BulkDock/TARGETS/A71EV2A/aligned_files/A4784a/A4784a.pdb

>  <distance_score>  (464) 
None

>  <energy_score>  (464) 
None

>  <compound>  (464) 
KOQMCRODGRBJEU-UHFFFAOYSA-N

>  <compound_id>  (464) 
350

>  <target>  (464) 
A71EV2A

>  <tags>  (464) 
['GOOD count', 'MEDIOCRE count', '[Other] S1 site', 'hits', '[Other] upload_3 2025-03-06', '[Other] S2 site', '[Other] P3 compound design', '[Series] Piperidine series', 'Main status', 'BAD count']

>  <inspirations>  (464) 
None

>  <subsites>  (464) 
None

>  <reference>  (464) 


>  <observation_longname>  (464) 
A71EV2A-x4784_A_201_v3

>  <ConformerSites alias>  (464) 
1b - A0911/A/147

>  <CanonSites alias>  (464) 
1 - Active Site

>  <CrystalformSites alias>  (464) 
F5i - A3175/A/201

>  <Quatassemblies alias>  (464) 
A1 - monomer

>  <Crystalforms alias>  (464) 
F5 - A71EV2A_x3178_new_long_dials_041024

>  <ConformerSites upload name>  (464) 
1b - A71EV2A-x0911/A/147

>  <CanonSites upload name>  (464) 
1 - A71EV2A-x0911/A/147/1

>  <CrystalformSites upload name>  (464) 
F5i - A71EV2A-x3175/A/201/1

>  <Quatassemblies upload name>  (464) 
A1 - monomer

>  <Crystalforms upload name>  (464) 
F5 - A71EV2A_x3178_new_long_dials_041024

>  <ConformerSites short tag>  (464) 
1b - A0911/A/147

>  <CanonSites short tag>  (464) 
1 - A0911/A/147/1

>  <CrystalformSites short tag>  (464) 
F5i - A3175/A/201

>  <Quatassemblies short tag>  (464) 
A1 - monomer

>  <Crystalforms short tag>  (464) 
F5 - A71EV2A_x3178_new_long_dials_041024

>  <Centroid res>  (464) 
A71EV2A-x0911/A/133/A_v1

>  <Experiment code>  (464) 
A71EV2A-x4784

>  <Pose>  (464) 
A4784a

$$$$
A4786a
     RDKit          3D

 16 17  0  0  0  0  0  0  0  0999 V2000
    7.5020   12.8670   22.8040 O   0  0  0  0  0  0  0  0  0  0  0  0
    8.3410   13.4450   23.4570 C   0  0  0  0  0  0  0  0  0  0  0  0
    8.5430   13.1130   24.9160 C   0  0  1  0  0  0  0  0  0  0  0  0
    7.3040   12.3420   25.4960 C   0  0  0  0  0  0  0  0  0  0  0  0
    7.7050   10.5850   25.4980 S   0  0  0  0  0  0  0  0  0  0  0  0
    9.3130   10.7510   24.9250 C   0  0  0  0  0  0  0  0  0  0  0  0
    9.7490   12.1810   25.2110 C   0  0  0  0  0  0  0  0  0  0  0  0
    9.0780   14.4360   22.9360 N   0  0  0  0  0  0  0  0  0  0  0  0
   10.0570   15.1590   23.7500 C   0  0  0  0  0  0  0  0  0  0  0  0
   11.4420   15.0630   23.1450 C   0  0  0  0  0  0  0  0  0  0  0  0
   11.4390   15.5840   21.7160 C   0  0  0  0  0  0  0  0  0  0  0  0
    8.9990   14.9260   21.5630 C   0  0  0  0  0  0  0  0  0  0  0  0
   10.3750   14.8400   20.8900 C   0  0  1  0  0  0  0  0  0  0  0  0
   10.3060   15.3490   19.4590 C   0  0  0  0  0  0  0  0  0  0  0  0
    9.9840   16.5020   19.1880 O   0  0  0  0  0  0  0  0  0  0  0  0
   10.6040   14.4470   18.5350 N   0  0  0  0  0  0  0  0  0  0  0  0
 16 14  1  0
 15 14  2  0
 13 14  1  6
 13 11  1  0
 11 10  1  0
 10  9  1  0
  9  8  1  0
  8  2  1  0
  2  1  2  0
  3  2  1  6
  3  7  1  0
  7  6  1  0
  6  5  1  0
  5  4  1  0
  4  3  1  0
 12  8  1  0
 13 12  1  0
M  END
>  <id>  (465) 
465

>  <inchikey>  (465) 
FOWCZQMGYPBKOB-DTWKUNHWSA-N

>  <alias>  (465) 
A4786a

>  <smiles>  (465) 
NC(=O)[C@H]1CCCN(C(=O)[C@@H]2CCSC2)C1

>  <path>  (465) 
/opt/xchem-fragalysis-2/maxwin/BulkDock/TARGETS/A71EV2A/aligned_files/A4786a/A4786a.pdb

>  <distance_score>  (465) 
None

>  <energy_score>  (465) 
None

>  <compound>  (465) 
FOWCZQMGYPBKOB-UHFFFAOYSA-N

>  <compound_id>  (465) 
351

>  <target>  (465) 
A71EV2A

>  <tags>  (465) 
['GOOD count', 'MEDIOCRE count', '[Other] S1 site', 'hits', '[Other] S2 site', '[Other] P3 compound design', '[Other] upload_1 2025-02-12', 'Main status', '[Series] Piperidine series', 'BAD count']

>  <inspirations>  (465) 
None

>  <subsites>  (465) 
None

>  <reference>  (465) 


>  <observation_longname>  (465) 
A71EV2A-x4786_A_201_v1

>  <ConformerSites alias>  (465) 
1b - A0911/A/147

>  <CanonSites alias>  (465) 
1 - Active Site

>  <CrystalformSites alias>  (465) 
F5i - A3175/A/201

>  <Quatassemblies alias>  (465) 
A1 - monomer

>  <Crystalforms alias>  (465) 
F5 - A71EV2A_x3178_new_long_dials_041024

>  <ConformerSites upload name>  (465) 
1b - A71EV2A-x0911/A/147

>  <CanonSites upload name>  (465) 
1 - A71EV2A-x0911/A/147/1

>  <CrystalformSites upload name>  (465) 
F5i - A71EV2A-x3175/A/201/1

>  <Quatassemblies upload name>  (465) 
A1 - monomer

>  <Crystalforms upload name>  (465) 
F5 - A71EV2A_x3178_new_long_dials_041024

>  <ConformerSites short tag>  (465) 
1b - A0911/A/147

>  <CanonSites short tag>  (465) 
1 - A0911/A/147/1

>  <CrystalformSites short tag>  (465) 
F5i - A3175/A/201

>  <Quatassemblies short tag>  (465) 
A1 - monomer

>  <Crystalforms short tag>  (465) 
F5 - A71EV2A_x3178_new_long_dials_041024

>  <Centroid res>  (465) 
A71EV2A-x0911/A/133/A_v1

>  <Experiment code>  (465) 
A71EV2A-x4786

>  <Pose>  (465) 
A4786a

$$$$
A4791a
     RDKit          3D

 21 23  0  0  0  0  0  0  0  0999 V2000
    2.4710   14.6310   23.1660 O   0  0  0  0  0  0  0  0  0  0  0  0
    3.6560   14.8130   23.4470 C   0  0  0  0  0  0  0  0  0  0  0  0
    4.5860   15.2640   22.6060 N   0  0  0  0  0  0  0  0  0  0  0  0
    5.9010   15.4360   23.1980 C   0  0  0  0  0  0  0  0  0  0  0  0
    5.8070   14.6180   24.4830 C   0  0  2  0  0  0  0  0  0  0  0  0
    4.2940   14.5840   24.8040 C   0  0  1  0  0  0  0  0  0  0  0  0
    3.8550   15.6260   25.8400 C   0  0  0  0  0  0  0  0  0  0  0  0
    4.9020   15.8220   26.9240 C   0  0  0  0  0  0  0  0  0  0  0  0
    6.2440   16.1900   26.3210 C   0  0  0  0  0  0  0  0  0  0  0  0
    6.7560   15.0850   25.5150 N   0  0  0  0  0  0  0  0  0  0  0  0
    7.9370   14.4750   25.7720 C   0  0  0  0  0  0  0  0  0  0  0  0
    8.7550   14.9600   26.5170 O   0  0  0  0  0  0  0  0  0  0  0  0
    8.2770   13.1950   25.0410 C   0  0  0  0  0  0  0  0  0  0  0  0
    7.5080   11.9810   25.5140 C   0  0  0  0  0  0  0  0  0  0  0  0
    7.7960   10.7290   24.9690 C   0  0  0  0  0  0  0  0  0  0  0  0
    9.1470   10.7040   23.8320 S   0  0  0  0  0  0  0  0  0  0  0  0
    9.1940    8.9940   23.3490 C   0  0  0  0  0  0  0  0  0  0  0  0
    6.4970   12.0600   26.4700 C   0  0  0  0  0  0  0  0  0  0  0  0
    5.7870   10.9310   26.8510 C   0  0  0  0  0  0  0  0  0  0  0  0
    6.0570    9.7220   26.2780 C   0  0  0  0  0  0  0  0  0  0  0  0
    7.0590    9.6060   25.3330 C   0  0  0  0  0  0  0  0  0  0  0  0
 17 16  1  0
 16 15  1  0
 15 21  2  0
 21 20  1  0
 20 19  2  0
 19 18  1  0
 18 14  2  0
 15 14  1  0
 14 13  1  0
 13 11  1  0
 12 11  2  0
 11 10  1  0
 10  9  1  0
  9  8  1  0
  8  7  1  0
  6  7  1  1
  6  2  1  0
  2  1  2  0
  3  2  1  0
  4  3  1  0
  5  4  1  6
  6  5  1  0
 10  5  1  0
M  END
>  <id>  (466) 
466

>  <inchikey>  (466) 
NUFYJAWXWSXWTQ-CHWSQXEVSA-N

>  <alias>  (466) 
A4791a

>  <smiles>  (466) 
CSc1ccccc1CC(=O)N1CCC[C@H]2C(=O)NC[C@H]21

>  <path>  (466) 
/opt/xchem-fragalysis-2/maxwin/BulkDock/TARGETS/A71EV2A/aligned_files/A4791a/A4791a.pdb

>  <distance_score>  (466) 
None

>  <energy_score>  (466) 
None

>  <compound>  (466) 
NUFYJAWXWSXWTQ-UHFFFAOYSA-N

>  <compound_id>  (466) 
352

>  <target>  (466) 
A71EV2A

>  <tags>  (466) 
['GOOD count', 'MEDIOCRE count', '[Other] S1 site', 'hits', '[Other] S2 site', '[Other] P3 compound design', '[Other] upload_1 2025-02-12', 'Main status', '[Series] Piperidine series', 'BAD count']

>  <inspirations>  (466) 
None

>  <subsites>  (466) 
None

>  <reference>  (466) 


>  <observation_longname>  (466) 
A71EV2A-x4791_A_201_v1

>  <ConformerSites alias>  (466) 
1b - A0911/A/147

>  <CanonSites alias>  (466) 
1 - Active Site

>  <CrystalformSites alias>  (466) 
F5i - A3175/A/201

>  <Quatassemblies alias>  (466) 
A1 - monomer

>  <Crystalforms alias>  (466) 
F5 - A71EV2A_x3178_new_long_dials_041024

>  <ConformerSites upload name>  (466) 
1b - A71EV2A-x0911/A/147

>  <CanonSites upload name>  (466) 
1 - A71EV2A-x0911/A/147/1

>  <CrystalformSites upload name>  (466) 
F5i - A71EV2A-x3175/A/201/1

>  <Quatassemblies upload name>  (466) 
A1 - monomer

>  <Crystalforms upload name>  (466) 
F5 - A71EV2A_x3178_new_long_dials_041024

>  <ConformerSites short tag>  (466) 
1b - A0911/A/147

>  <CanonSites short tag>  (466) 
1 - A0911/A/147/1

>  <CrystalformSites short tag>  (466) 
F5i - A3175/A/201

>  <Quatassemblies short tag>  (466) 
A1 - monomer

>  <Crystalforms short tag>  (466) 
F5 - A71EV2A_x3178_new_long_dials_041024

>  <Centroid res>  (466) 
A71EV2A-x0911/A/133/A_v1

>  <Experiment code>  (466) 
A71EV2A-x4791

>  <Pose>  (466) 
A4791a

$$$$
A4794a
     RDKit          3D

 18 19  0  0  0  0  0  0  0  0999 V2000
    7.6000   13.3740   22.7680 O   0  0  0  0  0  0  0  0  0  0  0  0
    8.5140   13.6660   23.5240 C   0  0  0  0  0  0  0  0  0  0  0  0
    9.5580   14.4100   23.1300 N   0  0  0  0  0  0  0  0  0  0  0  0
    9.3240   15.3700   22.0520 C   0  0  0  0  0  0  0  0  0  0  0  0
   10.3050   15.1180   20.9370 C   0  0  1  0  0  0  0  0  0  0  0  0
   10.0100   15.9970   19.8610 O   0  0  0  0  0  0  0  0  0  0  0  0
   11.7370   15.3240   21.4120 C   0  0  0  0  0  0  0  0  0  0  0  0
   11.9420   15.1530   22.9190 C   0  0  0  0  0  0  0  0  0  0  0  0
   10.9480   14.1960   23.5780 C   0  0  0  0  0  0  0  0  0  0  0  0
    8.5630   13.2210   24.9710 C   0  0  0  0  0  0  0  0  0  0  0  0
    7.6060   12.0820   25.2410 C   0  0  0  0  0  0  0  0  0  0  0  0
    7.8220   10.7800   24.7730 C   0  0  0  0  0  0  0  0  0  0  0  0
    9.1260   10.5700   23.5960 S   0  0  0  0  0  0  0  0  0  0  0  0
    9.3930    8.8200   23.5120 C   0  0  0  0  0  0  0  0  0  0  0  0
    6.5160   12.3140   26.0740 C   0  0  0  0  0  0  0  0  0  0  0  0
    5.6970   11.2810   26.4840 C   0  0  0  0  0  0  0  0  0  0  0  0
    5.9370   10.0040   26.0520 C   0  0  0  0  0  0  0  0  0  0  0  0
    6.9890    9.7430   25.1840 C   0  0  0  0  0  0  0  0  0  0  0  0
 14 13  1  0
 13 12  1  0
 12 18  2  0
 18 17  1  0
 17 16  2  0
 16 15  1  0
 15 11  2  0
 12 11  1  0
 11 10  1  0
 10  2  1  0
  2  1  2  0
  3  2  1  0
  3  9  1  0
  9  8  1  0
  8  7  1  0
  7  5  1  0
  5  6  1  6
  5  4  1  0
  4  3  1  0
M  END
>  <id>  (467) 
467

>  <inchikey>  (467) 
IIOAYFHECFIEIZ-LBPRGKRZSA-N

>  <alias>  (467) 
A4794a

>  <smiles>  (467) 
CSc1ccccc1CC(=O)N1CCC[C@H](O)C1

>  <path>  (467) 
/opt/xchem-fragalysis-2/maxwin/BulkDock/TARGETS/A71EV2A/aligned_files/A4794a/A4794a.pdb

>  <distance_score>  (467) 
None

>  <energy_score>  (467) 
None

>  <compound>  (467) 
IIOAYFHECFIEIZ-UHFFFAOYSA-N

>  <compound_id>  (467) 
353

>  <target>  (467) 
A71EV2A

>  <tags>  (467) 
['GOOD count', 'MEDIOCRE count', '[Other] S1 site', 'hits', '[Other] S2 site', '[Other] P3 compound design', '[Other] upload_1 2025-02-12', 'Main status', '[Series] Piperidine series', 'BAD count']

>  <inspirations>  (467) 
None

>  <subsites>  (467) 
None

>  <reference>  (467) 


>  <observation_longname>  (467) 
A71EV2A-x4794_A_201_v1

>  <ConformerSites alias>  (467) 
1b - A0911/A/147

>  <CanonSites alias>  (467) 
1 - Active Site

>  <CrystalformSites alias>  (467) 
F5i - A3175/A/201

>  <Quatassemblies alias>  (467) 
A1 - monomer

>  <Crystalforms alias>  (467) 
F5 - A71EV2A_x3178_new_long_dials_041024

>  <ConformerSites upload name>  (467) 
1b - A71EV2A-x0911/A/147

>  <CanonSites upload name>  (467) 
1 - A71EV2A-x0911/A/147/1

>  <CrystalformSites upload name>  (467) 
F5i - A71EV2A-x3175/A/201/1

>  <Quatassemblies upload name>  (467) 
A1 - monomer

>  <Crystalforms upload name>  (467) 
F5 - A71EV2A_x3178_new_long_dials_041024

>  <ConformerSites short tag>  (467) 
1b - A0911/A/147

>  <CanonSites short tag>  (467) 
1 - A0911/A/147/1

>  <CrystalformSites short tag>  (467) 
F5i - A3175/A/201

>  <Quatassemblies short tag>  (467) 
A1 - monomer

>  <Crystalforms short tag>  (467) 
F5 - A71EV2A_x3178_new_long_dials_041024

>  <Centroid res>  (467) 
A71EV2A-x0911/A/133/A_v1

>  <Experiment code>  (467) 
A71EV2A-x4794

>  <Pose>  (467) 
A4794a

$$$$
A4798a
     RDKit          3D

 22 24  0  0  0  0  0  0  0  0999 V2000
    9.3480   14.2770   25.9070 O   0  0  0  0  0  0  0  0  0  0  0  0
    9.1180   14.1630   24.7050 C   0  0  0  0  0  0  0  0  0  0  0  0
    7.7760   13.6440   24.2120 C   0  0  0  0  0  0  0  0  0  0  0  0
    7.3230   12.4120   24.9650 C   0  0  0  0  0  0  0  0  0  0  0  0
    6.3480   12.5400   25.9540 C   0  0  0  0  0  0  0  0  0  0  0  0
    5.9360   11.4530   26.7030 C   0  0  0  0  0  0  0  0  0  0  0  0
    6.4700   10.2120   26.4630 C   0  0  0  0  0  0  0  0  0  0  0  0
    7.4200   10.0420   25.4680 C   0  0  0  0  0  0  0  0  0  0  0  0
    7.8630   11.1390   24.7290 C   0  0  0  0  0  0  0  0  0  0  0  0
    9.1460   11.0120   23.5190 S   0  0  0  0  0  0  0  0  0  0  0  0
    9.4300    9.2530   23.3570 C   0  0  0  0  0  0  0  0  0  0  0  0
   10.0300   14.4840   23.7560 N   0  0  0  0  0  0  0  0  0  0  0  0
    9.7430   14.5030   22.3210 C   0  0  0  0  0  0  0  0  0  0  0  0
   11.1000   14.5080   21.6580 C   0  0  2  0  0  0  0  0  0  0  0  0
   11.6260   13.1800   21.5780 O   0  0  0  0  0  0  0  0  0  0  0  0
   11.9380   15.3260   22.6470 C   0  0  0  0  0  0  0  0  0  0  0  0
   11.4240   14.8840   24.0180 C   0  0  0  0  0  0  0  0  0  0  0  0
   10.9630   15.0680   20.2420 C   0  0  0  0  0  0  0  0  0  0  0  0
   11.6930   14.6460   19.1640 N   0  0  0  0  0  0  0  0  0  0  0  0
   11.2440   15.2500   18.0810 N   0  0  0  0  0  0  0  0  0  0  0  0
   10.2470   16.0560   18.4740 N   0  0  0  0  0  0  0  0  0  0  0  0
   10.0480   15.9790   19.7940 C   0  0  0  0  0  0  0  0  0  0  0  0
 11 10  1  0
 10  9  1  0
  9  8  1  0
  8  7  2  0
  7  6  1  0
  6  5  2  0
  5  4  1  0
  9  4  2  0
  4  3  1  0
  3  2  1  0
  2  1  2  0
 12  2  1  0
 12 17  1  0
 17 16  1  0
 16 14  1  0
 14 15  1  6
 18 14  1  0
 18 22  2  0
 22 21  1  0
 21 20  1  0
 20 19  2  0
 19 18  1  0
 14 13  1  0
 13 12  1  0
M  END
>  <id>  (468) 
468

>  <inchikey>  (468) 
SBDJWGHKLQGOOQ-OAHLLOKOSA-N

>  <alias>  (468) 
A4798a

>  <smiles>  (468) 
CSc1ccccc1CC(=O)N1CC[C@](O)(c2c[nH]nn2)C1

>  <path>  (468) 
/opt/xchem-fragalysis-2/maxwin/BulkDock/TARGETS/A71EV2A/aligned_files/A4798a/A4798a.pdb

>  <distance_score>  (468) 
None

>  <energy_score>  (468) 
None

>  <compound>  (468) 
SBDJWGHKLQGOOQ-UHFFFAOYSA-N

>  <compound_id>  (468) 
354

>  <target>  (468) 
A71EV2A

>  <tags>  (468) 
['GOOD count', 'MEDIOCRE count', '[Other] S1 site', 'hits', '[Other] S2 site', '[Other] P3 compound design', '[Other] upload_1 2025-02-12', 'Main status', '[Series] Piperidine series', 'BAD count']

>  <inspirations>  (468) 
None

>  <subsites>  (468) 
None

>  <reference>  (468) 


>  <observation_longname>  (468) 
A71EV2A-x4798_A_201_v1

>  <ConformerSites alias>  (468) 
1b - A0911/A/147

>  <CanonSites alias>  (468) 
1 - Active Site

>  <CrystalformSites alias>  (468) 
F1a - A0375/A/201

>  <Quatassemblies alias>  (468) 
A1 - monomer

>  <Crystalforms alias>  (468) 
F1 - A71_2A_open

>  <ConformerSites upload name>  (468) 
1b - A71EV2A-x0911/A/147

>  <CanonSites upload name>  (468) 
1 - A71EV2A-x0911/A/147/1

>  <CrystalformSites upload name>  (468) 
F1a - A71EV2A-x0375/A/201/1

>  <Quatassemblies upload name>  (468) 
A1 - monomer

>  <Crystalforms upload name>  (468) 
F1 - A71_2A_open

>  <ConformerSites short tag>  (468) 
1b - A0911/A/147

>  <CanonSites short tag>  (468) 
1 - A0911/A/147/1

>  <CrystalformSites short tag>  (468) 
F1a - A0375/A/201

>  <Quatassemblies short tag>  (468) 
A1 - monomer

>  <Crystalforms short tag>  (468) 
F1 - A71_2A_open

>  <Centroid res>  (468) 
A71EV2A-x0911/A/133/A_v1

>  <Experiment code>  (468) 
A71EV2A-x4798

>  <Pose>  (468) 
A4798a

$$$$
A4806a
     RDKit          3D

 20 22  0  0  0  0  0  0  0  0999 V2000
    7.1130   13.6550   22.2680 O   0  0  0  0  0  0  0  0  0  0  0  0
    7.9520   13.9720   23.0950 C   0  0  0  0  0  0  0  0  0  0  0  0
    8.9080   14.8880   22.8180 N   0  0  0  0  0  0  0  0  0  0  0  0
    9.8900   15.4140   23.7840 C   0  0  0  0  0  0  0  0  0  0  0  0
   11.3150   15.2020   23.2890 C   0  0  0  0  0  0  0  0  0  0  0  0
   11.4800   15.7340   21.8610 C   0  0  0  0  0  0  0  0  0  0  0  0
    9.0470   15.4270   21.4620 C   0  0  0  0  0  0  0  0  0  0  0  0
   10.4390   15.1060   20.9160 C   0  0  1  0  0  0  0  0  0  0  0  0
   10.5660   15.6360   19.4980 C   0  0  0  0  0  0  0  0  0  0  0  0
   10.3000   16.8070   19.2330 O   0  0  0  0  0  0  0  0  0  0  0  0
   10.9290   14.7570   18.5790 N   0  0  0  0  0  0  0  0  0  0  0  0
    7.9610   13.2990   24.4650 C   0  0  2  0  0  0  0  0  0  0  0  0
    8.1720   11.8210   24.2040 C   0  0  0  0  0  0  0  0  0  0  0  0
    7.3360   10.9670   24.9260 C   0  0  0  0  0  0  0  0  0  0  0  0
    6.1090   11.8010   25.8700 S   0  0  0  0  0  0  0  0  0  0  0  0
    6.5910   13.3920   25.1600 C   0  0  0  0  0  0  0  0  0  0  0  0
    9.1500   11.2650   23.3810 C   0  0  0  0  0  0  0  0  0  0  0  0
    9.2770    9.8900   23.2720 C   0  0  0  0  0  0  0  0  0  0  0  0
    8.4210    9.0550   23.9690 C   0  0  0  0  0  0  0  0  0  0  0  0
    7.4480    9.5850   24.8040 C   0  0  0  0  0  0  0  0  0  0  0  0
 11  9  1  0
 10  9  2  0
  8  9  1  6
  8  6  1  0
  6  5  1  0
  5  4  1  0
  4  3  1  0
  3  2  1  0
  2  1  2  0
 12  2  1  6
 12 16  1  0
 16 15  1  0
 15 14  1  0
 14 20  2  0
 20 19  1  0
 19 18  2  0
 18 17  1  0
 17 13  2  0
 14 13  1  0
 13 12  1  0
  7  3  1  0
  8  7  1  0
M  END
>  <id>  (469) 
469

>  <inchikey>  (469) 
BHNNBJPWVZNUPG-JQWIXIFHSA-N

>  <alias>  (469) 
A4806a

>  <smiles>  (469) 
NC(=O)[C@H]1CCCN(C(=O)[C@H]2CSc3ccccc32)C1

>  <path>  (469) 
/opt/xchem-fragalysis-2/maxwin/BulkDock/TARGETS/A71EV2A/aligned_files/A4806a/A4806a_hippo.pdb

>  <distance_score>  (469) 
None

>  <energy_score>  (469) 
None

>  <compound>  (469) 
BHNNBJPWVZNUPG-UHFFFAOYSA-N

>  <compound_id>  (469) 
355

>  <target>  (469) 
A71EV2A

>  <tags>  (469) 
['GOOD count', 'MEDIOCRE count', '[Other] S1 site', 'hits', '[Other] S2 site', '[Other] P3 compound design', '[Other] upload_1 2025-02-12', 'Main status', '[Series] Piperidine series', 'BAD count']

>  <inspirations>  (469) 
None

>  <subsites>  (469) 
None

>  <reference>  (469) 


>  <observation_longname>  (469) 
A71EV2A-x4806_A_201_v1

>  <ConformerSites alias>  (469) 
1b - A0911/A/147

>  <CanonSites alias>  (469) 
1 - Active Site

>  <CrystalformSites alias>  (469) 
F7q - A4303/A/201

>  <Quatassemblies alias>  (469) 
A1 - monomer

>  <Crystalforms alias>  (469) 
F7 - A712A_x4207_8.1_refmac1_1st_ref

>  <ConformerSites upload name>  (469) 
1b - A71EV2A-x0911/A/147

>  <CanonSites upload name>  (469) 
1 - A71EV2A-x0911/A/147/1

>  <CrystalformSites upload name>  (469) 
F7q - A71EV2A-x4303/A/201/1

>  <Quatassemblies upload name>  (469) 
A1 - monomer

>  <Crystalforms upload name>  (469) 
F7 - A712A_x4207_8.1_refmac1_1st_ref

>  <ConformerSites short tag>  (469) 
1b - A0911/A/147

>  <CanonSites short tag>  (469) 
1 - A0911/A/147/1

>  <CrystalformSites short tag>  (469) 
F7q - A4303/A/201

>  <Quatassemblies short tag>  (469) 
A1 - monomer

>  <Crystalforms short tag>  (469) 
F7 - A712A_x4207_8.1_refmac1_1st_ref

>  <Centroid res>  (469) 
A71EV2A-x0911/A/133/A_v1

>  <Experiment code>  (469) 
A71EV2A-x4806

>  <Pose>  (469) 
A4806a

$$$$
A4806b
     RDKit          3D

 20 22  0  0  0  0  0  0  0  0999 V2000
    7.2240   13.4950   22.4530 O   0  0  0  0  0  0  0  0  0  0  0  0
    8.0820   13.8500   23.2480 C   0  0  0  0  0  0  0  0  0  0  0  0
    8.9690   14.8220   22.9410 N   0  0  0  0  0  0  0  0  0  0  0  0
    9.9350   15.4290   23.8720 C   0  0  0  0  0  0  0  0  0  0  0  0
   11.3620   15.2720   23.3560 C   0  0  0  0  0  0  0  0  0  0  0  0
   11.4790   15.7570   21.9040 C   0  0  0  0  0  0  0  0  0  0  0  0
    9.0430   15.3600   21.5810 C   0  0  0  0  0  0  0  0  0  0  0  0
   10.4300   15.0860   21.0020 C   0  0  1  0  0  0  0  0  0  0  0  0
   10.4910   15.6220   19.5830 C   0  0  0  0  0  0  0  0  0  0  0  0
   10.1740   16.7880   19.3300 O   0  0  0  0  0  0  0  0  0  0  0  0
   10.8680   14.7530   18.6580 N   0  0  0  0  0  0  0  0  0  0  0  0
    8.1910   13.1760   24.6130 C   0  0  2  0  0  0  0  0  0  0  0  0
    8.4030   11.7040   24.3250 C   0  0  0  0  0  0  0  0  0  0  0  0
    7.6110   10.8330   25.0760 C   0  0  0  0  0  0  0  0  0  0  0  0
    6.4580   11.6400   26.1260 S   0  0  0  0  0  0  0  0  0  0  0  0
    6.8960   13.2510   25.4380 C   0  0  0  0  0  0  0  0  0  0  0  0
    9.3350   11.1640   23.4440 C   0  0  0  0  0  0  0  0  0  0  0  0
    9.4560    9.7920   23.3050 C   0  0  0  0  0  0  0  0  0  0  0  0
    8.6400    8.9420   24.0230 C   0  0  0  0  0  0  0  0  0  0  0  0
    7.7170    9.4520   24.9210 C   0  0  0  0  0  0  0  0  0  0  0  0
 11  9  1  0
 10  9  2  0
  8  9  1  6
  8  6  1  0
  6  5  1  0
  5  4  1  0
  4  3  1  0
  3  2  1  0
  2  1  2  0
 12  2  1  6
 12 16  1  0
 16 15  1  0
 15 14  1  0
 14 20  2  0
 20 19  1  0
 19 18  2  0
 18 17  1  0
 17 13  2  0
 14 13  1  0
 13 12  1  0
  7  3  1  0
  8  7  1  0
M  END
>  <id>  (470) 
470

>  <inchikey>  (470) 
BHNNBJPWVZNUPG-JQWIXIFHSA-N

>  <alias>  (470) 
A4806b

>  <smiles>  (470) 
NC(=O)[C@H]1CCCN(C(=O)[C@H]2CSc3ccccc32)C1

>  <path>  (470) 
/opt/xchem-fragalysis-2/maxwin/BulkDock/TARGETS/A71EV2A/aligned_files/A4806b/A4806b_hippo.pdb

>  <distance_score>  (470) 
None

>  <energy_score>  (470) 
None

>  <compound>  (470) 
BHNNBJPWVZNUPG-UHFFFAOYSA-N

>  <compound_id>  (470) 
355

>  <target>  (470) 
A71EV2A

>  <tags>  (470) 
['GOOD count', 'MEDIOCRE count', '[Other] S1 site', 'hits', '[Other] S2 site', '[Other] P3 compound design', '[Other] upload_1 2025-02-12', 'Main status', '[Series] Piperidine series', 'BAD count']

>  <inspirations>  (470) 
None

>  <subsites>  (470) 
None

>  <reference>  (470) 


>  <observation_longname>  (470) 
A71EV2A-x4806_C_201_v1

>  <ConformerSites alias>  (470) 
1b - A0911/A/147

>  <CanonSites alias>  (470) 
1 - Active Site

>  <CrystalformSites alias>  (470) 
F7r - A4303/C/201

>  <Quatassemblies alias>  (470) 
A1 - monomer

>  <Crystalforms alias>  (470) 
F7 - A712A_x4207_8.1_refmac1_1st_ref

>  <ConformerSites upload name>  (470) 
1b - A71EV2A-x0911/A/147

>  <CanonSites upload name>  (470) 
1 - A71EV2A-x0911/A/147/1

>  <CrystalformSites upload name>  (470) 
F7r - A71EV2A-x4303/C/201/1

>  <Quatassemblies upload name>  (470) 
A1 - monomer

>  <Crystalforms upload name>  (470) 
F7 - A712A_x4207_8.1_refmac1_1st_ref

>  <ConformerSites short tag>  (470) 
1b - A0911/A/147

>  <CanonSites short tag>  (470) 
1 - A0911/A/147/1

>  <CrystalformSites short tag>  (470) 
F7r - A4303/C/201

>  <Quatassemblies short tag>  (470) 
A1 - monomer

>  <Crystalforms short tag>  (470) 
F7 - A712A_x4207_8.1_refmac1_1st_ref

>  <Centroid res>  (470) 
A71EV2A-x0911/A/133/A_v1

>  <Experiment code>  (470) 
A71EV2A-x4806

>  <Pose>  (470) 
A4806a

$$$$
A4809a
     RDKit          3D

 20 21  0  0  0  0  0  0  0  0999 V2000
    7.8840   13.5220   23.2610 O   0  0  0  0  0  0  0  0  0  0  0  0
    8.8260   13.8500   23.9460 C   0  0  0  0  0  0  0  0  0  0  0  0
    9.6660   14.8380   23.5560 N   0  0  0  0  0  0  0  0  0  0  0  0
    9.3640   15.4630   22.2710 C   0  0  0  0  0  0  0  0  0  0  0  0
   10.4820   15.1360   21.2940 C   0  0  1  0  0  0  0  0  0  0  0  0
   10.1800   15.6630   19.8940 C   0  0  0  0  0  0  0  0  0  0  0  0
   11.2940   15.3130   18.9340 C   0  0  0  0  0  0  0  0  0  0  0  0
   11.0550   15.8700   17.6340 O   0  0  0  0  0  0  0  0  0  0  0  0
   11.7880   15.6920   21.8400 C   0  0  0  0  0  0  0  0  0  0  0  0
   12.0700   15.2010   23.2570 C   0  0  0  0  0  0  0  0  0  0  0  0
   10.8810   15.3810   24.1570 C   0  0  0  0  0  0  0  0  0  0  0  0
    9.0520   13.1310   25.2640 C   0  0  0  0  0  0  0  0  0  0  0  0
    8.0500   12.0160   25.4890 C   0  0  0  0  0  0  0  0  0  0  0  0
    8.1490   10.7680   24.8590 C   0  0  0  0  0  0  0  0  0  0  0  0
    9.5460   10.5580   23.8150 S   0  0  0  0  0  0  0  0  0  0  0  0
    9.5310    8.7470   23.4490 C   0  0  0  0  0  0  0  0  0  0  0  0
    6.9520   12.2340   26.3080 C   0  0  0  0  0  0  0  0  0  0  0  0
    5.9720   11.2690   26.4700 C   0  0  0  0  0  0  0  0  0  0  0  0
    6.0800   10.0570   25.8440 C   0  0  0  0  0  0  0  0  0  0  0  0
    7.1720    9.7930   25.0400 C   0  0  0  0  0  0  0  0  0  0  0  0
 16 15  1  0
 15 14  1  0
 14 20  2  0
 20 19  1  0
 19 18  2  0
 18 17  1  0
 17 13  2  0
 14 13  1  0
 13 12  1  0
 12  2  1  0
  2  1  2  0
  3  2  1  0
  3 11  1  0
 11 10  1  0
 10  9  1  0
  9  5  1  0
  5  6  1  6
  7  6  1  0
  8  7  1  0
  5  4  1  0
  4  3  1  0
M  END
>  <id>  (471) 
471

>  <inchikey>  (471) 
PSOHAIREGZLFPX-CYBMUJFWSA-N

>  <alias>  (471) 
A4809a

>  <smiles>  (471) 
CSc1ccccc1CC(=O)N1CCC[C@H](CCO)C1

>  <path>  (471) 
/opt/xchem-fragalysis-2/maxwin/BulkDock/TARGETS/A71EV2A/aligned_files/A4809a/A4809a.pdb

>  <distance_score>  (471) 
None

>  <energy_score>  (471) 
None

>  <compound>  (471) 
PSOHAIREGZLFPX-UHFFFAOYSA-N

>  <compound_id>  (471) 
356

>  <target>  (471) 
A71EV2A

>  <tags>  (471) 
['GOOD count', 'MEDIOCRE count', '[Other] S1 site', 'hits', '[Other] S2 site', '[Other] P3 compound design', '[Other] upload_1 2025-02-12', 'Main status', '[Series] Piperidine series', 'BAD count']

>  <inspirations>  (471) 
None

>  <subsites>  (471) 
None

>  <reference>  (471) 


>  <observation_longname>  (471) 
A71EV2A-x4809_A_201_v1

>  <ConformerSites alias>  (471) 
1b - A0911/A/147

>  <CanonSites alias>  (471) 
1 - Active Site

>  <CrystalformSites alias>  (471) 
F8h - A0884/A/147

>  <Quatassemblies alias>  (471) 
A1 - monomer

>  <Crystalforms alias>  (471) 
F8 - A712A_x4271_2.1_refmac1_1st_ref

>  <ConformerSites upload name>  (471) 
1b - A71EV2A-x0911/A/147

>  <CanonSites upload name>  (471) 
1 - A71EV2A-x0911/A/147/1

>  <CrystalformSites upload name>  (471) 
F8h - A71EV2A-x0884/A/147/1

>  <Quatassemblies upload name>  (471) 
A1 - monomer

>  <Crystalforms upload name>  (471) 
F8 - A712A_x4271_2.1_refmac1_1st_ref

>  <ConformerSites short tag>  (471) 
1b - A0911/A/147

>  <CanonSites short tag>  (471) 
1 - A0911/A/147/1

>  <CrystalformSites short tag>  (471) 
F8h - A0884/A/147

>  <Quatassemblies short tag>  (471) 
A1 - monomer

>  <Crystalforms short tag>  (471) 
F8 - A712A_x4271_2.1_refmac1_1st_ref

>  <Centroid res>  (471) 
A71EV2A-x0911/A/133/A_v1

>  <Experiment code>  (471) 
A71EV2A-x4809

>  <Pose>  (471) 
A4809a

$$$$
A4812a
     RDKit          3D

 20 21  0  0  0  0  0  0  0  0999 V2000
   10.4120   16.7280   19.0730 O   0  0  0  0  0  0  0  0  0  0  0  0
   10.6700   15.5530   19.3440 C   0  0  0  0  0  0  0  0  0  0  0  0
   10.8960   14.6360   18.4180 N   0  0  0  0  0  0  0  0  0  0  0  0
   10.7500   15.0790   20.7850 C   0  0  1  0  0  0  0  0  0  0  0  0
   11.8760   15.7910   21.5480 C   0  0  0  0  0  0  0  0  0  0  0  0
   12.0110   15.2500   22.9740 C   0  0  0  0  0  0  0  0  0  0  0  0
   10.6840   15.3220   23.7140 C   0  0  0  0  0  0  0  0  0  0  0  0
    9.4570   15.2780   21.5800 C   0  0  0  0  0  0  0  0  0  0  0  0
    9.6000   14.7140   22.9250 N   0  0  0  0  0  0  0  0  0  0  0  0
    8.7210   13.7950   23.3850 C   0  0  0  0  0  0  0  0  0  0  0  0
    7.7630   13.4260   22.7200 O   0  0  0  0  0  0  0  0  0  0  0  0
    8.9190   13.3110   24.8120 C   0  0  0  0  0  0  0  0  0  0  0  0
    8.0360   12.1390   25.1410 C   0  0  0  0  0  0  0  0  0  0  0  0
    8.2720   10.8210   24.6780 C   0  0  0  0  0  0  0  0  0  0  0  0
    9.5950   10.4170   23.5810 S   0  0  0  0  0  0  0  0  0  0  0  0
    9.4450    8.6470   23.4210 C   0  0  0  0  0  0  0  0  0  0  0  0
    6.9960   12.4100   25.9420 N   0  0  0  0  0  0  0  0  0  0  0  0
    6.2090   11.3910   26.2910 C   0  0  0  0  0  0  0  0  0  0  0  0
    6.3220   10.1200   25.9220 N   0  0  0  0  0  0  0  0  0  0  0  0
    7.3540    9.8510   25.1230 C   0  0  0  0  0  0  0  0  0  0  0  0
 16 15  1  0
 15 14  1  0
 14 20  2  0
 20 19  1  0
 19 18  2  0
 18 17  1  0
 17 13  2  0
 14 13  1  0
 13 12  1  0
 12 10  1  0
 11 10  2  0
 10  9  1  0
  9  7  1  0
  7  6  1  0
  6  5  1  0
  5  4  1  0
  4  2  1  6
  3  2  1  0
  2  1  2  0
  8  4  1  0
  9  8  1  0
M  END
>  <id>  (472) 
472

>  <inchikey>  (472) 
STOZPWZNKNIBMH-VIFPVBQESA-N

>  <alias>  (472) 
A4812a

>  <smiles>  (472) 
CSc1cncnc1CC(=O)N1CCC[C@H](C(N)=O)C1

>  <path>  (472) 
/opt/xchem-fragalysis-2/maxwin/BulkDock/TARGETS/A71EV2A/aligned_files/A4812a/A4812a.pdb

>  <distance_score>  (472) 
None

>  <energy_score>  (472) 
None

>  <compound>  (472) 
STOZPWZNKNIBMH-UHFFFAOYSA-N

>  <compound_id>  (472) 
357

>  <target>  (472) 
A71EV2A

>  <tags>  (472) 
['GOOD count', 'MEDIOCRE count', '[Other] S1 site', 'hits', '[Other] S2 site', '[Other] P3 compound design', '[Other] upload_1 2025-02-12', 'Main status', '[Series] Piperidine series', 'BAD count']

>  <inspirations>  (472) 
None

>  <subsites>  (472) 
None

>  <reference>  (472) 


>  <observation_longname>  (472) 
A71EV2A-x4812_A_201_v1

>  <ConformerSites alias>  (472) 
1b - A0911/A/147

>  <CanonSites alias>  (472) 
1 - Active Site

>  <CrystalformSites alias>  (472) 
F8h - A0884/A/147

>  <Quatassemblies alias>  (472) 
A1 - monomer

>  <Crystalforms alias>  (472) 
F8 - A712A_x4271_2.1_refmac1_1st_ref

>  <ConformerSites upload name>  (472) 
1b - A71EV2A-x0911/A/147

>  <CanonSites upload name>  (472) 
1 - A71EV2A-x0911/A/147/1

>  <CrystalformSites upload name>  (472) 
F8h - A71EV2A-x0884/A/147/1

>  <Quatassemblies upload name>  (472) 
A1 - monomer

>  <Crystalforms upload name>  (472) 
F8 - A712A_x4271_2.1_refmac1_1st_ref

>  <ConformerSites short tag>  (472) 
1b - A0911/A/147

>  <CanonSites short tag>  (472) 
1 - A0911/A/147/1

>  <CrystalformSites short tag>  (472) 
F8h - A0884/A/147

>  <Quatassemblies short tag>  (472) 
A1 - monomer

>  <Crystalforms short tag>  (472) 
F8 - A712A_x4271_2.1_refmac1_1st_ref

>  <Centroid res>  (472) 
A71EV2A-x0911/A/133/A_v1

>  <Experiment code>  (472) 
A71EV2A-x4812

>  <Pose>  (472) 
A4812a

$$$$
A4824a
     RDKit          3D

 20 21  0  0  0  0  0  0  0  0999 V2000
   10.3140   16.6740   19.2430 O   0  0  0  0  0  0  0  0  0  0  0  0
   10.6500   15.5100   19.4750 C   0  0  0  0  0  0  0  0  0  0  0  0
   11.0470   14.6660   18.5290 N   0  0  0  0  0  0  0  0  0  0  0  0
   10.6110   14.9490   20.8860 C   0  0  1  0  0  0  0  0  0  0  0  0
   11.7010   15.5520   21.7830 C   0  0  0  0  0  0  0  0  0  0  0  0
   11.6400   14.9160   23.1750 C   0  0  0  0  0  0  0  0  0  0  0  0
   10.2610   15.0940   23.7880 C   0  0  0  0  0  0  0  0  0  0  0  0
    9.2400   15.2100   21.5170 C   0  0  0  0  0  0  0  0  0  0  0  0
    9.2000   14.6410   22.8670 N   0  0  0  0  0  0  0  0  0  0  0  0
    8.2650   13.7120   23.1650 C   0  0  0  0  0  0  0  0  0  0  0  0
    7.3710   13.3760   22.4310 O   0  0  0  0  0  0  0  0  0  0  0  0
    8.4420   13.2350   24.4200 O   0  0  0  0  0  0  0  0  0  0  0  0
    7.5570   12.2460   24.8480 C   0  0  0  0  0  0  0  0  0  0  0  0
    7.8440   10.9210   24.5170 C   0  0  0  0  0  0  0  0  0  0  0  0
    9.2720   10.6390   23.5110 S   0  0  0  0  0  0  0  0  0  0  0  0
    9.3060    8.8350   23.3470 C   0  0  0  0  0  0  0  0  0  0  0  0
    6.4930   12.5740   25.6780 C   0  0  0  0  0  0  0  0  0  0  0  0
    5.7130   11.5530   26.2000 C   0  0  0  0  0  0  0  0  0  0  0  0
    5.9710   10.2310   25.8620 C   0  0  0  0  0  0  0  0  0  0  0  0
    7.0390    9.9100   25.0270 C   0  0  0  0  0  0  0  0  0  0  0  0
 16 15  1  0
 15 14  1  0
 14 20  2  0
 20 19  1  0
 19 18  2  0
 18 17  1  0
 17 13  2  0
 14 13  1  0
 13 12  1  0
 12 10  1  0
 11 10  2  0
 10  9  1  0
  9  7  1  0
  7  6  1  0
  6  5  1  0
  5  4  1  0
  4  2  1  6
  3  2  1  0
  2  1  2  0
  8  4  1  0
  9  8  1  0
M  END
>  <id>  (473) 
473

>  <inchikey>  (473) 
JNANTPWUFNHSLU-JTQLQIEISA-N

>  <alias>  (473) 
A4824a

>  <smiles>  (473) 
CSc1ccccc1OC(=O)N1CCC[C@H](C(N)=O)C1

>  <path>  (473) 
/opt/xchem-fragalysis-2/maxwin/BulkDock/TARGETS/A71EV2A/aligned_files/A4824a/A4824a_hippo.pdb

>  <distance_score>  (473) 
None

>  <energy_score>  (473) 
None

>  <compound>  (473) 
JNANTPWUFNHSLU-UHFFFAOYSA-N

>  <compound_id>  (473) 
358

>  <target>  (473) 
A71EV2A

>  <tags>  (473) 
['GOOD count', 'MEDIOCRE count', '[Other] S1 site', 'hits', '[Other] S2 site', '[Other] P3 compound design', '[Other] upload_1 2025-02-12', 'Main status', '[Series] Piperidine series', 'BAD count']

>  <inspirations>  (473) 
None

>  <subsites>  (473) 
None

>  <reference>  (473) 


>  <observation_longname>  (473) 
A71EV2A-x4824_A_201_v1

>  <ConformerSites alias>  (473) 
1b - A0911/A/147

>  <CanonSites alias>  (473) 
1 - Active Site

>  <CrystalformSites alias>  (473) 
F7q - A4303/A/201

>  <Quatassemblies alias>  (473) 
A1 - monomer

>  <Crystalforms alias>  (473) 
F7 - A712A_x4207_8.1_refmac1_1st_ref

>  <ConformerSites upload name>  (473) 
1b - A71EV2A-x0911/A/147

>  <CanonSites upload name>  (473) 
1 - A71EV2A-x0911/A/147/1

>  <CrystalformSites upload name>  (473) 
F7q - A71EV2A-x4303/A/201/1

>  <Quatassemblies upload name>  (473) 
A1 - monomer

>  <Crystalforms upload name>  (473) 
F7 - A712A_x4207_8.1_refmac1_1st_ref

>  <ConformerSites short tag>  (473) 
1b - A0911/A/147

>  <CanonSites short tag>  (473) 
1 - A0911/A/147/1

>  <CrystalformSites short tag>  (473) 
F7q - A4303/A/201

>  <Quatassemblies short tag>  (473) 
A1 - monomer

>  <Crystalforms short tag>  (473) 
F7 - A712A_x4207_8.1_refmac1_1st_ref

>  <Centroid res>  (473) 
A71EV2A-x0911/A/133/A_v1

>  <Experiment code>  (473) 
A71EV2A-x4824

>  <Pose>  (473) 
A4824a

$$$$
A4824b
     RDKit          3D

 20 21  0  0  0  0  0  0  0  0999 V2000
   10.3820   16.6480   19.2650 O   0  0  0  0  0  0  0  0  0  0  0  0
   10.7860   15.4910   19.4850 C   0  0  0  0  0  0  0  0  0  0  0  0
   11.1430   14.6330   18.5270 N   0  0  0  0  0  0  0  0  0  0  0  0
   10.8300   14.9400   20.8970 C   0  0  1  0  0  0  0  0  0  0  0  0
   11.9390   15.5980   21.7460 C   0  0  0  0  0  0  0  0  0  0  0  0
   11.9450   15.0060   23.1560 C   0  0  0  0  0  0  0  0  0  0  0  0
   10.5800   15.1600   23.8110 C   0  0  0  0  0  0  0  0  0  0  0  0
    9.4850   15.1730   21.5830 C   0  0  0  0  0  0  0  0  0  0  0  0
    9.5270   14.6070   22.9340 N   0  0  0  0  0  0  0  0  0  0  0  0
    8.6340   13.6590   23.2840 C   0  0  0  0  0  0  0  0  0  0  0  0
    7.6940   13.3040   22.6140 O   0  0  0  0  0  0  0  0  0  0  0  0
    8.8850   13.1920   24.5410 O   0  0  0  0  0  0  0  0  0  0  0  0
    8.0130   12.1850   24.9960 C   0  0  0  0  0  0  0  0  0  0  0  0
    8.2760   10.8700   24.6230 C   0  0  0  0  0  0  0  0  0  0  0  0
    9.6510   10.6130   23.5420 S   0  0  0  0  0  0  0  0  0  0  0  0
    9.6820    8.8010   23.3720 C   0  0  0  0  0  0  0  0  0  0  0  0
    6.9960   12.4940   25.8840 C   0  0  0  0  0  0  0  0  0  0  0  0
    6.2430   11.4670   26.4250 C   0  0  0  0  0  0  0  0  0  0  0  0
    6.4900   10.1560   26.0670 C   0  0  0  0  0  0  0  0  0  0  0  0
    7.5000    9.8470   25.1610 C   0  0  0  0  0  0  0  0  0  0  0  0
 16 15  1  0
 15 14  1  0
 14 20  2  0
 20 19  1  0
 19 18  2  0
 18 17  1  0
 17 13  2  0
 14 13  1  0
 13 12  1  0
 12 10  1  0
 11 10  2  0
 10  9  1  0
  9  7  1  0
  7  6  1  0
  6  5  1  0
  5  4  1  0
  4  2  1  6
  3  2  1  0
  2  1  2  0
  8  4  1  0
  9  8  1  0
M  END
>  <id>  (474) 
474

>  <inchikey>  (474) 
JNANTPWUFNHSLU-JTQLQIEISA-N

>  <alias>  (474) 
A4824b

>  <smiles>  (474) 
CSc1ccccc1OC(=O)N1CCC[C@H](C(N)=O)C1

>  <path>  (474) 
/opt/xchem-fragalysis-2/maxwin/BulkDock/TARGETS/A71EV2A/aligned_files/A4824b/A4824b_hippo.pdb

>  <distance_score>  (474) 
None

>  <energy_score>  (474) 
None

>  <compound>  (474) 
JNANTPWUFNHSLU-UHFFFAOYSA-N

>  <compound_id>  (474) 
358

>  <target>  (474) 
A71EV2A

>  <tags>  (474) 
['GOOD count', 'MEDIOCRE count', '[Other] S1 site', 'hits', '[Other] S2 site', '[Other] P3 compound design', '[Other] upload_1 2025-02-12', 'Main status', '[Series] Piperidine series', 'BAD count']

>  <inspirations>  (474) 
None

>  <subsites>  (474) 
None

>  <reference>  (474) 


>  <observation_longname>  (474) 
A71EV2A-x4824_C_201_v1

>  <ConformerSites alias>  (474) 
1b - A0911/A/147

>  <CanonSites alias>  (474) 
1 - Active Site

>  <CrystalformSites alias>  (474) 
F7r - A4303/C/201

>  <Quatassemblies alias>  (474) 
A1 - monomer

>  <Crystalforms alias>  (474) 
F7 - A712A_x4207_8.1_refmac1_1st_ref

>  <ConformerSites upload name>  (474) 
1b - A71EV2A-x0911/A/147

>  <CanonSites upload name>  (474) 
1 - A71EV2A-x0911/A/147/1

>  <CrystalformSites upload name>  (474) 
F7r - A71EV2A-x4303/C/201/1

>  <Quatassemblies upload name>  (474) 
A1 - monomer

>  <Crystalforms upload name>  (474) 
F7 - A712A_x4207_8.1_refmac1_1st_ref

>  <ConformerSites short tag>  (474) 
1b - A0911/A/147

>  <CanonSites short tag>  (474) 
1 - A0911/A/147/1

>  <CrystalformSites short tag>  (474) 
F7r - A4303/C/201

>  <Quatassemblies short tag>  (474) 
A1 - monomer

>  <Crystalforms short tag>  (474) 
F7 - A712A_x4207_8.1_refmac1_1st_ref

>  <Centroid res>  (474) 
A71EV2A-x0911/A/133/A_v1

>  <Experiment code>  (474) 
A71EV2A-x4824

>  <Pose>  (474) 
A4824a

$$$$
A4826a
     RDKit          3D

 20 21  0  0  0  0  0  0  0  0999 V2000
   10.2830   16.6780   19.2260 O   0  0  0  0  0  0  0  0  0  0  0  0
   10.6090   15.5140   19.4740 C   0  0  0  0  0  0  0  0  0  0  0  0
   10.9600   14.6490   18.5310 N   0  0  0  0  0  0  0  0  0  0  0  0
   10.5870   14.9770   20.8980 C   0  0  1  0  0  0  0  0  0  0  0  0
   11.6910   15.5990   21.7650 C   0  0  0  0  0  0  0  0  0  0  0  0
   11.6570   15.0110   23.1830 C   0  0  0  0  0  0  0  0  0  0  0  0
   10.2790   15.2120   23.8080 C   0  0  0  0  0  0  0  0  0  0  0  0
    9.2210   15.2420   21.5480 C   0  0  0  0  0  0  0  0  0  0  0  0
    9.2050   14.7250   22.9230 N   0  0  0  0  0  0  0  0  0  0  0  0
    8.3100   13.7460   23.2390 C   0  0  0  0  0  0  0  0  0  0  0  0
    7.5310   13.2990   22.4130 O   0  0  0  0  0  0  0  0  0  0  0  0
    8.3080   13.3230   24.5290 N   0  0  0  0  0  0  0  0  0  0  0  0
    7.4960   12.2510   24.9660 C   0  0  0  0  0  0  0  0  0  0  0  0
    7.7990   10.9440   24.5720 C   0  0  0  0  0  0  0  0  0  0  0  0
    9.2080   10.6650   23.5350 S   0  0  0  0  0  0  0  0  0  0  0  0
    9.2360    8.8760   23.3320 C   0  0  0  0  0  0  0  0  0  0  0  0
    6.4240   12.4360   25.8340 C   0  0  0  0  0  0  0  0  0  0  0  0
    5.6890   11.4310   26.3290 N   0  0  0  0  0  0  0  0  0  0  0  0
    6.0040   10.1880   25.9330 C   0  0  0  0  0  0  0  0  0  0  0  0
    7.0370    9.8870   25.0590 C   0  0  0  0  0  0  0  0  0  0  0  0
 16 15  1  0
 15 14  1  0
 14 20  2  0
 20 19  1  0
 19 18  2  0
 18 17  1  0
 17 13  2  0
 14 13  1  0
 13 12  1  0
 12 10  1  0
 11 10  2  0
 10  9  1  0
  9  7  1  0
  7  6  1  0
  6  5  1  0
  5  4  1  0
  4  2  1  6
  3  2  1  0
  2  1  2  0
  8  4  1  0
  9  8  1  0
M  END
>  <id>  (475) 
475

>  <inchikey>  (475) 
BIZUKHNXHJNAGE-VIFPVBQESA-N

>  <alias>  (475) 
A4826a

>  <smiles>  (475) 
CSc1ccncc1NC(=O)N1CCC[C@H](C(N)=O)C1

>  <path>  (475) 
/opt/xchem-fragalysis-2/maxwin/BulkDock/TARGETS/A71EV2A/aligned_files/A4826a/A4826a_hippo.pdb

>  <distance_score>  (475) 
None

>  <energy_score>  (475) 
None

>  <compound>  (475) 
BIZUKHNXHJNAGE-UHFFFAOYSA-N

>  <compound_id>  (475) 
359

>  <target>  (475) 
A71EV2A

>  <tags>  (475) 
['GOOD count', 'MEDIOCRE count', '[Other] S1 site', 'hits', '[Other] S2 site', '[Other] P3 compound design', '[Other] upload_1 2025-02-12', 'Main status', '[Series] Piperidine series', 'BAD count']

>  <inspirations>  (475) 
None

>  <subsites>  (475) 
None

>  <reference>  (475) 


>  <observation_longname>  (475) 
A71EV2A-x4826_A_201_v1

>  <ConformerSites alias>  (475) 
1b - A0911/A/147

>  <CanonSites alias>  (475) 
1 - Active Site

>  <CrystalformSites alias>  (475) 
F7q - A4303/A/201

>  <Quatassemblies alias>  (475) 
A1 - monomer

>  <Crystalforms alias>  (475) 
F7 - A712A_x4207_8.1_refmac1_1st_ref

>  <ConformerSites upload name>  (475) 
1b - A71EV2A-x0911/A/147

>  <CanonSites upload name>  (475) 
1 - A71EV2A-x0911/A/147/1

>  <CrystalformSites upload name>  (475) 
F7q - A71EV2A-x4303/A/201/1

>  <Quatassemblies upload name>  (475) 
A1 - monomer

>  <Crystalforms upload name>  (475) 
F7 - A712A_x4207_8.1_refmac1_1st_ref

>  <ConformerSites short tag>  (475) 
1b - A0911/A/147

>  <CanonSites short tag>  (475) 
1 - A0911/A/147/1

>  <CrystalformSites short tag>  (475) 
F7q - A4303/A/201

>  <Quatassemblies short tag>  (475) 
A1 - monomer

>  <Crystalforms short tag>  (475) 
F7 - A712A_x4207_8.1_refmac1_1st_ref

>  <Centroid res>  (475) 
A71EV2A-x0911/A/133/A_v1

>  <Experiment code>  (475) 
A71EV2A-x4826

>  <Pose>  (475) 
A4826a

$$$$
A4826b
     RDKit          3D

 20 21  0  0  0  0  0  0  0  0999 V2000
   10.3540   16.6280   19.2440 O   0  0  0  0  0  0  0  0  0  0  0  0
   10.7520   15.4710   19.4740 C   0  0  0  0  0  0  0  0  0  0  0  0
   11.0700   14.6000   18.5190 N   0  0  0  0  0  0  0  0  0  0  0  0
   10.8170   14.9360   20.8960 C   0  0  1  0  0  0  0  0  0  0  0  0
   11.9430   15.6120   21.7080 C   0  0  0  0  0  0  0  0  0  0  0  0
   11.9810   15.0430   23.1290 C   0  0  0  0  0  0  0  0  0  0  0  0
   10.6340   15.2290   23.8130 C   0  0  0  0  0  0  0  0  0  0  0  0
    9.4800   15.1670   21.6100 C   0  0  0  0  0  0  0  0  0  0  0  0
    9.5450   14.6710   22.9900 N   0  0  0  0  0  0  0  0  0  0  0  0
    8.6980   13.6620   23.3600 C   0  0  0  0  0  0  0  0  0  0  0  0
    7.8570   13.2130   22.5940 O   0  0  0  0  0  0  0  0  0  0  0  0
    8.8000   13.2320   24.6510 N   0  0  0  0  0  0  0  0  0  0  0  0
    8.0020   12.1540   25.1360 C   0  0  0  0  0  0  0  0  0  0  0  0
    8.2600   10.8560   24.6880 C   0  0  0  0  0  0  0  0  0  0  0  0
    9.6090   10.5990   23.5770 S   0  0  0  0  0  0  0  0  0  0  0  0
    9.6280    8.8090   23.3610 C   0  0  0  0  0  0  0  0  0  0  0  0
    6.9910   12.3170   26.0790 C   0  0  0  0  0  0  0  0  0  0  0  0
    6.2690   11.3100   26.5800 N   0  0  0  0  0  0  0  0  0  0  0  0
    6.5500   10.0820   26.1430 C   0  0  0  0  0  0  0  0  0  0  0  0
    7.5210    9.7950   25.2000 C   0  0  0  0  0  0  0  0  0  0  0  0
 16 15  1  0
 15 14  1  0
 14 20  2  0
 20 19  1  0
 19 18  2  0
 18 17  1  0
 17 13  2  0
 14 13  1  0
 13 12  1  0
 12 10  1  0
 11 10  2  0
 10  9  1  0
  9  7  1  0
  7  6  1  0
  6  5  1  0
  5  4  1  0
  4  2  1  6
  3  2  1  0
  2  1  2  0
  8  4  1  0
  9  8  1  0
M  END
>  <id>  (476) 
476

>  <inchikey>  (476) 
BIZUKHNXHJNAGE-VIFPVBQESA-N

>  <alias>  (476) 
A4826b

>  <smiles>  (476) 
CSc1ccncc1NC(=O)N1CCC[C@H](C(N)=O)C1

>  <path>  (476) 
/opt/xchem-fragalysis-2/maxwin/BulkDock/TARGETS/A71EV2A/aligned_files/A4826b/A4826b_hippo.pdb

>  <distance_score>  (476) 
None

>  <energy_score>  (476) 
None

>  <compound>  (476) 
BIZUKHNXHJNAGE-UHFFFAOYSA-N

>  <compound_id>  (476) 
359

>  <target>  (476) 
A71EV2A

>  <tags>  (476) 
['GOOD count', 'MEDIOCRE count', '[Other] S1 site', 'hits', '[Other] S2 site', '[Other] P3 compound design', '[Other] upload_1 2025-02-12', 'Main status', '[Series] Piperidine series', 'BAD count']

>  <inspirations>  (476) 
None

>  <subsites>  (476) 
None

>  <reference>  (476) 


>  <observation_longname>  (476) 
A71EV2A-x4826_C_201_v1

>  <ConformerSites alias>  (476) 
1b - A0911/A/147

>  <CanonSites alias>  (476) 
1 - Active Site

>  <CrystalformSites alias>  (476) 
F7r - A4303/C/201

>  <Quatassemblies alias>  (476) 
A1 - monomer

>  <Crystalforms alias>  (476) 
F7 - A712A_x4207_8.1_refmac1_1st_ref

>  <ConformerSites upload name>  (476) 
1b - A71EV2A-x0911/A/147

>  <CanonSites upload name>  (476) 
1 - A71EV2A-x0911/A/147/1

>  <CrystalformSites upload name>  (476) 
F7r - A71EV2A-x4303/C/201/1

>  <Quatassemblies upload name>  (476) 
A1 - monomer

>  <Crystalforms upload name>  (476) 
F7 - A712A_x4207_8.1_refmac1_1st_ref

>  <ConformerSites short tag>  (476) 
1b - A0911/A/147

>  <CanonSites short tag>  (476) 
1 - A0911/A/147/1

>  <CrystalformSites short tag>  (476) 
F7r - A4303/C/201

>  <Quatassemblies short tag>  (476) 
A1 - monomer

>  <Crystalforms short tag>  (476) 
F7 - A712A_x4207_8.1_refmac1_1st_ref

>  <Centroid res>  (476) 
A71EV2A-x0911/A/133/A_v1

>  <Experiment code>  (476) 
A71EV2A-x4826

>  <Pose>  (476) 
A4826a

$$$$
A4827a
     RDKit          3D

 20 21  0  0  0  0  0  0  0  0999 V2000
   10.3150   16.6870   19.1690 O   0  0  0  0  0  0  0  0  0  0  0  0
   10.6840   15.5270   19.4120 C   0  0  0  0  0  0  0  0  0  0  0  0
   11.0410   14.6780   18.4720 N   0  0  0  0  0  0  0  0  0  0  0  0
   10.6710   14.9790   20.8290 C   0  0  1  0  0  0  0  0  0  0  0  0
   11.7640   15.6360   21.6910 C   0  0  0  0  0  0  0  0  0  0  0  0
   11.7000   15.1520   23.1450 C   0  0  0  0  0  0  0  0  0  0  0  0
   10.3050   15.3250   23.7080 C   0  0  0  0  0  0  0  0  0  0  0  0
    9.2810   15.1870   21.4540 C   0  0  0  0  0  0  0  0  0  0  0  0
    9.2850   14.7140   22.8420 N   0  0  0  0  0  0  0  0  0  0  0  0
    8.4130   13.7600   23.2380 C   0  0  0  0  0  0  0  0  0  0  0  0
    7.5470   13.3250   22.4990 O   0  0  0  0  0  0  0  0  0  0  0  0
    8.5170   13.3220   24.6860 C   0  0  0  0  0  0  0  0  0  0  0  0
    7.6180   12.1510   25.0140 C   0  0  0  0  0  0  0  0  0  0  0  0
    7.8970   10.8450   24.5900 C   0  0  0  0  0  0  0  0  0  0  0  0
    9.2980   10.5820   23.5420 S   0  0  0  0  0  0  0  0  0  0  0  0
    9.3360    8.8010   23.3040 C   0  0  0  0  0  0  0  0  0  0  0  0
    6.5200   12.3080   25.8390 C   0  0  0  0  0  0  0  0  0  0  0  0
    5.7230   11.3190   26.2510 N   0  0  0  0  0  0  0  0  0  0  0  0
    6.0280   10.0890   25.8400 C   0  0  0  0  0  0  0  0  0  0  0  0
    7.0890    9.7960   25.0070 C   0  0  0  0  0  0  0  0  0  0  0  0
 16 15  1  0
 15 14  1  0
 14 20  2  0
 20 19  1  0
 19 18  2  0
 18 17  1  0
 17 13  2  0
 14 13  1  0
 13 12  1  0
 12 10  1  0
 11 10  2  0
 10  9  1  0
  9  7  1  0
  7  6  1  0
  6  5  1  0
  5  4  1  0
  4  2  1  6
  3  2  1  0
  2  1  2  0
  8  4  1  0
  9  8  1  0
M  END
>  <id>  (477) 
477

>  <inchikey>  (477) 
ZMOITPIXGZHKCC-JTQLQIEISA-N

>  <alias>  (477) 
A4827a

>  <smiles>  (477) 
CSc1ccncc1CC(=O)N1CCC[C@H](C(N)=O)C1

>  <path>  (477) 
/opt/xchem-fragalysis-2/maxwin/BulkDock/TARGETS/A71EV2A/aligned_files/A4827a/A4827a_hippo.pdb

>  <distance_score>  (477) 
None

>  <energy_score>  (477) 
None

>  <compound>  (477) 
ZMOITPIXGZHKCC-UHFFFAOYSA-N

>  <compound_id>  (477) 
360

>  <target>  (477) 
A71EV2A

>  <tags>  (477) 
['GOOD count', 'MEDIOCRE count', '[Other] S1 site', 'hits', '[Other] S2 site', '[Other] P3 compound design', '[Other] upload_1 2025-02-12', 'Main status', '[Series] Piperidine series', 'BAD count']

>  <inspirations>  (477) 
None

>  <subsites>  (477) 
None

>  <reference>  (477) 


>  <observation_longname>  (477) 
A71EV2A-x4827_A_201_v1

>  <ConformerSites alias>  (477) 
1b - A0911/A/147

>  <CanonSites alias>  (477) 
1 - Active Site

>  <CrystalformSites alias>  (477) 
F6o - A4214/A/201

>  <Quatassemblies alias>  (477) 
A1 - monomer

>  <Crystalforms alias>  (477) 
F6 - short_long_x4018

>  <ConformerSites upload name>  (477) 
1b - A71EV2A-x0911/A/147

>  <CanonSites upload name>  (477) 
1 - A71EV2A-x0911/A/147/1

>  <CrystalformSites upload name>  (477) 
F6o - A71EV2A-x4214/A/201/1

>  <Quatassemblies upload name>  (477) 
A1 - monomer

>  <Crystalforms upload name>  (477) 
F6 - short_long_x4018

>  <ConformerSites short tag>  (477) 
1b - A0911/A/147

>  <CanonSites short tag>  (477) 
1 - A0911/A/147/1

>  <CrystalformSites short tag>  (477) 
F6o - A4214/A/201

>  <Quatassemblies short tag>  (477) 
A1 - monomer

>  <Crystalforms short tag>  (477) 
F6 - short_long_x4018

>  <Centroid res>  (477) 
A71EV2A-x0911/A/133/A_v1

>  <Experiment code>  (477) 
A71EV2A-x4827

>  <Pose>  (477) 
A4827a

$$$$
A4827b
     RDKit          3D

 20 21  0  0  0  0  0  0  0  0999 V2000
   10.3950   16.6670   19.1940 O   0  0  0  0  0  0  0  0  0  0  0  0
   10.7940   15.5160   19.4200 C   0  0  0  0  0  0  0  0  0  0  0  0
   11.1030   14.6530   18.4640 N   0  0  0  0  0  0  0  0  0  0  0  0
   10.8570   14.9770   20.8390 C   0  0  1  0  0  0  0  0  0  0  0  0
   11.9730   15.6760   21.6450 C   0  0  0  0  0  0  0  0  0  0  0  0
   11.9690   15.2290   23.1110 C   0  0  0  0  0  0  0  0  0  0  0  0
   10.5860   15.3940   23.7290 C   0  0  0  0  0  0  0  0  0  0  0  0
    9.5010   15.1520   21.5290 C   0  0  0  0  0  0  0  0  0  0  0  0
    9.5790   14.6920   22.9190 N   0  0  0  0  0  0  0  0  0  0  0  0
    8.7550   13.7080   23.3530 C   0  0  0  0  0  0  0  0  0  0  0  0
    7.8550   13.2570   22.6560 O   0  0  0  0  0  0  0  0  0  0  0  0
    8.9380   13.2480   24.7880 C   0  0  0  0  0  0  0  0  0  0  0  0
    8.0390   12.0780   25.1410 C   0  0  0  0  0  0  0  0  0  0  0  0
    8.2790   10.7740   24.6880 C   0  0  0  0  0  0  0  0  0  0  0  0
    9.6150   10.5340   23.5680 S   0  0  0  0  0  0  0  0  0  0  0  0
    9.6600    8.7490   23.3270 C   0  0  0  0  0  0  0  0  0  0  0  0
    6.9800   12.2230   26.0180 C   0  0  0  0  0  0  0  0  0  0  0  0
    6.1940   11.2360   26.4560 N   0  0  0  0  0  0  0  0  0  0  0  0
    6.4540   10.0090   26.0050 C   0  0  0  0  0  0  0  0  0  0  0  0
    7.4720    9.7180   25.1160 C   0  0  0  0  0  0  0  0  0  0  0  0
 16 15  1  0
 15 14  1  0
 14 20  2  0
 20 19  1  0
 19 18  2  0
 18 17  1  0
 17 13  2  0
 14 13  1  0
 13 12  1  0
 12 10  1  0
 11 10  2  0
 10  9  1  0
  9  7  1  0
  7  6  1  0
  6  5  1  0
  5  4  1  0
  4  2  1  6
  3  2  1  0
  2  1  2  0
  8  4  1  0
  9  8  1  0
M  END
>  <id>  (478) 
478

>  <inchikey>  (478) 
ZMOITPIXGZHKCC-JTQLQIEISA-N

>  <alias>  (478) 
A4827b

>  <smiles>  (478) 
CSc1ccncc1CC(=O)N1CCC[C@H](C(N)=O)C1

>  <path>  (478) 
/opt/xchem-fragalysis-2/maxwin/BulkDock/TARGETS/A71EV2A/aligned_files/A4827b/A4827b_hippo.pdb

>  <distance_score>  (478) 
None

>  <energy_score>  (478) 
None

>  <compound>  (478) 
ZMOITPIXGZHKCC-UHFFFAOYSA-N

>  <compound_id>  (478) 
360

>  <target>  (478) 
A71EV2A

>  <tags>  (478) 
['GOOD count', 'MEDIOCRE count', '[Other] S1 site', 'hits', '[Other] S2 site', '[Other] P3 compound design', '[Other] upload_1 2025-02-12', 'Main status', '[Series] Piperidine series', 'BAD count']

>  <inspirations>  (478) 
None

>  <subsites>  (478) 
None

>  <reference>  (478) 


>  <observation_longname>  (478) 
A71EV2A-x4827_C_201_v1

>  <ConformerSites alias>  (478) 
1b - A0911/A/147

>  <CanonSites alias>  (478) 
1 - Active Site

>  <CrystalformSites alias>  (478) 
F6p - A4214/C/201

>  <Quatassemblies alias>  (478) 
A1 - monomer

>  <Crystalforms alias>  (478) 
F6 - short_long_x4018

>  <ConformerSites upload name>  (478) 
1b - A71EV2A-x0911/A/147

>  <CanonSites upload name>  (478) 
1 - A71EV2A-x0911/A/147/1

>  <CrystalformSites upload name>  (478) 
F6p - A71EV2A-x4214/C/201/1

>  <Quatassemblies upload name>  (478) 
A1 - monomer

>  <Crystalforms upload name>  (478) 
F6 - short_long_x4018

>  <ConformerSites short tag>  (478) 
1b - A0911/A/147

>  <CanonSites short tag>  (478) 
1 - A0911/A/147/1

>  <CrystalformSites short tag>  (478) 
F6p - A4214/C/201

>  <Quatassemblies short tag>  (478) 
A1 - monomer

>  <Crystalforms short tag>  (478) 
F6 - short_long_x4018

>  <Centroid res>  (478) 
A71EV2A-x0911/A/133/A_v1

>  <Experiment code>  (478) 
A71EV2A-x4827

>  <Pose>  (478) 
A4827a

$$$$
A4829a
     RDKit          3D

 21 22  0  0  0  0  0  0  0  0999 V2000
   10.3370   16.6750   19.2380 O   0  0  0  0  0  0  0  0  0  0  0  0
   10.7130   15.5210   19.4700 C   0  0  0  0  0  0  0  0  0  0  0  0
   11.0500   14.6610   18.5080 N   0  0  0  0  0  0  0  0  0  0  0  0
   10.6920   14.9670   20.8830 C   0  0  1  0  0  0  0  0  0  0  0  0
   11.7760   15.5970   21.7770 C   0  0  0  0  0  0  0  0  0  0  0  0
   11.7120   14.9730   23.1790 C   0  0  0  0  0  0  0  0  0  0  0  0
   10.3150   15.0570   23.7750 C   0  0  0  0  0  0  0  0  0  0  0  0
    9.2980   15.1350   21.5000 C   0  0  0  0  0  0  0  0  0  0  0  0
    9.2970   14.5360   22.8400 N   0  0  0  0  0  0  0  0  0  0  0  0
    8.3810   13.5980   23.1420 C   0  0  0  0  0  0  0  0  0  0  0  0
    7.4880   13.2680   22.4110 O   0  0  0  0  0  0  0  0  0  0  0  0
    8.5550   13.1480   24.4130 O   0  0  0  0  0  0  0  0  0  0  0  0
    7.6610   12.1680   24.8440 C   0  0  0  0  0  0  0  0  0  0  0  0
    7.8700   10.8290   24.4750 C   0  0  0  0  0  0  0  0  0  0  0  0
    8.9170   10.6130   23.6190 O   0  0  0  0  0  0  0  0  0  0  0  0
    9.1840    9.2560   23.2120 C   0  0  0  0  0  0  0  0  0  0  0  0
    6.6450   12.5030   25.7100 C   0  0  0  0  0  0  0  0  0  0  0  0
    5.8500   11.4990   26.2140 C   0  0  0  0  0  0  0  0  0  0  0  0
    4.5930   11.9140   27.3390 Cl  0  0  0  0  0  0  0  0  0  0  0  0
    6.0320   10.1840   25.8650 C   0  0  0  0  0  0  0  0  0  0  0  0
    7.0460    9.8420   24.9850 C   0  0  0  0  0  0  0  0  0  0  0  0
 16 15  1  0
 15 14  1  0
 14 21  2  0
 21 20  1  0
 20 18  2  0
 19 18  1  0
 18 17  1  0
 17 13  2  0
 14 13  1  0
 13 12  1  0
 12 10  1  0
 11 10  2  0
 10  9  1  0
  9  7  1  0
  7  6  1  0
  6  5  1  0
  5  4  1  0
  4  2  1  6
  3  2  1  0
  2  1  2  0
  8  4  1  0
  9  8  1  0
M  END
>  <id>  (479) 
479

>  <inchikey>  (479) 
RWZFWMWMIABRNY-VIFPVBQESA-N

>  <alias>  (479) 
A4829a

>  <smiles>  (479) 
COc1ccc(Cl)cc1OC(=O)N1CCC[C@H](C(N)=O)C1

>  <path>  (479) 
/opt/xchem-fragalysis-2/maxwin/BulkDock/TARGETS/A71EV2A/aligned_files/A4829a/A4829a_hippo.pdb

>  <distance_score>  (479) 
None

>  <energy_score>  (479) 
None

>  <compound>  (479) 
RWZFWMWMIABRNY-UHFFFAOYSA-N

>  <compound_id>  (479) 
361

>  <target>  (479) 
A71EV2A

>  <tags>  (479) 
['GOOD count', 'MEDIOCRE count', '[Other] S1 site', 'hits', '[Other] S2 site', '[Other] P3 compound design', '[Other] upload_1 2025-02-12', 'Main status', '[Series] Piperidine series', 'BAD count']

>  <inspirations>  (479) 
None

>  <subsites>  (479) 
None

>  <reference>  (479) 


>  <observation_longname>  (479) 
A71EV2A-x4829_A_201_v1

>  <ConformerSites alias>  (479) 
1b - A0911/A/147

>  <CanonSites alias>  (479) 
1 - Active Site

>  <CrystalformSites alias>  (479) 
F6o - A4214/A/201

>  <Quatassemblies alias>  (479) 
A1 - monomer

>  <Crystalforms alias>  (479) 
F6 - short_long_x4018

>  <ConformerSites upload name>  (479) 
1b - A71EV2A-x0911/A/147

>  <CanonSites upload name>  (479) 
1 - A71EV2A-x0911/A/147/1

>  <CrystalformSites upload name>  (479) 
F6o - A71EV2A-x4214/A/201/1

>  <Quatassemblies upload name>  (479) 
A1 - monomer

>  <Crystalforms upload name>  (479) 
F6 - short_long_x4018

>  <ConformerSites short tag>  (479) 
1b - A0911/A/147

>  <CanonSites short tag>  (479) 
1 - A0911/A/147/1

>  <CrystalformSites short tag>  (479) 
F6o - A4214/A/201

>  <Quatassemblies short tag>  (479) 
A1 - monomer

>  <Crystalforms short tag>  (479) 
F6 - short_long_x4018

>  <Centroid res>  (479) 
A71EV2A-x0911/A/133/A_v1

>  <Experiment code>  (479) 
A71EV2A-x4829

>  <Pose>  (479) 
A4829a

$$$$
A4829b
     RDKit          3D

 21 22  0  0  0  0  0  0  0  0999 V2000
   10.4400   16.6460   19.2510 O   0  0  0  0  0  0  0  0  0  0  0  0
   10.8430   15.4930   19.4690 C   0  0  0  0  0  0  0  0  0  0  0  0
   11.1250   14.6320   18.4850 N   0  0  0  0  0  0  0  0  0  0  0  0
   10.9090   14.9440   20.8840 C   0  0  1  0  0  0  0  0  0  0  0  0
   11.9840   15.6490   21.7440 C   0  0  0  0  0  0  0  0  0  0  0  0
   12.0220   15.0380   23.1510 C   0  0  0  0  0  0  0  0  0  0  0  0
   10.6430   15.0800   23.8070 C   0  0  0  0  0  0  0  0  0  0  0  0
    9.5520   15.0800   21.5810 C   0  0  0  0  0  0  0  0  0  0  0  0
    9.6230   14.4960   22.9260 N   0  0  0  0  0  0  0  0  0  0  0  0
    8.7380   13.5430   23.2610 C   0  0  0  0  0  0  0  0  0  0  0  0
    7.8140   13.1820   22.5770 O   0  0  0  0  0  0  0  0  0  0  0  0
    8.9640   13.0850   24.5300 O   0  0  0  0  0  0  0  0  0  0  0  0
    8.0650   12.0910   24.9720 C   0  0  0  0  0  0  0  0  0  0  0  0
    8.2690   10.7600   24.5780 C   0  0  0  0  0  0  0  0  0  0  0  0
    9.2940   10.5610   23.6930 O   0  0  0  0  0  0  0  0  0  0  0  0
    9.5400    9.2070   23.2490 C   0  0  0  0  0  0  0  0  0  0  0  0
    7.0750   12.4090   25.8800 C   0  0  0  0  0  0  0  0  0  0  0  0
    6.2940   11.3910   26.3950 C   0  0  0  0  0  0  0  0  0  0  0  0
    4.9590   11.8010   27.4500 Cl  0  0  0  0  0  0  0  0  0  0  0  0
    6.4800   10.0790   26.0270 C   0  0  0  0  0  0  0  0  0  0  0  0
    7.4640    9.7590   25.1040 C   0  0  0  0  0  0  0  0  0  0  0  0
 16 15  1  0
 15 14  1  0
 14 21  2  0
 21 20  1  0
 20 18  2  0
 19 18  1  0
 18 17  1  0
 17 13  2  0
 14 13  1  0
 13 12  1  0
 12 10  1  0
 11 10  2  0
 10  9  1  0
  9  7  1  0
  7  6  1  0
  6  5  1  0
  5  4  1  0
  4  2  1  6
  3  2  1  0
  2  1  2  0
  8  4  1  0
  9  8  1  0
M  END
>  <id>  (480) 
480

>  <inchikey>  (480) 
RWZFWMWMIABRNY-VIFPVBQESA-N

>  <alias>  (480) 
A4829b

>  <smiles>  (480) 
COc1ccc(Cl)cc1OC(=O)N1CCC[C@H](C(N)=O)C1

>  <path>  (480) 
/opt/xchem-fragalysis-2/maxwin/BulkDock/TARGETS/A71EV2A/aligned_files/A4829b/A4829b_hippo.pdb

>  <distance_score>  (480) 
None

>  <energy_score>  (480) 
None

>  <compound>  (480) 
RWZFWMWMIABRNY-UHFFFAOYSA-N

>  <compound_id>  (480) 
361

>  <target>  (480) 
A71EV2A

>  <tags>  (480) 
['GOOD count', 'MEDIOCRE count', '[Other] S1 site', 'hits', '[Other] S2 site', '[Other] P3 compound design', '[Other] upload_1 2025-02-12', 'Main status', '[Series] Piperidine series', 'BAD count']

>  <inspirations>  (480) 
None

>  <subsites>  (480) 
None

>  <reference>  (480) 


>  <observation_longname>  (480) 
A71EV2A-x4829_C_201_v1

>  <ConformerSites alias>  (480) 
1b - A0911/A/147

>  <CanonSites alias>  (480) 
1 - Active Site

>  <CrystalformSites alias>  (480) 
F6p - A4214/C/201

>  <Quatassemblies alias>  (480) 
A1 - monomer

>  <Crystalforms alias>  (480) 
F6 - short_long_x4018

>  <ConformerSites upload name>  (480) 
1b - A71EV2A-x0911/A/147

>  <CanonSites upload name>  (480) 
1 - A71EV2A-x0911/A/147/1

>  <CrystalformSites upload name>  (480) 
F6p - A71EV2A-x4214/C/201/1

>  <Quatassemblies upload name>  (480) 
A1 - monomer

>  <Crystalforms upload name>  (480) 
F6 - short_long_x4018

>  <ConformerSites short tag>  (480) 
1b - A0911/A/147

>  <CanonSites short tag>  (480) 
1 - A0911/A/147/1

>  <CrystalformSites short tag>  (480) 
F6p - A4214/C/201

>  <Quatassemblies short tag>  (480) 
A1 - monomer

>  <Crystalforms short tag>  (480) 
F6 - short_long_x4018

>  <Centroid res>  (480) 
A71EV2A-x0911/A/133/A_v1

>  <Experiment code>  (480) 
A71EV2A-x4829

>  <Pose>  (480) 
A4829a

$$$$
A4836a
     RDKit          3D

 23 25  0  0  0  0  0  0  0  0999 V2000
   10.2610   16.6100   19.2240 O   0  0  0  0  0  0  0  0  0  0  0  0
   10.6360   15.4460   19.4130 C   0  0  0  0  0  0  0  0  0  0  0  0
   10.9460   14.6100   18.4340 N   0  0  0  0  0  0  0  0  0  0  0  0
   10.7590   14.8840   20.8190 C   0  0  1  0  0  0  0  0  0  0  0  0
   11.9430   15.5170   21.5700 C   0  0  0  0  0  0  0  0  0  0  0  0
   12.0140   15.0200   23.0150 C   0  0  0  0  0  0  0  0  0  0  0  0
   10.6850   15.2280   23.7180 C   0  0  0  0  0  0  0  0  0  0  0  0
    9.4560   15.1210   21.5900 C   0  0  0  0  0  0  0  0  0  0  0  0
    9.5940   14.6020   22.9550 N   0  0  0  0  0  0  0  0  0  0  0  0
    8.7730   13.6390   23.4180 C   0  0  0  0  0  0  0  0  0  0  0  0
    7.8860   13.1620   22.7280 O   0  0  0  0  0  0  0  0  0  0  0  0
    8.9570   13.1930   24.8730 C   0  0  2  0  0  0  0  0  0  0  0  0
    8.2860   11.9100   25.1380 N   0  0  0  0  0  0  0  0  0  0  0  0
    8.8050   10.7400   24.6510 C   0  0  0  0  0  0  0  0  0  0  0  0
    9.8420   10.7310   23.9800 O   0  0  0  0  0  0  0  0  0  0  0  0
    8.0280    9.5000   24.8840 C   0  0  0  0  0  0  0  0  0  0  0  0
    8.3110   14.1930   25.8500 C   0  0  0  0  0  0  0  0  0  0  0  0
    7.1200   13.4450   26.3830 C   0  0  0  0  0  0  0  0  0  0  0  0
    7.1470   12.1170   25.9650 C   0  0  0  0  0  0  0  0  0  0  0  0
    6.0970   13.8840   27.2140 C   0  0  0  0  0  0  0  0  0  0  0  0
    5.1130   13.0000   27.6130 C   0  0  0  0  0  0  0  0  0  0  0  0
    5.1460   11.6850   27.1970 C   0  0  0  0  0  0  0  0  0  0  0  0
    6.1600   11.2280   26.3670 C   0  0  0  0  0  0  0  0  0  0  0  0
 16 14  1  0
 15 14  2  0
 14 13  1  0
 13 19  1  0
 19 23  2  0
 23 22  1  0
 22 21  2  0
 21 20  1  0
 20 18  2  0
 19 18  1  0
 18 17  1  0
 17 12  1  0
 13 12  1  0
 12 10  1  6
 11 10  2  0
 10  9  1  0
  9  7  1  0
  7  6  1  0
  6  5  1  0
  5  4  1  0
  4  2  1  6
  3  2  1  0
  2  1  2  0
  8  4  1  0
  9  8  1  0
M  END
>  <id>  (481) 
481

>  <inchikey>  (481) 
NNSQUXOVPSSSEM-DZGCQCFKSA-N

>  <alias>  (481) 
A4836a

>  <smiles>  (481) 
CC(=O)N1c2ccccc2C[C@@H]1C(=O)N1CCC[C@H](C(N)=O)C1

>  <path>  (481) 
/opt/xchem-fragalysis-2/maxwin/BulkDock/TARGETS/A71EV2A/aligned_files/A4836a/A4836a.pdb

>  <distance_score>  (481) 
None

>  <energy_score>  (481) 
None

>  <compound>  (481) 
NNSQUXOVPSSSEM-UHFFFAOYSA-N

>  <compound_id>  (481) 
362

>  <target>  (481) 
A71EV2A

>  <tags>  (481) 
['GOOD count', 'MEDIOCRE count', '[Other] S1 site', 'hits', '[Other] S2 site', '[Other] upload_6_2025-02-13', '[Other] P3 compound design', '[Other] upload_1 2025-02-12', 'Main status', '[Series] Piperidine series', 'BAD count']

>  <inspirations>  (481) 
None

>  <subsites>  (481) 
None

>  <reference>  (481) 


>  <observation_longname>  (481) 
A71EV2A-x4836_A_201_v1

>  <ConformerSites alias>  (481) 
1b - A0911/A/147

>  <CanonSites alias>  (481) 
1 - Active Site

>  <CrystalformSites alias>  (481) 
F1a - A0375/A/201

>  <Quatassemblies alias>  (481) 
A1 - monomer

>  <Crystalforms alias>  (481) 
F1 - A71_2A_open

>  <ConformerSites upload name>  (481) 
1b - A71EV2A-x0911/A/147

>  <CanonSites upload name>  (481) 
1 - A71EV2A-x0911/A/147/1

>  <CrystalformSites upload name>  (481) 
F1a - A71EV2A-x0375/A/201/1

>  <Quatassemblies upload name>  (481) 
A1 - monomer

>  <Crystalforms upload name>  (481) 
F1 - A71_2A_open

>  <ConformerSites short tag>  (481) 
1b - A0911/A/147

>  <CanonSites short tag>  (481) 
1 - A0911/A/147/1

>  <CrystalformSites short tag>  (481) 
F1a - A0375/A/201

>  <Quatassemblies short tag>  (481) 
A1 - monomer

>  <Crystalforms short tag>  (481) 
F1 - A71_2A_open

>  <Centroid res>  (481) 
A71EV2A-x0911/A/133/A_v1

>  <Experiment code>  (481) 
A71EV2A-x4836

>  <Pose>  (481) 
A4836a

$$$$
A4838a
     RDKit          3D

 22 23  0  0  0  0  0  0  0  0999 V2000
    9.3690   10.8600   23.2980 Cl  0  0  0  0  0  0  0  0  0  0  0  0
    8.1720   11.3020   24.4790 C   0  0  0  0  0  0  0  0  0  0  0  0
    7.6400   10.3060   25.2760 C   0  0  0  0  0  0  0  0  0  0  0  0
    6.6660   10.6160   26.2040 C   0  0  0  0  0  0  0  0  0  0  0  0
    6.2340   11.9270   26.3510 C   0  0  0  0  0  0  0  0  0  0  0  0
    5.1810   12.2840   27.3500 C   0  0  0  0  0  0  0  0  0  0  0  0
    5.1630   11.4640   28.4080 F   0  0  0  0  0  0  0  0  0  0  0  0
    3.9600   12.2370   26.8280 F   0  0  0  0  0  0  0  0  0  0  0  0
    5.3320   13.5100   27.8350 F   0  0  0  0  0  0  0  0  0  0  0  0
    6.7870   12.9100   25.5400 C   0  0  0  0  0  0  0  0  0  0  0  0
    7.7530   12.6230   24.5790 C   0  0  0  0  0  0  0  0  0  0  0  0
    8.2280   13.7000   23.6320 C   0  0  0  0  0  0  0  0  0  0  0  0
    9.6340   14.1710   23.9530 C   0  0  0  0  0  0  0  0  0  0  0  0
   10.0620   14.1870   25.0990 O   0  0  0  0  0  0  0  0  0  0  0  0
   10.3730   14.5880   22.9070 N   0  0  0  0  0  0  0  0  0  0  0  0
   11.8210   14.8470   22.9730 C   0  0  0  0  0  0  0  0  0  0  0  0
   12.1450   15.3390   21.5680 C   0  0  0  0  0  0  0  0  0  0  0  0
    9.8290   14.8480   21.5740 C   0  0  0  0  0  0  0  0  0  0  0  0
   11.0630   14.6660   20.7050 C   0  0  1  0  0  0  0  0  0  0  0  0
   10.8660   15.2580   19.3220 C   0  0  0  0  0  0  0  0  0  0  0  0
   10.2850   16.3360   19.1670 O   0  0  0  0  0  0  0  0  0  0  0  0
   11.2970   14.5170   18.3170 N   0  0  0  0  0  0  0  0  0  0  0  0
 22 20  1  0
 21 20  2  0
 19 20  1  6
 19 17  1  0
 17 16  1  0
 16 15  1  0
 15 13  1  0
 14 13  2  0
 13 12  1  0
 12 11  1  0
 11 10  2  0
 10  5  1  0
  6  5  1  0
  9  6  1  0
  8  6  1  0
  7  6  1  0
  5  4  2  0
  4  3  1  0
  3  2  2  0
 11  2  1  0
  2  1  1  0
 18 15  1  0
 19 18  1  0
M  END
>  <id>  (482) 
482

>  <inchikey>  (482) 
HVQIWPCPNWMLEJ-QMMMGPOBSA-N

>  <alias>  (482) 
A4838a

>  <smiles>  (482) 
NC(=O)[C@H]1CCN(C(=O)Cc2cc(C(F)(F)F)ccc2Cl)C1

>  <path>  (482) 
/opt/xchem-fragalysis-2/maxwin/BulkDock/TARGETS/A71EV2A/aligned_files/A4838a/A4838a.pdb

>  <distance_score>  (482) 
None

>  <energy_score>  (482) 
None

>  <compound>  (482) 
HVQIWPCPNWMLEJ-UHFFFAOYSA-N

>  <compound_id>  (482) 
205

>  <target>  (482) 
A71EV2A

>  <tags>  (482) 
['GOOD count', 'MEDIOCRE count', '[Other] S1 site', 'hits', '[Other] S2 site', '[Other] P3 compound design', '[Other] upload_1 2025-02-12', 'Main status', '[Series] Piperidine series', 'BAD count']

>  <inspirations>  (482) 
None

>  <subsites>  (482) 
None

>  <reference>  (482) 


>  <observation_longname>  (482) 
A71EV2A-x4838_A_201_v1

>  <ConformerSites alias>  (482) 
1b - A0911/A/147

>  <CanonSites alias>  (482) 
1 - Active Site

>  <CrystalformSites alias>  (482) 
F1a - A0375/A/201

>  <Quatassemblies alias>  (482) 
A1 - monomer

>  <Crystalforms alias>  (482) 
F1 - A71_2A_open

>  <ConformerSites upload name>  (482) 
1b - A71EV2A-x0911/A/147

>  <CanonSites upload name>  (482) 
1 - A71EV2A-x0911/A/147/1

>  <CrystalformSites upload name>  (482) 
F1a - A71EV2A-x0375/A/201/1

>  <Quatassemblies upload name>  (482) 
A1 - monomer

>  <Crystalforms upload name>  (482) 
F1 - A71_2A_open

>  <ConformerSites short tag>  (482) 
1b - A0911/A/147

>  <CanonSites short tag>  (482) 
1 - A0911/A/147/1

>  <CrystalformSites short tag>  (482) 
F1a - A0375/A/201

>  <Quatassemblies short tag>  (482) 
A1 - monomer

>  <Crystalforms short tag>  (482) 
F1 - A71_2A_open

>  <Centroid res>  (482) 
A71EV2A-x0911/A/133/A_v1

>  <Experiment code>  (482) 
A71EV2A-x4838

>  <Pose>  (482) 
A4838a

$$$$
A4839a
     RDKit          3D

 21 23  0  0  0  0  0  0  0  0999 V2000
   11.6870   14.8890   24.9860 O   0  0  0  0  0  0  0  0  0  0  0  0
   11.5020   14.9310   23.7740 C   0  0  0  0  0  0  0  0  0  0  0  0
   12.6800   15.0440   22.8470 C   0  0  0  0  0  0  0  0  0  0  0  0
   12.3530   15.6040   21.4570 C   0  0  0  0  0  0  0  0  0  0  0  0
   11.1030   14.9430   20.8660 C   0  0  2  0  0  0  0  0  0  0  0  0
   10.8580   15.3980   19.4370 C   0  0  0  0  0  0  0  0  0  0  0  0
   10.3190   16.4870   19.1940 O   0  0  0  0  0  0  0  0  0  0  0  0
   11.2070   14.5400   18.4830 N   0  0  0  0  0  0  0  0  0  0  0  0
    9.9110   15.1740   21.8140 C   0  0  0  0  0  0  0  0  0  0  0  0
   10.2600   14.9950   23.2320 N   0  0  0  0  0  0  0  0  0  0  0  0
    9.0950   15.0620   24.1110 C   0  0  0  0  0  0  0  0  0  0  0  0
    8.4030   13.7420   24.3610 C   0  0  0  0  0  0  0  0  0  0  0  0
    7.2690   13.7180   25.1820 C   0  0  0  0  0  0  0  0  0  0  0  0
    6.6400   12.5290   25.5020 C   0  0  0  0  0  0  0  0  0  0  0  0
    8.9010   12.5370   23.8540 C   0  0  0  0  0  0  0  0  0  0  0  0
    8.2720   11.3360   24.1860 C   0  0  0  0  0  0  0  0  0  0  0  0
    8.5550   10.0330   23.8930 N   0  0  0  0  0  0  0  0  0  0  0  0
    9.6740    9.4870   23.1370 C   0  0  0  0  0  0  0  0  0  0  0  0
    7.1350   11.3190   25.0110 C   0  0  0  0  0  0  0  0  0  0  0  0
    6.8200    9.9400   25.1520 C   0  0  0  0  0  0  0  0  0  0  0  0
    7.6630    9.1820   24.4840 N   0  0  0  0  0  0  0  0  0  0  0  0
 18 17  1  0
 17 21  1  0
 21 20  2  0
 20 19  1  0
 19 14  1  0
 14 13  2  0
 13 12  1  0
 12 11  1  0
 11 10  1  0
 10  9  1  0
  9  5  1  0
  5  6  1  6
  8  6  1  0
  7  6  2  0
  5  4  1  0
  4  3  1  0
  3  2  1  0
 10  2  1  0
  2  1  2  0
 15 12  2  0
 16 15  1  0
 19 16  2  0
 17 16  1  0
M  END
>  <id>  (483) 
483

>  <inchikey>  (483) 
ICAOAIIRHBCCAZ-LBPRGKRZSA-N

>  <alias>  (483) 
A4839a

>  <smiles>  (483) 
Cn1ncc2ccc(CN3C[C@@H](C(N)=O)CCC3=O)cc21

>  <path>  (483) 
/opt/xchem-fragalysis-2/maxwin/BulkDock/TARGETS/A71EV2A/aligned_files/A4839a/A4839a.pdb

>  <distance_score>  (483) 
None

>  <energy_score>  (483) 
None

>  <compound>  (483) 
ICAOAIIRHBCCAZ-UHFFFAOYSA-N

>  <compound_id>  (483) 
363

>  <target>  (483) 
A71EV2A

>  <tags>  (483) 
['GOOD count', 'MEDIOCRE count', '[Other] S1 site', 'hits', '[Other] S2 site', '[Other] upload_6_2025-02-13', '[Other] P3 compound design', '[Other] upload_1 2025-02-12', 'Main status', '[Series] Piperidine series', 'BAD count']

>  <inspirations>  (483) 
None

>  <subsites>  (483) 
None

>  <reference>  (483) 


>  <observation_longname>  (483) 
A71EV2A-x4839_A_201_v1

>  <ConformerSites alias>  (483) 
1b - A0911/A/147

>  <CanonSites alias>  (483) 
1 - Active Site

>  <CrystalformSites alias>  (483) 
F1a - A0375/A/201

>  <Quatassemblies alias>  (483) 
A1 - monomer

>  <Crystalforms alias>  (483) 
F1 - A71_2A_open

>  <ConformerSites upload name>  (483) 
1b - A71EV2A-x0911/A/147

>  <CanonSites upload name>  (483) 
1 - A71EV2A-x0911/A/147/1

>  <CrystalformSites upload name>  (483) 
F1a - A71EV2A-x0375/A/201/1

>  <Quatassemblies upload name>  (483) 
A1 - monomer

>  <Crystalforms upload name>  (483) 
F1 - A71_2A_open

>  <ConformerSites short tag>  (483) 
1b - A0911/A/147

>  <CanonSites short tag>  (483) 
1 - A0911/A/147/1

>  <CrystalformSites short tag>  (483) 
F1a - A0375/A/201

>  <Quatassemblies short tag>  (483) 
A1 - monomer

>  <Crystalforms short tag>  (483) 
F1 - A71_2A_open

>  <Centroid res>  (483) 
A71EV2A-x0911/A/133/A_v1

>  <Experiment code>  (483) 
A71EV2A-x4839

>  <Pose>  (483) 
A4839a

$$$$
A4840a
     RDKit          3D

 21 22  0  0  0  0  0  0  0  0999 V2000
   10.3030   16.6110   19.0700 O   0  0  0  0  0  0  0  0  0  0  0  0
   10.7490   15.4900   19.3380 C   0  0  0  0  0  0  0  0  0  0  0  0
   11.2480   14.6780   18.4240 N   0  0  0  0  0  0  0  0  0  0  0  0
   10.7610   14.9680   20.7650 C   0  0  1  0  0  0  0  0  0  0  0  0
   11.9260   15.5550   21.5760 C   0  0  0  0  0  0  0  0  0  0  0  0
   11.9960   14.9490   22.9770 C   0  0  0  0  0  0  0  0  0  0  0  0
   10.6610   15.0660   23.6910 C   0  0  0  0  0  0  0  0  0  0  0  0
    9.4500   15.1630   21.5320 C   0  0  0  0  0  0  0  0  0  0  0  0
    9.5560   14.5530   22.8610 N   0  0  0  0  0  0  0  0  0  0  0  0
    8.6700   13.6150   23.2640 C   0  0  0  0  0  0  0  0  0  0  0  0
    7.6680   13.3510   22.6190 O   0  0  0  0  0  0  0  0  0  0  0  0
    8.9810   12.9180   24.5770 C   0  0  0  0  0  0  0  0  0  0  0  0
    7.8980   11.9610   25.0260 C   0  0  0  0  0  0  0  0  0  0  0  0
    8.0080   10.5710   24.8440 C   0  0  0  0  0  0  0  0  0  0  0  0
    9.1380    9.9350   24.0870 C   0  0  0  0  0  0  0  0  0  0  0  0
   10.2130   10.5350   23.9560 O   0  0  0  0  0  0  0  0  0  0  0  0
    8.9580    8.7170   23.5970 N   0  0  0  0  0  0  0  0  0  0  0  0
    6.8420   12.4550   25.7870 C   0  0  0  0  0  0  0  0  0  0  0  0
    5.9550   11.6000   26.4160 C   0  0  0  0  0  0  0  0  0  0  0  0
    6.0810   10.2450   26.2610 C   0  0  0  0  0  0  0  0  0  0  0  0
    7.0780    9.7260   25.4520 C   0  0  0  0  0  0  0  0  0  0  0  0
 17 15  1  0
 16 15  2  0
 15 14  1  0
 14 21  2  0
 21 20  1  0
 20 19  2  0
 19 18  1  0
 18 13  2  0
 14 13  1  0
 13 12  1  0
 12 10  1  0
 11 10  2  0
 10  9  1  0
  9  7  1  0
  7  6  1  0
  6  5  1  0
  5  4  1  0
  4  2  1  6
  3  2  1  0
  2  1  2  0
  8  4  1  0
  9  8  1  0
M  END
>  <id>  (484) 
484

>  <inchikey>  (484) 
KSEBAGNDQOTDCD-NSHDSACASA-N

>  <alias>  (484) 
A4840a

>  <smiles>  (484) 
NC(=O)c1ccccc1CC(=O)N1CCC[C@H](C(N)=O)C1

>  <path>  (484) 
/opt/xchem-fragalysis-2/maxwin/BulkDock/TARGETS/A71EV2A/aligned_files/A4840a/A4840a.pdb

>  <distance_score>  (484) 
None

>  <energy_score>  (484) 
None

>  <compound>  (484) 
KSEBAGNDQOTDCD-UHFFFAOYSA-N

>  <compound_id>  (484) 
364

>  <target>  (484) 
A71EV2A

>  <tags>  (484) 
['GOOD count', 'MEDIOCRE count', '[Other] S1 site', 'hits', '[Other] S2 site', '[Other] upload_6_2025-02-13', '[Other] P3 compound design', '[Other] upload_1 2025-02-12', 'Main status', '[Series] Piperidine series', 'BAD count']

>  <inspirations>  (484) 
None

>  <subsites>  (484) 
None

>  <reference>  (484) 


>  <observation_longname>  (484) 
A71EV2A-x4840_A_201_v1

>  <ConformerSites alias>  (484) 
1b - A0911/A/147

>  <CanonSites alias>  (484) 
1 - Active Site

>  <CrystalformSites alias>  (484) 
F5i - A3175/A/201

>  <Quatassemblies alias>  (484) 
A1 - monomer

>  <Crystalforms alias>  (484) 
F5 - A71EV2A_x3178_new_long_dials_041024

>  <ConformerSites upload name>  (484) 
1b - A71EV2A-x0911/A/147

>  <CanonSites upload name>  (484) 
1 - A71EV2A-x0911/A/147/1

>  <CrystalformSites upload name>  (484) 
F5i - A71EV2A-x3175/A/201/1

>  <Quatassemblies upload name>  (484) 
A1 - monomer

>  <Crystalforms upload name>  (484) 
F5 - A71EV2A_x3178_new_long_dials_041024

>  <ConformerSites short tag>  (484) 
1b - A0911/A/147

>  <CanonSites short tag>  (484) 
1 - A0911/A/147/1

>  <CrystalformSites short tag>  (484) 
F5i - A3175/A/201

>  <Quatassemblies short tag>  (484) 
A1 - monomer

>  <Crystalforms short tag>  (484) 
F5 - A71EV2A_x3178_new_long_dials_041024

>  <Centroid res>  (484) 
A71EV2A-x0911/A/133/A_v1

>  <Experiment code>  (484) 
A71EV2A-x4840

>  <Pose>  (484) 
A4840a

$$$$
A4843a
     RDKit          3D

 25 26  0  0  0  0  0  0  0  0999 V2000
   10.3970   16.9000   19.2920 O   0  0  0  0  0  0  0  0  0  0  0  0
   10.7370   15.7450   19.5140 C   0  0  0  0  0  0  0  0  0  0  0  0
   10.9220   14.8500   18.5580 N   0  0  0  0  0  0  0  0  0  0  0  0
   10.9160   15.2560   20.9360 C   0  0  1  0  0  0  0  0  0  0  0  0
   11.6240   16.3050   21.7740 C   0  0  0  0  0  0  0  0  0  0  0  0
   11.7370   15.8770   23.2260 C   0  0  0  0  0  0  0  0  0  0  0  0
   10.3860   15.6420   23.7880 C   0  0  0  0  0  0  0  0  0  0  0  0
    9.5200   15.1400   21.5000 C   0  0  0  0  0  0  0  0  0  0  0  0
    9.5900   14.7850   22.9150 N   0  0  0  0  0  0  0  0  0  0  0  0
    9.3070   13.7340   23.5890 C   0  0  0  0  0  0  0  0  0  0  0  0
   10.0820   13.2910   24.4130 O   0  0  0  0  0  0  0  0  0  0  0  0
    8.1240   13.1020   23.3820 N   0  0  0  0  0  0  0  0  0  0  0  0
    7.2800   13.3930   22.2300 C   0  0  0  0  0  0  0  0  0  0  0  0
    7.6090   12.2080   24.4030 C   0  0  0  0  0  0  0  0  0  0  0  0
    8.0710   10.8830   24.4980 C   0  0  0  0  0  0  0  0  0  0  0  0
    8.8170   10.4250   23.4590 O   0  0  0  0  0  0  0  0  0  0  0  0
    8.5150    9.1300   22.9960 C   0  0  0  0  0  0  0  0  0  0  0  0
    6.8780   12.7210   25.4820 C   0  0  0  0  0  0  0  0  0  0  0  0
    6.6510   11.9620   26.6370 C   0  0  0  0  0  0  0  0  0  0  0  0
    5.8090   12.4940   27.7790 C   0  0  0  0  0  0  0  0  0  0  0  0
    6.2650   13.5730   28.3500 F   0  0  0  0  0  0  0  0  0  0  0  0
    4.5970   12.6930   27.4570 F   0  0  0  0  0  0  0  0  0  0  0  0
    5.7110   11.6770   28.7930 F   0  0  0  0  0  0  0  0  0  0  0  0
    7.1360   10.6670   26.6960 C   0  0  0  0  0  0  0  0  0  0  0  0
    7.8270   10.1200   25.6290 C   0  0  0  0  0  0  0  0  0  0  0  0
 17 16  1  0
 16 15  1  0
 15 25  2  0
 25 24  1  0
 24 19  2  0
 20 19  1  0
 23 20  1  0
 22 20  1  0
 21 20  1  0
 19 18  1  0
 18 14  2  0
 15 14  1  0
 14 12  1  0
 13 12  1  0
 12 10  1  0
 11 10  2  0
 10  9  1  0
  9  7  1  0
  7  6  1  0
  6  5  1  0
  5  4  1  0
  4  2  1  6
  3  2  1  0
  2  1  2  0
  8  4  1  0
  9  8  1  0
M  END
>  <id>  (485) 
485

>  <inchikey>  (485) 
OWHZNNVHZNXEAS-JTQLQIEISA-N

>  <alias>  (485) 
A4843a

>  <smiles>  (485) 
COc1ccc(C(F)(F)F)cc1N(C)C(=O)N1CCC[C@H](C(N)=O)C1

>  <path>  (485) 
/opt/xchem-fragalysis-2/maxwin/BulkDock/TARGETS/A71EV2A/aligned_files/A4843a/A4843a.pdb

>  <distance_score>  (485) 
None

>  <energy_score>  (485) 
None

>  <compound>  (485) 
OWHZNNVHZNXEAS-UHFFFAOYSA-N

>  <compound_id>  (485) 
365

>  <target>  (485) 
A71EV2A

>  <tags>  (485) 
['GOOD count', 'MEDIOCRE count', '[Other] S1 site', 'hits', '[Other] upload_3 2025-03-06', '[Other] S2 site', '[Other] P3 compound design', '[Series] Piperidine series', 'Main status', 'BAD count']

>  <inspirations>  (485) 
None

>  <subsites>  (485) 
None

>  <reference>  (485) 


>  <observation_longname>  (485) 
A71EV2A-x4843_A_201_v3

>  <ConformerSites alias>  (485) 
1b - A0911/A/147

>  <CanonSites alias>  (485) 
1 - Active Site

>  <CrystalformSites alias>  (485) 
F8h - A0884/A/147

>  <Quatassemblies alias>  (485) 
A1 - monomer

>  <Crystalforms alias>  (485) 
F8 - A712A_x4271_2.1_refmac1_1st_ref

>  <ConformerSites upload name>  (485) 
1b - A71EV2A-x0911/A/147

>  <CanonSites upload name>  (485) 
1 - A71EV2A-x0911/A/147/1

>  <CrystalformSites upload name>  (485) 
F8h - A71EV2A-x0884/A/147/1

>  <Quatassemblies upload name>  (485) 
A1 - monomer

>  <Crystalforms upload name>  (485) 
F8 - A712A_x4271_2.1_refmac1_1st_ref

>  <ConformerSites short tag>  (485) 
1b - A0911/A/147

>  <CanonSites short tag>  (485) 
1 - A0911/A/147/1

>  <CrystalformSites short tag>  (485) 
F8h - A0884/A/147

>  <Quatassemblies short tag>  (485) 
A1 - monomer

>  <Crystalforms short tag>  (485) 
F8 - A712A_x4271_2.1_refmac1_1st_ref

>  <Centroid res>  (485) 
A71EV2A-x0911/A/133/A_v1

>  <Experiment code>  (485) 
A71EV2A-x4843

>  <Pose>  (485) 
A4843a

$$$$
A4845a
     RDKit          3D

 23 24  0  0  0  0  0  0  0  0999 V2000
   10.2300   16.5310   18.9720 O   0  0  0  0  0  0  0  0  0  0  0  0
   10.6460   15.4010   19.2390 C   0  0  0  0  0  0  0  0  0  0  0  0
   11.1540   14.5860   18.3240 N   0  0  0  0  0  0  0  0  0  0  0  0
   10.6000   14.8620   20.6590 C   0  0  1  0  0  0  0  0  0  0  0  0
   11.6830   15.5010   21.5250 C   0  0  0  0  0  0  0  0  0  0  0  0
   11.6650   14.8990   22.9220 C   0  0  0  0  0  0  0  0  0  0  0  0
   10.2870   15.0120   23.5490 C   0  0  0  0  0  0  0  0  0  0  0  0
    9.2450   15.0830   21.3290 C   0  0  0  0  0  0  0  0  0  0  0  0
    9.2390   14.4860   22.6650 N   0  0  0  0  0  0  0  0  0  0  0  0
    8.3380   13.5930   23.1070 C   0  0  0  0  0  0  0  0  0  0  0  0
    7.4150   13.2020   22.4160 O   0  0  0  0  0  0  0  0  0  0  0  0
    8.5000   13.1450   24.5450 C   0  0  0  0  0  0  0  0  0  0  0  0
    7.2280   12.5030   25.0490 C   0  0  0  0  0  0  0  0  0  0  0  0
    7.0340   11.1280   25.0820 C   0  0  0  0  0  0  0  0  0  0  0  0
    8.3980    9.9420   24.5460 Br  0  0  0  0  0  0  0  0  0  0  0  0
    5.8560   10.5590   25.4960 C   0  0  0  0  0  0  0  0  0  0  0  0
    6.1680   13.3070   25.4590 C   0  0  0  0  0  0  0  0  0  0  0  0
    4.9770   12.7560   25.8850 C   0  0  0  0  0  0  0  0  0  0  0  0
    3.8990   13.4700   26.3220 O   0  0  0  0  0  0  0  0  0  0  0  0
    4.1210   14.8320   26.6810 C   0  0  0  0  0  0  0  0  0  0  0  0
    4.8290   11.3640   25.9100 C   0  0  0  0  0  0  0  0  0  0  0  0
    3.6830   10.8920   26.4610 O   0  0  0  0  0  0  0  0  0  0  0  0
    3.7780    9.6510   27.1140 C   0  0  0  0  0  0  0  0  0  0  0  0
 23 22  1  0
 22 21  1  0
 21 16  1  0
 16 14  2  0
 15 14  1  0
 14 13  1  0
 13 12  1  0
 12 10  1  0
 11 10  2  0
 10  9  1  0
  9  7  1  0
  7  6  1  0
  6  5  1  0
  5  4  1  0
  4  2  1  6
  3  2  1  0
  2  1  2  0
  8  4  1  0
  9  8  1  0
 17 13  2  0
 18 17  1  0
 21 18  2  0
 19 18  1  0
 20 19  1  0
M  END
>  <id>  (486) 
486

>  <inchikey>  (486) 
ZBONZJXUIMFIHW-JTQLQIEISA-N

>  <alias>  (486) 
A4845a

>  <smiles>  (486) 
COc1cc(Br)c(CC(=O)N2CCC[C@H](C(N)=O)C2)cc1OC

>  <path>  (486) 
/opt/xchem-fragalysis-2/maxwin/BulkDock/TARGETS/A71EV2A/aligned_files/A4845a/A4845a.pdb

>  <distance_score>  (486) 
None

>  <energy_score>  (486) 
None

>  <compound>  (486) 
ZBONZJXUIMFIHW-UHFFFAOYSA-N

>  <compound_id>  (486) 
366

>  <target>  (486) 
A71EV2A

>  <tags>  (486) 
['GOOD count', 'MEDIOCRE count', '[Other] S1 site', 'hits', '[Other] S2 site', '[Other] P3 compound design', '[Series] Piperidine series', 'Main status', '[Other] upload_2 2025-02-28', 'BAD count']

>  <inspirations>  (486) 
None

>  <subsites>  (486) 
None

>  <reference>  (486) 


>  <observation_longname>  (486) 
A71EV2A-x4845_A_201_v2

>  <ConformerSites alias>  (486) 
1b - A0911/A/147

>  <CanonSites alias>  (486) 
1 - Active Site

>  <CrystalformSites alias>  (486) 
F5i - A3175/A/201

>  <Quatassemblies alias>  (486) 
A1 - monomer

>  <Crystalforms alias>  (486) 
F5 - A71EV2A_x3178_new_long_dials_041024

>  <ConformerSites upload name>  (486) 
1b - A71EV2A-x0911/A/147

>  <CanonSites upload name>  (486) 
1 - A71EV2A-x0911/A/147/1

>  <CrystalformSites upload name>  (486) 
F5i - A71EV2A-x3175/A/201/1

>  <Quatassemblies upload name>  (486) 
A1 - monomer

>  <Crystalforms upload name>  (486) 
F5 - A71EV2A_x3178_new_long_dials_041024

>  <ConformerSites short tag>  (486) 
1b - A0911/A/147

>  <CanonSites short tag>  (486) 
1 - A0911/A/147/1

>  <CrystalformSites short tag>  (486) 
F5i - A3175/A/201

>  <Quatassemblies short tag>  (486) 
A1 - monomer

>  <Crystalforms short tag>  (486) 
F5 - A71EV2A_x3178_new_long_dials_041024

>  <Centroid res>  (486) 
A71EV2A-x0911/A/133/A_v1

>  <Experiment code>  (486) 
A71EV2A-x4845

>  <Pose>  (486) 
A4845a

$$$$
A4846a
     RDKit          3D

 19 20  0  0  0  0  0  0  0  0999 V2000
   10.1670   16.5070   19.5330 O   0  0  0  0  0  0  0  0  0  0  0  0
   10.5570   15.3490   19.7420 C   0  0  0  0  0  0  0  0  0  0  0  0
   11.0630   14.5800   18.7860 N   0  0  0  0  0  0  0  0  0  0  0  0
   10.3690   14.6900   21.0990 C   0  0  1  0  0  0  0  0  0  0  0  0
   11.3800   15.1670   22.1540 C   0  0  0  0  0  0  0  0  0  0  0  0
   11.1840   14.3760   23.4570 C   0  0  0  0  0  0  0  0  0  0  0  0
    9.7340   14.4550   23.9590 C   0  0  0  0  0  0  0  0  0  0  0  0
    8.9760   14.9560   21.6610 C   0  0  0  0  0  0  0  0  0  0  0  0
    8.7690   14.1690   22.8830 N   0  0  0  0  0  0  0  0  0  0  0  0
    7.7150   13.3250   22.9480 C   0  0  0  0  0  0  0  0  0  0  0  0
    6.9280   13.1880   22.0180 O   0  0  0  0  0  0  0  0  0  0  0  0
    7.5010   12.5140   24.2000 C   0  0  0  0  0  0  0  0  0  0  0  0
    8.0990   11.2450   24.3280 C   0  0  0  0  0  0  0  0  0  0  0  0
    9.3890   10.7880   23.2040 S   0  0  0  0  0  0  0  0  0  0  0  0
    9.3540    8.9640   23.2090 C   0  0  0  0  0  0  0  0  0  0  0  0
    6.5100   12.8990   25.1060 C   0  0  0  0  0  0  0  0  0  0  0  0
    6.0850   12.0170   26.0900 C   0  0  0  0  0  0  0  0  0  0  0  0
    6.6330   10.7560   26.1730 C   0  0  0  0  0  0  0  0  0  0  0  0
    7.6430   10.3710   25.3080 C   0  0  0  0  0  0  0  0  0  0  0  0
 15 14  1  0
 14 13  1  0
 13 19  2  0
 19 18  1  0
 18 17  2  0
 17 16  1  0
 16 12  2  0
 13 12  1  0
 12 10  1  0
 11 10  2  0
 10  9  1  0
  9  7  1  0
  7  6  1  0
  6  5  1  0
  5  4  1  0
  4  2  1  6
  3  2  1  0
  2  1  2  0
  8  4  1  0
  9  8  1  0
M  END
>  <id>  (487) 
487

>  <inchikey>  (487) 
YOUXGCKURFHYGE-JTQLQIEISA-N

>  <alias>  (487) 
A4846a

>  <smiles>  (487) 
CSc1ccccc1C(=O)N1CCC[C@H](C(N)=O)C1

>  <path>  (487) 
/opt/xchem-fragalysis-2/maxwin/BulkDock/TARGETS/A71EV2A/aligned_files/A4846a/A4846a.pdb

>  <distance_score>  (487) 
None

>  <energy_score>  (487) 
None

>  <compound>  (487) 
YOUXGCKURFHYGE-UHFFFAOYSA-N

>  <compound_id>  (487) 
367

>  <target>  (487) 
A71EV2A

>  <tags>  (487) 
['GOOD count', 'MEDIOCRE count', '[Other] S1 site', 'hits', '[Other] S2 site', '[Other] P3 compound design', '[Other] upload_1 2025-02-12', 'Main status', '[Series] Piperidine series', 'BAD count']

>  <inspirations>  (487) 
None

>  <subsites>  (487) 
None

>  <reference>  (487) 


>  <observation_longname>  (487) 
A71EV2A-x4846_A_201_v1

>  <ConformerSites alias>  (487) 
1b - A0911/A/147

>  <CanonSites alias>  (487) 
1 - Active Site

>  <CrystalformSites alias>  (487) 
F1a - A0375/A/201

>  <Quatassemblies alias>  (487) 
A1 - monomer

>  <Crystalforms alias>  (487) 
F1 - A71_2A_open

>  <ConformerSites upload name>  (487) 
1b - A71EV2A-x0911/A/147

>  <CanonSites upload name>  (487) 
1 - A71EV2A-x0911/A/147/1

>  <CrystalformSites upload name>  (487) 
F1a - A71EV2A-x0375/A/201/1

>  <Quatassemblies upload name>  (487) 
A1 - monomer

>  <Crystalforms upload name>  (487) 
F1 - A71_2A_open

>  <ConformerSites short tag>  (487) 
1b - A0911/A/147

>  <CanonSites short tag>  (487) 
1 - A0911/A/147/1

>  <CrystalformSites short tag>  (487) 
F1a - A0375/A/201

>  <Quatassemblies short tag>  (487) 
A1 - monomer

>  <Crystalforms short tag>  (487) 
F1 - A71_2A_open

>  <Centroid res>  (487) 
A71EV2A-x0911/A/133/A_v1

>  <Experiment code>  (487) 
A71EV2A-x4846

>  <Pose>  (487) 
A4846a

$$$$
A4847a
     RDKit          3D

 20 22  0  0  0  0  0  0  0  0999 V2000
   11.5970   14.7700   24.8930 O   0  0  0  0  0  0  0  0  0  0  0  0
   11.4490   14.8830   23.6810 C   0  0  0  0  0  0  0  0  0  0  0  0
   12.6220   15.2610   22.8100 C   0  0  0  0  0  0  0  0  0  0  0  0
   12.2890   15.7650   21.3950 C   0  0  0  0  0  0  0  0  0  0  0  0
   10.2390   14.7340   23.0830 N   0  0  0  0  0  0  0  0  0  0  0  0
    9.9200   14.9640   21.6650 C   0  0  0  0  0  0  0  0  0  0  0  0
   11.1680   14.9210   20.7790 C   0  0  1  0  0  0  0  0  0  0  0  0
   10.8320   15.3690   19.3640 C   0  0  0  0  0  0  0  0  0  0  0  0
   10.2670   16.4510   19.1520 O   0  0  0  0  0  0  0  0  0  0  0  0
   11.1400   14.5100   18.4030 N   0  0  0  0  0  0  0  0  0  0  0  0
    9.0850   14.3350   23.8970 C   0  0  0  0  0  0  0  0  0  0  0  0
    8.8470   12.8380   23.9690 C   0  0  0  0  0  0  0  0  0  0  0  0
    7.8470   12.3150   24.8160 C   0  0  0  0  0  0  0  0  0  0  0  0
    6.8630   12.9150   25.6740 C   0  0  0  0  0  0  0  0  0  0  0  0
    6.1910   11.8970   26.2700 C   0  0  0  0  0  0  0  0  0  0  0  0
    6.6970   10.6880   25.8540 N   0  0  0  0  0  0  0  0  0  0  0  0
    7.7160   10.9170   24.9530 C   0  0  0  0  0  0  0  0  0  0  0  0
    8.5430   10.0270   24.2740 C   0  0  0  0  0  0  0  0  0  0  0  0
    9.4980   10.5500   23.4170 C   0  0  0  0  0  0  0  0  0  0  0  0
    9.6500   11.9280   23.2740 C   0  0  0  0  0  0  0  0  0  0  0  0
 10  8  1  0
  9  8  2  0
  7  8  1  6
  7  4  1  0
  4  3  1  0
  3  2  1  0
  2  1  2  0
  5  2  1  0
 11  5  1  0
 12 11  1  0
 12 20  1  0
 20 19  2  0
 19 18  1  0
 18 17  2  0
 17 16  1  0
 16 15  1  0
 15 14  2  0
 14 13  1  0
 13 12  2  0
 17 13  1  0
  6  5  1  0
  7  6  1  0
M  END
>  <id>  (488) 
488

>  <inchikey>  (488) 
ZFXTXOZEQPVJKQ-NSHDSACASA-N

>  <alias>  (488) 
A4847a

>  <smiles>  (488) 
NC(=O)[C@H]1CCC(=O)N(Cc2cccc3[nH]ccc23)C1

>  <path>  (488) 
/opt/xchem-fragalysis-2/maxwin/BulkDock/TARGETS/A71EV2A/aligned_files/A4847a/A4847a.pdb

>  <distance_score>  (488) 
None

>  <energy_score>  (488) 
None

>  <compound>  (488) 
ZFXTXOZEQPVJKQ-UHFFFAOYSA-N

>  <compound_id>  (488) 
368

>  <target>  (488) 
A71EV2A

>  <tags>  (488) 
['GOOD count', 'MEDIOCRE count', '[Other] S1 site', 'hits', '[Other] S2 site', '[Other] P3 compound design', '[Other] upload_1 2025-02-12', 'Main status', '[Series] Piperidine series', 'BAD count']

>  <inspirations>  (488) 
None

>  <subsites>  (488) 
None

>  <reference>  (488) 


>  <observation_longname>  (488) 
A71EV2A-x4847_A_201_v1

>  <ConformerSites alias>  (488) 
1b - A0911/A/147

>  <CanonSites alias>  (488) 
1 - Active Site

>  <CrystalformSites alias>  (488) 
F1a - A0375/A/201

>  <Quatassemblies alias>  (488) 
A1 - monomer

>  <Crystalforms alias>  (488) 
F1 - A71_2A_open

>  <ConformerSites upload name>  (488) 
1b - A71EV2A-x0911/A/147

>  <CanonSites upload name>  (488) 
1 - A71EV2A-x0911/A/147/1

>  <CrystalformSites upload name>  (488) 
F1a - A71EV2A-x0375/A/201/1

>  <Quatassemblies upload name>  (488) 
A1 - monomer

>  <Crystalforms upload name>  (488) 
F1 - A71_2A_open

>  <ConformerSites short tag>  (488) 
1b - A0911/A/147

>  <CanonSites short tag>  (488) 
1 - A0911/A/147/1

>  <CrystalformSites short tag>  (488) 
F1a - A0375/A/201

>  <Quatassemblies short tag>  (488) 
A1 - monomer

>  <Crystalforms short tag>  (488) 
F1 - A71_2A_open

>  <Centroid res>  (488) 
A71EV2A-x0911/A/133/A_v1

>  <Experiment code>  (488) 
A71EV2A-x4847

>  <Pose>  (488) 
A4847a

$$$$
A4855a
     RDKit          3D

 19 20  0  0  0  0  0  0  0  0999 V2000
   10.3080   16.5280   19.2930 O   0  0  0  0  0  0  0  0  0  0  0  0
   10.8500   15.4340   19.4780 C   0  0  0  0  0  0  0  0  0  0  0  0
   11.1980   14.6230   18.4850 N   0  0  0  0  0  0  0  0  0  0  0  0
   11.0890   14.9080   20.8830 C   0  0  1  0  0  0  0  0  0  0  0  0
   11.8620   15.8700   21.8120 C   0  0  0  0  0  0  0  0  0  0  0  0
   11.5900   15.2870   23.2000 C   0  0  0  0  0  0  0  0  0  0  0  0
    9.7810   14.7440   21.6660 C   0  0  0  0  0  0  0  0  0  0  0  0
   10.2510   14.6970   23.0540 N   0  0  0  0  0  0  0  0  0  0  0  0
    9.6080   14.0670   24.0690 C   0  0  0  0  0  0  0  0  0  0  0  0
   10.0940   14.0180   25.1960 O   0  0  0  0  0  0  0  0  0  0  0  0
    8.3630   13.5830   23.7890 N   0  0  0  0  0  0  0  0  0  0  0  0
    7.6650   12.6910   24.6540 C   0  0  0  0  0  0  0  0  0  0  0  0
    7.9630   11.3260   24.5180 C   0  0  0  0  0  0  0  0  0  0  0  0
    9.2130   10.9000   23.3350 S   0  0  0  0  0  0  0  0  0  0  0  0
    9.1980    9.1010   23.2980 C   0  0  0  0  0  0  0  0  0  0  0  0
    6.7030   13.0960   25.5840 C   0  0  0  0  0  0  0  0  0  0  0  0
    6.0220   12.1480   26.3410 C   0  0  0  0  0  0  0  0  0  0  0  0
    6.2980   10.8060   26.1870 C   0  0  0  0  0  0  0  0  0  0  0  0
    7.2690   10.3880   25.2840 C   0  0  0  0  0  0  0  0  0  0  0  0
 15 14  1  0
 14 13  1  0
 13 19  2  0
 19 18  1  0
 18 17  2  0
 17 16  1  0
 16 12  2  0
 13 12  1  0
 12 11  1  0
 11  9  1  0
 10  9  2  0
  9  8  1  0
  8  6  1  0
  6  5  1  0
  5  4  1  0
  4  2  1  6
  3  2  1  0
  2  1  2  0
  7  4  1  0
  8  7  1  0
M  END
>  <id>  (489) 
489

>  <inchikey>  (489) 
RUITYHVLQKGYIF-VIFPVBQESA-N

>  <alias>  (489) 
A4855a

>  <smiles>  (489) 
CSc1ccccc1NC(=O)N1CC[C@H](C(N)=O)C1

>  <path>  (489) 
/opt/xchem-fragalysis-2/maxwin/BulkDock/TARGETS/A71EV2A/aligned_files/A4855a/A4855a.pdb

>  <distance_score>  (489) 
None

>  <energy_score>  (489) 
None

>  <compound>  (489) 
RUITYHVLQKGYIF-UHFFFAOYSA-N

>  <compound_id>  (489) 
369

>  <target>  (489) 
A71EV2A

>  <tags>  (489) 
['GOOD count', 'MEDIOCRE count', '[Other] S1 site', 'hits', '[Other] S2 site', '[Other] P3 compound design', '[Other] upload_1 2025-02-12', 'Main status', '[Series] Piperidine series', 'BAD count']

>  <inspirations>  (489) 
None

>  <subsites>  (489) 
None

>  <reference>  (489) 


>  <observation_longname>  (489) 
A71EV2A-x4855_A_201_v1

>  <ConformerSites alias>  (489) 
1b - A0911/A/147

>  <CanonSites alias>  (489) 
1 - Active Site

>  <CrystalformSites alias>  (489) 
F1a - A0375/A/201

>  <Quatassemblies alias>  (489) 
A1 - monomer

>  <Crystalforms alias>  (489) 
F1 - A71_2A_open

>  <ConformerSites upload name>  (489) 
1b - A71EV2A-x0911/A/147

>  <CanonSites upload name>  (489) 
1 - A71EV2A-x0911/A/147/1

>  <CrystalformSites upload name>  (489) 
F1a - A71EV2A-x0375/A/201/1

>  <Quatassemblies upload name>  (489) 
A1 - monomer

>  <Crystalforms upload name>  (489) 
F1 - A71_2A_open

>  <ConformerSites short tag>  (489) 
1b - A0911/A/147

>  <CanonSites short tag>  (489) 
1 - A0911/A/147/1

>  <CrystalformSites short tag>  (489) 
F1a - A0375/A/201

>  <Quatassemblies short tag>  (489) 
A1 - monomer

>  <Crystalforms short tag>  (489) 
F1 - A71_2A_open

>  <Centroid res>  (489) 
A71EV2A-x0911/A/133/A_v1

>  <Experiment code>  (489) 
A71EV2A-x4855

>  <Pose>  (489) 
A4855a

$$$$
A4856a
     RDKit          3D

 20 21  0  0  0  0  0  0  0  0999 V2000
   10.3020   16.3880   19.3120 O   0  0  0  0  0  0  0  0  0  0  0  0
   10.8390   15.2870   19.4470 C   0  0  0  0  0  0  0  0  0  0  0  0
   11.2040   14.5340   18.4220 N   0  0  0  0  0  0  0  0  0  0  0  0
   11.0990   14.7050   20.8270 C   0  0  1  0  0  0  0  0  0  0  0  0
   11.9370   15.5920   21.7620 C   0  0  0  0  0  0  0  0  0  0  0  0
   11.6710   14.9750   23.1280 C   0  0  0  0  0  0  0  0  0  0  0  0
    9.8020   14.5260   21.6330 C   0  0  0  0  0  0  0  0  0  0  0  0
   10.2750   14.5220   23.0230 N   0  0  0  0  0  0  0  0  0  0  0  0
    9.5410   14.1540   24.0940 C   0  0  0  0  0  0  0  0  0  0  0  0
    9.9990   14.1700   25.2330 O   0  0  0  0  0  0  0  0  0  0  0  0
    8.1020   13.7570   23.8200 C   0  0  0  0  0  0  0  0  0  0  0  0
    7.6230   12.6290   24.7070 C   0  0  0  0  0  0  0  0  0  0  0  0
    7.9950   11.2930   24.5050 C   0  0  0  0  0  0  0  0  0  0  0  0
    9.2710   10.9790   23.3280 S   0  0  0  0  0  0  0  0  0  0  0  0
    9.3100    9.1680   23.2200 C   0  0  0  0  0  0  0  0  0  0  0  0
    6.6680   12.9170   25.6780 C   0  0  0  0  0  0  0  0  0  0  0  0
    6.0910   11.8880   26.3890 C   0  0  0  0  0  0  0  0  0  0  0  0
    4.7600   12.2930   27.6700 Br  0  0  0  0  0  0  0  0  0  0  0  0
    6.4330   10.5750   26.1800 C   0  0  0  0  0  0  0  0  0  0  0  0
    7.3870   10.2750   25.2280 C   0  0  0  0  0  0  0  0  0  0  0  0
 15 14  1  0
 14 13  1  0
 13 20  2  0
 20 19  1  0
 19 17  2  0
 18 17  1  0
 17 16  1  0
 16 12  2  0
 13 12  1  0
 12 11  1  0
 11  9  1  0
 10  9  2  0
  9  8  1  0
  8  6  1  0
  6  5  1  0
  5  4  1  0
  4  2  1  6
  3  2  1  0
  2  1  2  0
  7  4  1  0
  8  7  1  0
M  END
>  <id>  (490) 
490

>  <inchikey>  (490) 
AZKVXQCFORNMSH-VIFPVBQESA-N

>  <alias>  (490) 
A4856a

>  <smiles>  (490) 
CSc1ccc(Br)cc1CC(=O)N1CC[C@H](C(N)=O)C1

>  <path>  (490) 
/opt/xchem-fragalysis-2/maxwin/BulkDock/TARGETS/A71EV2A/aligned_files/A4856a/A4856a.pdb

>  <distance_score>  (490) 
None

>  <energy_score>  (490) 
None

>  <compound>  (490) 
AZKVXQCFORNMSH-UHFFFAOYSA-N

>  <compound_id>  (490) 
370

>  <target>  (490) 
A71EV2A

>  <tags>  (490) 
['GOOD count', 'MEDIOCRE count', '[Other] S1 site', 'hits', '[Other] S2 site', '[Other] P3 compound design', '[Other] upload_1 2025-02-12', 'Main status', '[Series] Piperidine series', 'BAD count']

>  <inspirations>  (490) 
None

>  <subsites>  (490) 
None

>  <reference>  (490) 


>  <observation_longname>  (490) 
A71EV2A-x4856_A_201_v1

>  <ConformerSites alias>  (490) 
1b - A0911/A/147

>  <CanonSites alias>  (490) 
1 - Active Site

>  <CrystalformSites alias>  (490) 
F1a - A0375/A/201

>  <Quatassemblies alias>  (490) 
A1 - monomer

>  <Crystalforms alias>  (490) 
F1 - A71_2A_open

>  <ConformerSites upload name>  (490) 
1b - A71EV2A-x0911/A/147

>  <CanonSites upload name>  (490) 
1 - A71EV2A-x0911/A/147/1

>  <CrystalformSites upload name>  (490) 
F1a - A71EV2A-x0375/A/201/1

>  <Quatassemblies upload name>  (490) 
A1 - monomer

>  <Crystalforms upload name>  (490) 
F1 - A71_2A_open

>  <ConformerSites short tag>  (490) 
1b - A0911/A/147

>  <CanonSites short tag>  (490) 
1 - A0911/A/147/1

>  <CrystalformSites short tag>  (490) 
F1a - A0375/A/201

>  <Quatassemblies short tag>  (490) 
A1 - monomer

>  <Crystalforms short tag>  (490) 
F1 - A71_2A_open

>  <Centroid res>  (490) 
A71EV2A-x0911/A/133/A_v1

>  <Experiment code>  (490) 
A71EV2A-x4856

>  <Pose>  (490) 
A4856a

$$$$
A4872a
     RDKit          3D

 23 25  0  0  0  0  0  0  0  0999 V2000
    9.7790    9.4840   23.5300 Cl  0  0  0  0  0  0  0  0  0  0  0  0
    8.5750   10.3170   24.4680 C   0  0  0  0  0  0  0  0  0  0  0  0
    7.5430    9.5940   25.0380 C   0  0  0  0  0  0  0  0  0  0  0  0
    6.5680   10.2520   25.7680 C   0  0  0  0  0  0  0  0  0  0  0  0
    8.6740   11.6860   24.6110 C   0  0  0  0  0  0  0  0  0  0  0  0
    7.6840   12.3330   25.3380 C   0  0  0  0  0  0  0  0  0  0  0  0
    6.6290   11.6260   25.9000 C   0  0  0  0  0  0  0  0  0  0  0  0
    5.5990   12.2680   26.5380 O   0  0  0  0  0  0  0  0  0  0  0  0
    5.3720   13.6200   26.0550 C   0  0  0  0  0  0  0  0  0  0  0  0
    6.6300   14.4720   26.1180 C   0  0  0  0  0  0  0  0  0  0  0  0
    7.7800   13.7570   25.5480 N   0  0  0  0  0  0  0  0  0  0  0  0
    8.8480   14.5620   24.9850 C   0  0  0  0  0  0  0  0  0  0  0  0
    8.7450   14.6360   23.4620 C   0  0  0  0  0  0  0  0  0  0  0  0
    7.6950   14.3740   22.8920 O   0  0  0  0  0  0  0  0  0  0  0  0
    9.8540   14.9990   22.7900 N   0  0  0  0  0  0  0  0  0  0  0  0
   11.2190   14.8430   23.3170 C   0  0  0  0  0  0  0  0  0  0  0  0
   12.1340   15.9480   22.8120 C   0  0  0  0  0  0  0  0  0  0  0  0
   12.1560   16.0270   21.2780 C   0  0  0  0  0  0  0  0  0  0  0  0
    9.7080   15.5900   21.4570 C   0  0  0  0  0  0  0  0  0  0  0  0
   10.9540   15.3380   20.6100 C   0  0  1  0  0  0  0  0  0  0  0  0
   10.6940   15.9030   19.2250 C   0  0  0  0  0  0  0  0  0  0  0  0
   10.4800   17.1060   19.0590 O   0  0  0  0  0  0  0  0  0  0  0  0
   10.6650   15.0200   18.2370 N   0  0  0  0  0  0  0  0  0  0  0  0
 23 21  1  0
 22 21  2  0
 20 21  1  6
 20 18  1  0
 18 17  1  0
 17 16  1  0
 16 15  1  0
 15 13  1  0
 14 13  2  0
 13 12  1  0
 12 11  1  0
 11 10  1  0
 10  9  1  0
  9  8  1  0
  8  7  1  0
  7  4  2  0
  4  3  1  0
  3  2  2  0
  2  1  1  0
  5  2  1  0
  6  5  2  0
  7  6  1  0
 11  6  1  0
 19 15  1  0
 20 19  1  0
M  END
>  <id>  (491) 
491

>  <inchikey>  (491) 
IOHMNWTYJRXITL-NSHDSACASA-N

>  <alias>  (491) 
A4872a

>  <smiles>  (491) 
NC(=O)[C@H]1CCCN(C(=O)CN2CCOc3ccc(Cl)cc32)C1

>  <path>  (491) 
/opt/xchem-fragalysis-2/maxwin/BulkDock/TARGETS/A71EV2A/aligned_files/A4872a/A4872a.pdb

>  <distance_score>  (491) 
None

>  <energy_score>  (491) 
None

>  <compound>  (491) 
IOHMNWTYJRXITL-UHFFFAOYSA-N

>  <compound_id>  (491) 
301

>  <target>  (491) 
A71EV2A

>  <tags>  (491) 
['GOOD count', 'MEDIOCRE count', '[Other] S1 site', 'hits', '[Other] upload_3 2025-03-06', '[Other] S2 site', '[Other] P3 compound design', '[Series] Piperidine series', 'Main status', 'BAD count']

>  <inspirations>  (491) 
None

>  <subsites>  (491) 
None

>  <reference>  (491) 


>  <observation_longname>  (491) 
A71EV2A-x4872_A_201_v3

>  <ConformerSites alias>  (491) 
1b - A0911/A/147

>  <CanonSites alias>  (491) 
1 - Active Site

>  <CrystalformSites alias>  (491) 
F8h - A0884/A/147

>  <Quatassemblies alias>  (491) 
A1 - monomer

>  <Crystalforms alias>  (491) 
F8 - A712A_x4271_2.1_refmac1_1st_ref

>  <ConformerSites upload name>  (491) 
1b - A71EV2A-x0911/A/147

>  <CanonSites upload name>  (491) 
1 - A71EV2A-x0911/A/147/1

>  <CrystalformSites upload name>  (491) 
F8h - A71EV2A-x0884/A/147/1

>  <Quatassemblies upload name>  (491) 
A1 - monomer

>  <Crystalforms upload name>  (491) 
F8 - A712A_x4271_2.1_refmac1_1st_ref

>  <ConformerSites short tag>  (491) 
1b - A0911/A/147

>  <CanonSites short tag>  (491) 
1 - A0911/A/147/1

>  <CrystalformSites short tag>  (491) 
F8h - A0884/A/147

>  <Quatassemblies short tag>  (491) 
A1 - monomer

>  <Crystalforms short tag>  (491) 
F8 - A712A_x4271_2.1_refmac1_1st_ref

>  <Centroid res>  (491) 
A71EV2A-x0911/A/133/A_v1

>  <Experiment code>  (491) 
A71EV2A-x4872

>  <Pose>  (491) 
A4872a

$$$$
A4873a
     RDKit          3D

 21 22  0  0  0  0  0  0  0  0999 V2000
    6.0210   13.7980   25.8910 Cl  0  0  0  0  0  0  0  0  0  0  0  0
    6.6520   12.2370   25.5460 C   0  0  0  0  0  0  0  0  0  0  0  0
    5.9710   11.1100   26.0020 C   0  0  0  0  0  0  0  0  0  0  0  0
    4.8200   11.3620   26.6870 O   0  0  0  0  0  0  0  0  0  0  0  0
    4.1610   10.2610   27.3050 C   0  0  0  0  0  0  0  0  0  0  0  0
    7.8370   12.1080   24.8200 C   0  0  0  0  0  0  0  0  0  0  0  0
    8.3320   10.8330   24.5670 C   0  0  0  0  0  0  0  0  0  0  0  0
    7.6500    9.7170   25.0250 C   0  0  0  0  0  0  0  0  0  0  0  0
    6.4710    9.8490   25.7370 C   0  0  0  0  0  0  0  0  0  0  0  0
    8.5000   13.2650   24.3480 N   0  0  0  0  0  0  0  0  0  0  0  0
    8.3880   13.7600   23.0990 C   0  0  0  0  0  0  0  0  0  0  0  0
    7.5840   13.3230   22.2960 O   0  0  0  0  0  0  0  0  0  0  0  0
    9.1790   14.8260   22.8080 N   0  0  0  0  0  0  0  0  0  0  0  0
    9.2770   15.3230   21.4360 C   0  0  0  0  0  0  0  0  0  0  0  0
   10.6230   14.9390   20.8250 C   0  0  1  0  0  0  0  0  0  0  0  0
   10.6650   15.4660   19.4010 C   0  0  0  0  0  0  0  0  0  0  0  0
   10.4160   16.6460   19.1520 O   0  0  0  0  0  0  0  0  0  0  0  0
   10.9570   14.5820   18.4640 N   0  0  0  0  0  0  0  0  0  0  0  0
   11.7160   15.5700   21.6870 C   0  0  0  0  0  0  0  0  0  0  0  0
   11.6220   15.0600   23.1190 C   0  0  0  0  0  0  0  0  0  0  0  0
   10.2420   15.3110   23.6950 C   0  0  0  0  0  0  0  0  0  0  0  0
  5  4  1  0
  4  3  1  0
  3  9  2  0
  9  8  1  0
  8  7  2  0
  7  6  1  0
 10  6  1  0
 11 10  1  0
 12 11  2  0
 13 11  1  0
 13 21  1  0
 21 20  1  0
 20 19  1  0
 19 15  1  0
 15 16  1  6
 18 16  1  0
 17 16  2  0
 15 14  1  0
 14 13  1  0
  6  2  2  0
  3  2  1  0
  2  1  1  0
M  END
>  <id>  (492) 
492

>  <inchikey>  (492) 
DFGLJBPMZPVSMK-VIFPVBQESA-N

>  <alias>  (492) 
A4873a

>  <smiles>  (492) 
COc1cccc(NC(=O)N2CCC[C@H](C(N)=O)C2)c1Cl

>  <path>  (492) 
/opt/xchem-fragalysis-2/maxwin/BulkDock/TARGETS/A71EV2A/aligned_files/A4873a/A4873a_hippo.pdb

>  <distance_score>  (492) 
None

>  <energy_score>  (492) 
None

>  <compound>  (492) 
DFGLJBPMZPVSMK-UHFFFAOYSA-N

>  <compound_id>  (492) 
299

>  <target>  (492) 
A71EV2A

>  <tags>  (492) 
['GOOD count', 'MEDIOCRE count', '[Other] S1 site', 'hits', '[Other] S2 site', '[Other] upload_6_2025-02-13', '[Other] P3 compound design', '[Other] upload_1 2025-02-12', 'Main status', '[Series] Piperidine series', 'BAD count']

>  <inspirations>  (492) 
None

>  <subsites>  (492) 
None

>  <reference>  (492) 


>  <observation_longname>  (492) 
A71EV2A-x4873_A_201_v1

>  <ConformerSites alias>  (492) 
1b - A0911/A/147

>  <CanonSites alias>  (492) 
1 - Active Site

>  <CrystalformSites alias>  (492) 
F7q - A4303/A/201

>  <Quatassemblies alias>  (492) 
A1 - monomer

>  <Crystalforms alias>  (492) 
F7 - A712A_x4207_8.1_refmac1_1st_ref

>  <ConformerSites upload name>  (492) 
1b - A71EV2A-x0911/A/147

>  <CanonSites upload name>  (492) 
1 - A71EV2A-x0911/A/147/1

>  <CrystalformSites upload name>  (492) 
F7q - A71EV2A-x4303/A/201/1

>  <Quatassemblies upload name>  (492) 
A1 - monomer

>  <Crystalforms upload name>  (492) 
F7 - A712A_x4207_8.1_refmac1_1st_ref

>  <ConformerSites short tag>  (492) 
1b - A0911/A/147

>  <CanonSites short tag>  (492) 
1 - A0911/A/147/1

>  <CrystalformSites short tag>  (492) 
F7q - A4303/A/201

>  <Quatassemblies short tag>  (492) 
A1 - monomer

>  <Crystalforms short tag>  (492) 
F7 - A712A_x4207_8.1_refmac1_1st_ref

>  <Centroid res>  (492) 
A71EV2A-x0911/A/133/A_v1

>  <Experiment code>  (492) 
A71EV2A-x4873

>  <Pose>  (492) 
A4873a

$$$$
A4873b
     RDKit          3D

 21 22  0  0  0  0  0  0  0  0999 V2000
    7.1170   13.5430   26.2600 Cl  0  0  0  0  0  0  0  0  0  0  0  0
    7.6260   11.9890   25.7360 C   0  0  0  0  0  0  0  0  0  0  0  0
    6.9600   10.8400   26.1830 C   0  0  0  0  0  0  0  0  0  0  0  0
    5.9360   11.0590   27.0610 O   0  0  0  0  0  0  0  0  0  0  0  0
    5.0340    9.9770   27.3200 C   0  0  0  0  0  0  0  0  0  0  0  0
    8.7020   11.8800   24.8550 C   0  0  0  0  0  0  0  0  0  0  0  0
    9.0850   10.6210   24.4000 C   0  0  0  0  0  0  0  0  0  0  0  0
    8.4120    9.4900   24.8370 C   0  0  0  0  0  0  0  0  0  0  0  0
    7.3580    9.5950   25.7280 C   0  0  0  0  0  0  0  0  0  0  0  0
    9.3540   13.0650   24.4320 N   0  0  0  0  0  0  0  0  0  0  0  0
    8.9580   13.6950   23.2850 C   0  0  0  0  0  0  0  0  0  0  0  0
    7.9970   13.2970   22.6250 O   0  0  0  0  0  0  0  0  0  0  0  0
    9.6640   14.8120   22.9340 N   0  0  0  0  0  0  0  0  0  0  0  0
    9.5540   15.2920   21.5520 C   0  0  0  0  0  0  0  0  0  0  0  0
   10.8710   15.0560   20.8060 C   0  0  1  0  0  0  0  0  0  0  0  0
   10.7540   15.5680   19.3810 C   0  0  0  0  0  0  0  0  0  0  0  0
   10.3520   16.7180   19.1500 O   0  0  0  0  0  0  0  0  0  0  0  0
   10.9920   14.6680   18.4280 N   0  0  0  0  0  0  0  0  0  0  0  0
   12.0200   15.7450   21.5720 C   0  0  0  0  0  0  0  0  0  0  0  0
   12.0770   15.2470   23.0200 C   0  0  0  0  0  0  0  0  0  0  0  0
   10.7350   15.4510   23.7150 C   0  0  0  0  0  0  0  0  0  0  0  0
  5  4  1  0
  4  3  1  0
  3  9  2  0
  9  8  1  0
  8  7  2  0
  7  6  1  0
 10  6  1  0
 11 10  1  0
 12 11  2  0
 13 11  1  0
 13 21  1  0
 21 20  1  0
 20 19  1  0
 19 15  1  0
 15 16  1  6
 18 16  1  0
 17 16  2  0
 15 14  1  0
 14 13  1  0
  6  2  2  0
  3  2  1  0
  2  1  1  0
M  END
>  <id>  (493) 
493

>  <inchikey>  (493) 
DFGLJBPMZPVSMK-VIFPVBQESA-N

>  <alias>  (493) 
A4873b

>  <smiles>  (493) 
COc1cccc(NC(=O)N2CCC[C@H](C(N)=O)C2)c1Cl

>  <path>  (493) 
/opt/xchem-fragalysis-2/maxwin/BulkDock/TARGETS/A71EV2A/aligned_files/A4873b/A4873b.pdb

>  <distance_score>  (493) 
None

>  <energy_score>  (493) 
None

>  <compound>  (493) 
DFGLJBPMZPVSMK-UHFFFAOYSA-N

>  <compound_id>  (493) 
299

>  <target>  (493) 
A71EV2A

>  <tags>  (493) 
['GOOD count', 'MEDIOCRE count', '[Other] S1 site', 'hits', '[Other] S2 site', '[Other] upload_6_2025-02-13', '[Other] P3 compound design', '[Other] upload_1 2025-02-12', 'Main status', '[Series] Piperidine series', 'BAD count']

>  <inspirations>  (493) 
None

>  <subsites>  (493) 
None

>  <reference>  (493) 


>  <observation_longname>  (493) 
A71EV2A-x4873_C_201_v1

>  <ConformerSites alias>  (493) 
1b - A0911/A/147

>  <CanonSites alias>  (493) 
1 - Active Site

>  <CrystalformSites alias>  (493) 
F7r - A4303/C/201

>  <Quatassemblies alias>  (493) 
A1 - monomer

>  <Crystalforms alias>  (493) 
F7 - A712A_x4207_8.1_refmac1_1st_ref

>  <ConformerSites upload name>  (493) 
1b - A71EV2A-x0911/A/147

>  <CanonSites upload name>  (493) 
1 - A71EV2A-x0911/A/147/1

>  <CrystalformSites upload name>  (493) 
F7r - A71EV2A-x4303/C/201/1

>  <Quatassemblies upload name>  (493) 
A1 - monomer

>  <Crystalforms upload name>  (493) 
F7 - A712A_x4207_8.1_refmac1_1st_ref

>  <ConformerSites short tag>  (493) 
1b - A0911/A/147

>  <CanonSites short tag>  (493) 
1 - A0911/A/147/1

>  <CrystalformSites short tag>  (493) 
F7r - A4303/C/201

>  <Quatassemblies short tag>  (493) 
A1 - monomer

>  <Crystalforms short tag>  (493) 
F7 - A712A_x4207_8.1_refmac1_1st_ref

>  <Centroid res>  (493) 
A71EV2A-x0911/A/133/A_v1

>  <Experiment code>  (493) 
A71EV2A-x4873

>  <Pose>  (493) 
A4873a

$$$$
A4874a
     RDKit          3D

 18 19  0  0  0  0  0  0  0  0999 V2000
   10.1390   16.6150   19.2090 O   0  0  0  0  0  0  0  0  0  0  0  0
   10.4600   15.4570   19.5000 C   0  0  0  0  0  0  0  0  0  0  0  0
   10.7580   14.5340   18.5900 N   0  0  0  0  0  0  0  0  0  0  0  0
   10.3870   14.9630   20.9320 C   0  0  1  0  0  0  0  0  0  0  0  0
   11.4410   15.6180   21.8410 C   0  0  0  0  0  0  0  0  0  0  0  0
   11.3090   15.0740   23.2610 C   0  0  0  0  0  0  0  0  0  0  0  0
    9.8850   15.2650   23.7680 C   0  0  0  0  0  0  0  0  0  0  0  0
    8.9690   15.1720   21.4790 C   0  0  0  0  0  0  0  0  0  0  0  0
    8.9070   14.6510   22.8480 N   0  0  0  0  0  0  0  0  0  0  0  0
    8.0180   13.6870   23.1740 C   0  0  0  0  0  0  0  0  0  0  0  0
    7.2240   13.2500   22.3560 O   0  0  0  0  0  0  0  0  0  0  0  0
    8.0540   13.1390   24.5870 C   0  0  1  0  0  0  0  0  0  0  0  0
    6.6940   13.3440   25.2610 C   0  0  0  0  0  0  0  0  0  0  0  0
    8.3780   11.6840   24.3730 C   0  0  0  0  0  0  0  0  0  0  0  0
    7.6560   10.6730   24.8820 N   0  0  0  0  0  0  0  0  0  0  0  0
    8.1870    9.4670   24.5340 N   0  0  0  0  0  0  0  0  0  0  0  0
    9.2620    9.7470   23.8090 C   0  0  0  0  0  0  0  0  0  0  0  0
    9.4310   11.1260   23.6880 C   0  0  0  0  0  0  0  0  0  0  0  0
 12 13  1  6
 12 10  1  0
 11 10  2  0
 10  9  1  0
  9  7  1  0
  7  6  1  0
  6  5  1  0
  5  4  1  0
  4  2  1  6
  3  2  1  0
  2  1  2  0
  8  4  1  0
  9  8  1  0
 14 12  1  0
 14 18  2  0
 18 17  1  0
 17 16  2  0
 16 15  1  0
 15 14  1  0
M  END
>  <id>  (494) 
494

>  <inchikey>  (494) 
RXLSVIOBXFEABB-IUCAKERBSA-N

>  <alias>  (494) 
A4874a

>  <smiles>  (494) 
C[C@H](C(=O)N1CCC[C@H](C(N)=O)C1)c1ccn[nH]1

>  <path>  (494) 
/opt/xchem-fragalysis-2/maxwin/BulkDock/TARGETS/A71EV2A/aligned_files/A4874a/A4874a_hippo.pdb

>  <distance_score>  (494) 
None

>  <energy_score>  (494) 
None

>  <compound>  (494) 
RXLSVIOBXFEABB-UHFFFAOYSA-N

>  <compound_id>  (494) 
371

>  <target>  (494) 
A71EV2A

>  <tags>  (494) 
['GOOD count', 'MEDIOCRE count', '[Other] S1 site', 'hits', '[Other] S2 site', '[Other] P3 compound design', '[Other] upload_1 2025-02-12', 'Main status', '[Series] Piperidine series', 'BAD count']

>  <inspirations>  (494) 
None

>  <subsites>  (494) 
None

>  <reference>  (494) 


>  <observation_longname>  (494) 
A71EV2A-x4874_A_201_v1

>  <ConformerSites alias>  (494) 
1b - A0911/A/147

>  <CanonSites alias>  (494) 
1 - Active Site

>  <CrystalformSites alias>  (494) 
F7q - A4303/A/201

>  <Quatassemblies alias>  (494) 
A1 - monomer

>  <Crystalforms alias>  (494) 
F7 - A712A_x4207_8.1_refmac1_1st_ref

>  <ConformerSites upload name>  (494) 
1b - A71EV2A-x0911/A/147

>  <CanonSites upload name>  (494) 
1 - A71EV2A-x0911/A/147/1

>  <CrystalformSites upload name>  (494) 
F7q - A71EV2A-x4303/A/201/1

>  <Quatassemblies upload name>  (494) 
A1 - monomer

>  <Crystalforms upload name>  (494) 
F7 - A712A_x4207_8.1_refmac1_1st_ref

>  <ConformerSites short tag>  (494) 
1b - A0911/A/147

>  <CanonSites short tag>  (494) 
1 - A0911/A/147/1

>  <CrystalformSites short tag>  (494) 
F7q - A4303/A/201

>  <Quatassemblies short tag>  (494) 
A1 - monomer

>  <Crystalforms short tag>  (494) 
F7 - A712A_x4207_8.1_refmac1_1st_ref

>  <Centroid res>  (494) 
A71EV2A-x0911/A/133/A_v1

>  <Experiment code>  (494) 
A71EV2A-x4874

>  <Pose>  (494) 
A4874a

$$$$
A4874b
     RDKit          3D

 18 19  0  0  0  0  0  0  0  0999 V2000
   10.3180   16.6630   19.2080 O   0  0  0  0  0  0  0  0  0  0  0  0
   10.6620   15.5020   19.4810 C   0  0  0  0  0  0  0  0  0  0  0  0
   10.9110   14.5730   18.5500 N   0  0  0  0  0  0  0  0  0  0  0  0
   10.6500   15.0060   20.9160 C   0  0  1  0  0  0  0  0  0  0  0  0
   11.7020   15.7230   21.7900 C   0  0  0  0  0  0  0  0  0  0  0  0
   11.6340   15.1960   23.2250 C   0  0  0  0  0  0  0  0  0  0  0  0
   10.2180   15.3400   23.7790 C   0  0  0  0  0  0  0  0  0  0  0  0
    9.2600   15.2100   21.5270 C   0  0  0  0  0  0  0  0  0  0  0  0
    9.2430   14.6810   22.8920 N   0  0  0  0  0  0  0  0  0  0  0  0
    8.3630   13.7170   23.2480 C   0  0  0  0  0  0  0  0  0  0  0  0
    7.5270   13.2870   22.4700 O   0  0  0  0  0  0  0  0  0  0  0  0
    8.4600   13.1560   24.6540 C   0  0  1  0  0  0  0  0  0  0  0  0
    7.1350   13.3930   25.3890 C   0  0  0  0  0  0  0  0  0  0  0  0
    8.7130   11.6970   24.3920 C   0  0  0  0  0  0  0  0  0  0  0  0
    7.9660   10.7110   24.8990 N   0  0  0  0  0  0  0  0  0  0  0  0
    8.4290    9.4920   24.5260 N   0  0  0  0  0  0  0  0  0  0  0  0
    9.4980    9.7350   23.7800 C   0  0  0  0  0  0  0  0  0  0  0  0
    9.7160   11.1090   23.6640 C   0  0  0  0  0  0  0  0  0  0  0  0
 12 13  1  6
 12 10  1  0
 11 10  2  0
 10  9  1  0
  9  7  1  0
  7  6  1  0
  6  5  1  0
  5  4  1  0
  4  2  1  6
  3  2  1  0
  2  1  2  0
  8  4  1  0
  9  8  1  0
 14 12  1  0
 14 18  2  0
 18 17  1  0
 17 16  2  0
 16 15  1  0
 15 14  1  0
M  END
>  <id>  (495) 
495

>  <inchikey>  (495) 
RXLSVIOBXFEABB-IUCAKERBSA-N

>  <alias>  (495) 
A4874b

>  <smiles>  (495) 
C[C@H](C(=O)N1CCC[C@H](C(N)=O)C1)c1ccn[nH]1

>  <path>  (495) 
/opt/xchem-fragalysis-2/maxwin/BulkDock/TARGETS/A71EV2A/aligned_files/A4874b/A4874b_hippo.pdb

>  <distance_score>  (495) 
None

>  <energy_score>  (495) 
None

>  <compound>  (495) 
RXLSVIOBXFEABB-UHFFFAOYSA-N

>  <compound_id>  (495) 
371

>  <target>  (495) 
A71EV2A

>  <tags>  (495) 
['GOOD count', 'MEDIOCRE count', '[Other] S1 site', 'hits', '[Other] S2 site', '[Other] P3 compound design', '[Other] upload_1 2025-02-12', 'Main status', '[Series] Piperidine series', 'BAD count']

>  <inspirations>  (495) 
None

>  <subsites>  (495) 
None

>  <reference>  (495) 


>  <observation_longname>  (495) 
A71EV2A-x4874_C_201_v1

>  <ConformerSites alias>  (495) 
1b - A0911/A/147

>  <CanonSites alias>  (495) 
1 - Active Site

>  <CrystalformSites alias>  (495) 
F7r - A4303/C/201

>  <Quatassemblies alias>  (495) 
A1 - monomer

>  <Crystalforms alias>  (495) 
F7 - A712A_x4207_8.1_refmac1_1st_ref

>  <ConformerSites upload name>  (495) 
1b - A71EV2A-x0911/A/147

>  <CanonSites upload name>  (495) 
1 - A71EV2A-x0911/A/147/1

>  <CrystalformSites upload name>  (495) 
F7r - A71EV2A-x4303/C/201/1

>  <Quatassemblies upload name>  (495) 
A1 - monomer

>  <Crystalforms upload name>  (495) 
F7 - A712A_x4207_8.1_refmac1_1st_ref

>  <ConformerSites short tag>  (495) 
1b - A0911/A/147

>  <CanonSites short tag>  (495) 
1 - A0911/A/147/1

>  <CrystalformSites short tag>  (495) 
F7r - A4303/C/201

>  <Quatassemblies short tag>  (495) 
A1 - monomer

>  <Crystalforms short tag>  (495) 
F7 - A712A_x4207_8.1_refmac1_1st_ref

>  <Centroid res>  (495) 
A71EV2A-x0911/A/133/A_v1

>  <Experiment code>  (495) 
A71EV2A-x4874

>  <Pose>  (495) 
A4874a

$$$$
A4877a
     RDKit          3D

 20 22  0  0  0  0  0  0  0  0999 V2000
    7.6690   13.3590   22.4370 O   0  0  0  0  0  0  0  0  0  0  0  0
    8.5170   13.8100   23.1810 C   0  0  0  0  0  0  0  0  0  0  0  0
    9.3080   14.8330   22.8130 N   0  0  0  0  0  0  0  0  0  0  0  0
   10.3440   15.4570   23.6610 C   0  0  0  0  0  0  0  0  0  0  0  0
   11.7220   15.2720   23.0720 C   0  0  0  0  0  0  0  0  0  0  0  0
   11.7450   15.7720   21.6270 C   0  0  0  0  0  0  0  0  0  0  0  0
    9.2820   15.3270   21.4330 C   0  0  0  0  0  0  0  0  0  0  0  0
   10.6500   15.0690   20.8070 C   0  0  1  0  0  0  0  0  0  0  0  0
   10.6320   15.5690   19.3750 C   0  0  0  0  0  0  0  0  0  0  0  0
   10.3270   16.7360   19.1100 O   0  0  0  0  0  0  0  0  0  0  0  0
   10.9470   14.6860   18.4340 N   0  0  0  0  0  0  0  0  0  0  0  0
    8.6890   13.2930   24.6020 C   0  0  2  0  0  0  0  0  0  0  0  0
    8.3030   11.8550   24.5960 C   0  0  0  0  0  0  0  0  0  0  0  0
    9.1140   10.8980   23.8840 C   0  0  0  0  0  0  0  0  0  0  0  0
    8.6750    9.6800   24.0400 C   0  0  0  0  0  0  0  0  0  0  0  0
    7.2800    9.5980   25.0090 S   0  0  0  0  0  0  0  0  0  0  0  0
    7.2730   11.2710   25.2440 C   0  0  0  0  0  0  0  0  0  0  0  0
    6.2330   11.9860   26.0650 C   0  0  0  0  0  0  0  0  0  0  0  0
    6.1010   13.4200   25.5870 C   0  0  0  0  0  0  0  0  0  0  0  0
    7.6670   14.3110   25.7230 S   0  0  0  0  0  0  0  0  0  0  0  0
 11  9  1  0
 10  9  2  0
  8  9  1  6
  8  6  1  0
  6  5  1  0
  5  4  1  0
  4  3  1  0
  3  2  1  0
  2  1  2  0
 12  2  1  6
 12 20  1  0
 20 19  1  0
 19 18  1  0
 18 17  1  0
 17 16  1  0
 16 15  1  0
 15 14  2  0
 14 13  1  0
 17 13  2  0
 13 12  1  0
  7  3  1  0
  8  7  1  0
M  END
>  <id>  (496) 
496

>  <inchikey>  (496) 
JGVWWHNRUSJGFG-CABZTGNLSA-N

>  <alias>  (496) 
A4877a

>  <smiles>  (496) 
NC(=O)[C@H]1CCCN(C(=O)[C@H]2SCCc3sccc32)C1

>  <path>  (496) 
/opt/xchem-fragalysis-2/maxwin/BulkDock/TARGETS/A71EV2A/aligned_files/A4877a/A4877a_hippo.pdb

>  <distance_score>  (496) 
None

>  <energy_score>  (496) 
None

>  <compound>  (496) 
JGVWWHNRUSJGFG-UHFFFAOYSA-N

>  <compound_id>  (496) 
372

>  <target>  (496) 
A71EV2A

>  <tags>  (496) 
['GOOD count', 'MEDIOCRE count', '[Other] S1 site', 'hits', '[Other] S2 site', '[Other] upload_6_2025-02-13', '[Other] P3 compound design', '[Other] upload_1 2025-02-12', 'Main status', '[Series] Piperidine series', 'BAD count']

>  <inspirations>  (496) 
None

>  <subsites>  (496) 
None

>  <reference>  (496) 


>  <observation_longname>  (496) 
A71EV2A-x4877_A_201_v1

>  <ConformerSites alias>  (496) 
1b - A0911/A/147

>  <CanonSites alias>  (496) 
1 - Active Site

>  <CrystalformSites alias>  (496) 
F7q - A4303/A/201

>  <Quatassemblies alias>  (496) 
A1 - monomer

>  <Crystalforms alias>  (496) 
F7 - A712A_x4207_8.1_refmac1_1st_ref

>  <ConformerSites upload name>  (496) 
1b - A71EV2A-x0911/A/147

>  <CanonSites upload name>  (496) 
1 - A71EV2A-x0911/A/147/1

>  <CrystalformSites upload name>  (496) 
F7q - A71EV2A-x4303/A/201/1

>  <Quatassemblies upload name>  (496) 
A1 - monomer

>  <Crystalforms upload name>  (496) 
F7 - A712A_x4207_8.1_refmac1_1st_ref

>  <ConformerSites short tag>  (496) 
1b - A0911/A/147

>  <CanonSites short tag>  (496) 
1 - A0911/A/147/1

>  <CrystalformSites short tag>  (496) 
F7q - A4303/A/201

>  <Quatassemblies short tag>  (496) 
A1 - monomer

>  <Crystalforms short tag>  (496) 
F7 - A712A_x4207_8.1_refmac1_1st_ref

>  <Centroid res>  (496) 
A71EV2A-x0911/A/133/A_v1

>  <Experiment code>  (496) 
A71EV2A-x4877

>  <Pose>  (496) 
A4877a

$$$$
A4877b
     RDKit          3D

 20 22  0  0  0  0  0  0  0  0999 V2000
    7.9510   13.3150   22.6250 O   0  0  0  0  0  0  0  0  0  0  0  0
    8.8520   13.7890   23.3050 C   0  0  0  0  0  0  0  0  0  0  0  0
    9.6000   14.8320   22.8950 N   0  0  0  0  0  0  0  0  0  0  0  0
   10.6270   15.5380   23.6790 C   0  0  0  0  0  0  0  0  0  0  0  0
   11.9920   15.3740   23.0330 C   0  0  0  0  0  0  0  0  0  0  0  0
   11.9570   15.8210   21.5630 C   0  0  0  0  0  0  0  0  0  0  0  0
    9.5160   15.2810   21.5020 C   0  0  0  0  0  0  0  0  0  0  0  0
   10.8620   15.0590   20.7980 C   0  0  1  0  0  0  0  0  0  0  0  0
   10.7490   15.5340   19.3630 C   0  0  0  0  0  0  0  0  0  0  0  0
   10.3930   16.6970   19.1000 O   0  0  0  0  0  0  0  0  0  0  0  0
   11.0060   14.6210   18.4340 N   0  0  0  0  0  0  0  0  0  0  0  0
    9.1220   13.2530   24.7100 C   0  0  2  0  0  0  0  0  0  0  0  0
    8.7910   11.7920   24.6830 C   0  0  0  0  0  0  0  0  0  0  0  0
    9.5530   10.8760   23.8890 C   0  0  0  0  0  0  0  0  0  0  0  0
    9.1630    9.6150   24.0540 C   0  0  0  0  0  0  0  0  0  0  0  0
    7.9100    9.4560   25.1130 S   0  0  0  0  0  0  0  0  0  0  0  0
    7.8460   11.1460   25.3960 C   0  0  0  0  0  0  0  0  0  0  0  0
    6.8820   11.7950   26.3480 C   0  0  0  0  0  0  0  0  0  0  0  0
    6.6560   13.2330   25.9180 C   0  0  0  0  0  0  0  0  0  0  0  0
    8.1830   14.2010   25.9620 S   0  0  0  0  0  0  0  0  0  0  0  0
 11  9  1  0
 10  9  2  0
  8  9  1  6
  8  6  1  0
  6  5  1  0
  5  4  1  0
  4  3  1  0
  3  2  1  0
  2  1  2  0
 12  2  1  6
 12 20  1  0
 20 19  1  0
 19 18  1  0
 18 17  1  0
 17 16  1  0
 16 15  1  0
 15 14  2  0
 14 13  1  0
 17 13  2  0
 13 12  1  0
  7  3  1  0
  8  7  1  0
M  END
>  <id>  (497) 
497

>  <inchikey>  (497) 
JGVWWHNRUSJGFG-CABZTGNLSA-N

>  <alias>  (497) 
A4877b

>  <smiles>  (497) 
NC(=O)[C@H]1CCCN(C(=O)[C@H]2SCCc3sccc32)C1

>  <path>  (497) 
/opt/xchem-fragalysis-2/maxwin/BulkDock/TARGETS/A71EV2A/aligned_files/A4877b/A4877b_hippo.pdb

>  <distance_score>  (497) 
None

>  <energy_score>  (497) 
None

>  <compound>  (497) 
JGVWWHNRUSJGFG-UHFFFAOYSA-N

>  <compound_id>  (497) 
372

>  <target>  (497) 
A71EV2A

>  <tags>  (497) 
['GOOD count', 'MEDIOCRE count', '[Other] S1 site', 'hits', '[Other] S2 site', '[Other] upload_6_2025-02-13', '[Other] P3 compound design', '[Other] upload_1 2025-02-12', 'Main status', '[Series] Piperidine series', 'BAD count']

>  <inspirations>  (497) 
None

>  <subsites>  (497) 
None

>  <reference>  (497) 


>  <observation_longname>  (497) 
A71EV2A-x4877_C_201_v1

>  <ConformerSites alias>  (497) 
1b - A0911/A/147

>  <CanonSites alias>  (497) 
1 - Active Site

>  <CrystalformSites alias>  (497) 
F7r - A4303/C/201

>  <Quatassemblies alias>  (497) 
A1 - monomer

>  <Crystalforms alias>  (497) 
F7 - A712A_x4207_8.1_refmac1_1st_ref

>  <ConformerSites upload name>  (497) 
1b - A71EV2A-x0911/A/147

>  <CanonSites upload name>  (497) 
1 - A71EV2A-x0911/A/147/1

>  <CrystalformSites upload name>  (497) 
F7r - A71EV2A-x4303/C/201/1

>  <Quatassemblies upload name>  (497) 
A1 - monomer

>  <Crystalforms upload name>  (497) 
F7 - A712A_x4207_8.1_refmac1_1st_ref

>  <ConformerSites short tag>  (497) 
1b - A0911/A/147

>  <CanonSites short tag>  (497) 
1 - A0911/A/147/1

>  <CrystalformSites short tag>  (497) 
F7r - A4303/C/201

>  <Quatassemblies short tag>  (497) 
A1 - monomer

>  <Crystalforms short tag>  (497) 
F7 - A712A_x4207_8.1_refmac1_1st_ref

>  <Centroid res>  (497) 
A71EV2A-x0911/A/133/A_v1

>  <Experiment code>  (497) 
A71EV2A-x4877

>  <Pose>  (497) 
A4877a

$$$$
A4880a
     RDKit          3D

 20 22  0  0  0  0  0  0  0  0999 V2000
   11.3390   14.9310   24.9740 O   0  0  0  0  0  0  0  0  0  0  0  0
   11.2250   15.0180   23.7590 C   0  0  0  0  0  0  0  0  0  0  0  0
   12.4580   15.1430   22.8960 C   0  0  0  0  0  0  0  0  0  0  0  0
   12.1890   15.7630   21.5300 C   0  0  0  0  0  0  0  0  0  0  0  0
   10.0120   15.0170   23.1440 N   0  0  0  0  0  0  0  0  0  0  0  0
    9.7610   15.2460   21.7130 C   0  0  0  0  0  0  0  0  0  0  0  0
   11.0260   15.0080   20.8840 C   0  0  1  0  0  0  0  0  0  0  0  0
   10.8220   15.4580   19.4480 C   0  0  0  0  0  0  0  0  0  0  0  0
   10.4380   16.6010   19.1860 O   0  0  0  0  0  0  0  0  0  0  0  0
   11.0900   14.5600   18.5110 N   0  0  0  0  0  0  0  0  0  0  0  0
    8.7960   14.8250   23.9530 C   0  0  0  0  0  0  0  0  0  0  0  0
    8.4090   13.3770   24.1620 C   0  0  0  0  0  0  0  0  0  0  0  0
    7.3030   13.0570   24.9460 C   0  0  0  0  0  0  0  0  0  0  0  0
    6.9110   11.7330   25.1320 C   0  0  0  0  0  0  0  0  0  0  0  0
    7.6460   10.7220   24.4880 C   0  0  0  0  0  0  0  0  0  0  0  0
    8.7710   11.0100   23.7210 C   0  0  0  0  0  0  0  0  0  0  0  0
    9.1420   12.3420   23.5770 C   0  0  0  0  0  0  0  0  0  0  0  0
    5.8410   11.0780   25.8370 C   0  0  0  0  0  0  0  0  0  0  0  0
    5.9530    9.7520   25.5810 C   0  0  0  0  0  0  0  0  0  0  0  0
    7.0370    9.5220   24.7690 N   0  0  0  0  0  0  0  0  0  0  0  0
 10  8  1  0
  9  8  2  0
  7  8  1  6
  7  4  1  0
  4  3  1  0
  3  2  1  0
  2  1  2  0
  5  2  1  0
 11  5  1  0
 12 11  1  0
 12 17  2  0
 17 16  1  0
 16 15  2  0
 15 20  1  0
 20 19  1  0
 19 18  2  0
 18 14  1  0
 15 14  1  0
 14 13  2  0
 13 12  1  0
  6  5  1  0
  7  6  1  0
M  END
>  <id>  (498) 
498

>  <inchikey>  (498) 
RHJKYYVBPJDBPQ-LBPRGKRZSA-N

>  <alias>  (498) 
A4880a

>  <smiles>  (498) 
NC(=O)[C@H]1CCC(=O)N(Cc2ccc3[nH]ccc3c2)C1

>  <path>  (498) 
/opt/xchem-fragalysis-2/maxwin/BulkDock/TARGETS/A71EV2A/aligned_files/A4880a/A4880a_hippo.pdb

>  <distance_score>  (498) 
None

>  <energy_score>  (498) 
None

>  <compound>  (498) 
RHJKYYVBPJDBPQ-UHFFFAOYSA-N

>  <compound_id>  (498) 
373

>  <target>  (498) 
A71EV2A

>  <tags>  (498) 
['GOOD count', 'MEDIOCRE count', '[Other] S1 site', 'hits', '[Other] S2 site', '[Other] upload_6_2025-02-13', '[Other] P3 compound design', '[Other] upload_1 2025-02-12', 'Main status', '[Series] Piperidine series', 'BAD count']

>  <inspirations>  (498) 
None

>  <subsites>  (498) 
None

>  <reference>  (498) 


>  <observation_longname>  (498) 
A71EV2A-x4880_A_201_v1

>  <ConformerSites alias>  (498) 
1b - A0911/A/147

>  <CanonSites alias>  (498) 
1 - Active Site

>  <CrystalformSites alias>  (498) 
F6o - A4214/A/201

>  <Quatassemblies alias>  (498) 
A1 - monomer

>  <Crystalforms alias>  (498) 
F6 - short_long_x4018

>  <ConformerSites upload name>  (498) 
1b - A71EV2A-x0911/A/147

>  <CanonSites upload name>  (498) 
1 - A71EV2A-x0911/A/147/1

>  <CrystalformSites upload name>  (498) 
F6o - A71EV2A-x4214/A/201/1

>  <Quatassemblies upload name>  (498) 
A1 - monomer

>  <Crystalforms upload name>  (498) 
F6 - short_long_x4018

>  <ConformerSites short tag>  (498) 
1b - A0911/A/147

>  <CanonSites short tag>  (498) 
1 - A0911/A/147/1

>  <CrystalformSites short tag>  (498) 
F6o - A4214/A/201

>  <Quatassemblies short tag>  (498) 
A1 - monomer

>  <Crystalforms short tag>  (498) 
F6 - short_long_x4018

>  <Centroid res>  (498) 
A71EV2A-x0911/A/133/A_v1

>  <Experiment code>  (498) 
A71EV2A-x4880

>  <Pose>  (498) 
A4880a

$$$$
A4880b
     RDKit          3D

 20 22  0  0  0  0  0  0  0  0999 V2000
   11.5440   14.9030   24.9960 O   0  0  0  0  0  0  0  0  0  0  0  0
   11.4000   15.0780   23.7990 C   0  0  0  0  0  0  0  0  0  0  0  0
   12.6010   15.3960   22.9550 C   0  0  0  0  0  0  0  0  0  0  0  0
   12.2840   15.8800   21.5530 C   0  0  0  0  0  0  0  0  0  0  0  0
   10.1990   15.0030   23.2050 N   0  0  0  0  0  0  0  0  0  0  0  0
    9.9400   15.2450   21.7860 C   0  0  0  0  0  0  0  0  0  0  0  0
   11.1910   15.0140   20.9360 C   0  0  1  0  0  0  0  0  0  0  0  0
   10.8780   15.4790   19.5240 C   0  0  0  0  0  0  0  0  0  0  0  0
   10.4440   16.6110   19.3170 O   0  0  0  0  0  0  0  0  0  0  0  0
   11.0960   14.6070   18.5650 N   0  0  0  0  0  0  0  0  0  0  0  0
    9.0140   14.7160   24.0280 C   0  0  0  0  0  0  0  0  0  0  0  0
    8.7370   13.2450   24.2350 C   0  0  0  0  0  0  0  0  0  0  0  0
    7.6330   12.8280   24.9750 C   0  0  0  0  0  0  0  0  0  0  0  0
    7.3060   11.4790   25.0780 C   0  0  0  0  0  0  0  0  0  0  0  0
    8.1160   10.5440   24.4160 C   0  0  0  0  0  0  0  0  0  0  0  0
    9.2290   10.9320   23.6890 C   0  0  0  0  0  0  0  0  0  0  0  0
    9.5310   12.2840   23.6180 C   0  0  0  0  0  0  0  0  0  0  0  0
    6.2680   10.7330   25.7270 C   0  0  0  0  0  0  0  0  0  0  0  0
    6.4770    9.4260   25.4350 C   0  0  0  0  0  0  0  0  0  0  0  0
    7.5880    9.2980   24.6420 N   0  0  0  0  0  0  0  0  0  0  0  0
 10  8  1  0
  9  8  2  0
  7  8  1  6
  7  4  1  0
  4  3  1  0
  3  2  1  0
  2  1  2  0
  5  2  1  0
 11  5  1  0
 12 11  1  0
 12 17  2  0
 17 16  1  0
 16 15  2  0
 15 20  1  0
 20 19  1  0
 19 18  2  0
 18 14  1  0
 15 14  1  0
 14 13  2  0
 13 12  1  0
  6  5  1  0
  7  6  1  0
M  END
>  <id>  (499) 
499

>  <inchikey>  (499) 
RHJKYYVBPJDBPQ-LBPRGKRZSA-N

>  <alias>  (499) 
A4880b

>  <smiles>  (499) 
NC(=O)[C@H]1CCC(=O)N(Cc2ccc3[nH]ccc3c2)C1

>  <path>  (499) 
/opt/xchem-fragalysis-2/maxwin/BulkDock/TARGETS/A71EV2A/aligned_files/A4880b/A4880b.pdb

>  <distance_score>  (499) 
None

>  <energy_score>  (499) 
None

>  <compound>  (499) 
RHJKYYVBPJDBPQ-UHFFFAOYSA-N

>  <compound_id>  (499) 
373

>  <target>  (499) 
A71EV2A

>  <tags>  (499) 
['GOOD count', 'MEDIOCRE count', '[Other] S1 site', 'hits', '[Other] S2 site', '[Other] upload_6_2025-02-13', '[Other] P3 compound design', '[Other] upload_1 2025-02-12', 'Main status', '[Series] Piperidine series', 'BAD count']

>  <inspirations>  (499) 
None

>  <subsites>  (499) 
None

>  <reference>  (499) 


>  <observation_longname>  (499) 
A71EV2A-x4880_C_201_v1

>  <ConformerSites alias>  (499) 
1b - A0911/A/147

>  <CanonSites alias>  (499) 
1 - Active Site

>  <CrystalformSites alias>  (499) 
F6p - A4214/C/201

>  <Quatassemblies alias>  (499) 
A1 - monomer

>  <Crystalforms alias>  (499) 
F6 - short_long_x4018

>  <ConformerSites upload name>  (499) 
1b - A71EV2A-x0911/A/147

>  <CanonSites upload name>  (499) 
1 - A71EV2A-x0911/A/147/1

>  <CrystalformSites upload name>  (499) 
F6p - A71EV2A-x4214/C/201/1

>  <Quatassemblies upload name>  (499) 
A1 - monomer

>  <Crystalforms upload name>  (499) 
F6 - short_long_x4018

>  <ConformerSites short tag>  (499) 
1b - A0911/A/147

>  <CanonSites short tag>  (499) 
1 - A0911/A/147/1

>  <CrystalformSites short tag>  (499) 
F6p - A4214/C/201

>  <Quatassemblies short tag>  (499) 
A1 - monomer

>  <Crystalforms short tag>  (499) 
F6 - short_long_x4018

>  <Centroid res>  (499) 
A71EV2A-x0911/A/133/A_v1

>  <Experiment code>  (499) 
A71EV2A-x4880

>  <Pose>  (499) 
A4880a

$$$$
A4882a
     RDKit          3D

 21 22  0  0  0  0  0  0  0  0999 V2000
    9.5060   10.1240   23.7720 Br  0  0  0  0  0  0  0  0  0  0  0  0
    8.0540   10.7870   24.8090 C   0  0  0  0  0  0  0  0  0  0  0  0
    7.1100    9.8770   25.2380 C   0  0  0  0  0  0  0  0  0  0  0  0
    6.0620   10.3380   25.9950 C   0  0  0  0  0  0  0  0  0  0  0  0
    5.0840    9.4910   26.3970 F   0  0  0  0  0  0  0  0  0  0  0  0
    5.9640   11.6570   26.3290 C   0  0  0  0  0  0  0  0  0  0  0  0
    4.9000   12.0690   27.0550 F   0  0  0  0  0  0  0  0  0  0  0  0
    6.9010   12.5630   25.9070 C   0  0  0  0  0  0  0  0  0  0  0  0
    7.9740   12.1390   25.1220 C   0  0  0  0  0  0  0  0  0  0  0  0
    9.0120   13.1500   24.7030 C   0  0  0  0  0  0  0  0  0  0  0  0
    8.7360   13.7400   23.3320 C   0  0  0  0  0  0  0  0  0  0  0  0
    7.8300   13.3370   22.6300 O   0  0  0  0  0  0  0  0  0  0  0  0
    9.5850   14.7080   22.9230 N   0  0  0  0  0  0  0  0  0  0  0  0
   10.6740   15.2700   23.7390 C   0  0  0  0  0  0  0  0  0  0  0  0
   12.0130   15.1090   23.0410 C   0  0  0  0  0  0  0  0  0  0  0  0
   11.9480   15.6760   21.6190 C   0  0  0  0  0  0  0  0  0  0  0  0
    9.4930   15.2330   21.5580 C   0  0  0  0  0  0  0  0  0  0  0  0
   10.8170   14.9940   20.8260 C   0  0  1  0  0  0  0  0  0  0  0  0
   10.7160   15.5310   19.4090 C   0  0  0  0  0  0  0  0  0  0  0  0
   10.3610   16.6930   19.1920 O   0  0  0  0  0  0  0  0  0  0  0  0
   10.9620   14.6560   18.4440 N   0  0  0  0  0  0  0  0  0  0  0  0
 21 19  1  0
 20 19  2  0
 18 19  1  6
 18 16  1  0
 16 15  1  0
 15 14  1  0
 14 13  1  0
 13 11  1  0
 12 11  2  0
 11 10  1  0
 10  9  1  0
  9  8  2  0
  8  6  1  0
  7  6  1  0
  6  4  2  0
  5  4  1  0
  4  3  1  0
  3  2  2  0
  9  2  1  0
  2  1  1  0
 17 13  1  0
 18 17  1  0
M  END
>  <id>  (500) 
500

>  <inchikey>  (500) 
YKAJVIMAQQDNPC-QMMMGPOBSA-N

>  <alias>  (500) 
A4882a

>  <smiles>  (500) 
NC(=O)[C@H]1CCCN(C(=O)Cc2cc(F)c(F)cc2Br)C1

>  <path>  (500) 
/opt/xchem-fragalysis-2/maxwin/BulkDock/TARGETS/A71EV2A/aligned_files/A4882a/A4882a_hippo.pdb

>  <distance_score>  (500) 
None

>  <energy_score>  (500) 
None

>  <compound>  (500) 
YKAJVIMAQQDNPC-UHFFFAOYSA-N

>  <compound_id>  (500) 
374

>  <target>  (500) 
A71EV2A

>  <tags>  (500) 
['GOOD count', 'MEDIOCRE count', '[Other] S1 site', 'hits', '[Other] S2 site', '[Other] P3 compound design', '[Other] upload_1 2025-02-12', 'Main status', '[Series] Piperidine series', 'BAD count']

>  <inspirations>  (500) 
None

>  <subsites>  (500) 
None

>  <reference>  (500) 


>  <observation_longname>  (500) 
A71EV2A-x4882_A_201_v1

>  <ConformerSites alias>  (500) 
1b - A0911/A/147

>  <CanonSites alias>  (500) 
1 - Active Site

>  <CrystalformSites alias>  (500) 
F7q - A4303/A/201

>  <Quatassemblies alias>  (500) 
A1 - monomer

>  <Crystalforms alias>  (500) 
F7 - A712A_x4207_8.1_refmac1_1st_ref

>  <ConformerSites upload name>  (500) 
1b - A71EV2A-x0911/A/147

>  <CanonSites upload name>  (500) 
1 - A71EV2A-x0911/A/147/1

>  <CrystalformSites upload name>  (500) 
F7q - A71EV2A-x4303/A/201/1

>  <Quatassemblies upload name>  (500) 
A1 - monomer

>  <Crystalforms upload name>  (500) 
F7 - A712A_x4207_8.1_refmac1_1st_ref

>  <ConformerSites short tag>  (500) 
1b - A0911/A/147

>  <CanonSites short tag>  (500) 
1 - A0911/A/147/1

>  <CrystalformSites short tag>  (500) 
F7q - A4303/A/201

>  <Quatassemblies short tag>  (500) 
A1 - monomer

>  <Crystalforms short tag>  (500) 
F7 - A712A_x4207_8.1_refmac1_1st_ref

>  <Centroid res>  (500) 
A71EV2A-x0911/A/133/A_v1

>  <Experiment code>  (500) 
A71EV2A-x4882

>  <Pose>  (500) 
A4882a

$$$$
A4882b
     RDKit          3D

 21 22  0  0  0  0  0  0  0  0999 V2000
    9.6660   10.1310   23.7530 Br  0  0  0  0  0  0  0  0  0  0  0  0
    8.2330   10.7740   24.8170 C   0  0  0  0  0  0  0  0  0  0  0  0
    7.3040    9.8460   25.2560 C   0  0  0  0  0  0  0  0  0  0  0  0
    6.2660   10.2840   26.0320 C   0  0  0  0  0  0  0  0  0  0  0  0
    5.2400    9.4510   26.3280 F   0  0  0  0  0  0  0  0  0  0  0  0
    6.1730   11.5820   26.4030 C   0  0  0  0  0  0  0  0  0  0  0  0
    5.0910   11.9740   27.1130 F   0  0  0  0  0  0  0  0  0  0  0  0
    7.1010   12.5080   25.9860 C   0  0  0  0  0  0  0  0  0  0  0  0
    8.1550   12.1220   25.1580 C   0  0  0  0  0  0  0  0  0  0  0  0
    9.1820   13.1560   24.7410 C   0  0  0  0  0  0  0  0  0  0  0  0
    8.8950   13.7380   23.3700 C   0  0  0  0  0  0  0  0  0  0  0  0
    7.9750   13.3140   22.6760 O   0  0  0  0  0  0  0  0  0  0  0  0
    9.7240   14.7260   22.9480 N   0  0  0  0  0  0  0  0  0  0  0  0
   10.7820   15.3710   23.7470 C   0  0  0  0  0  0  0  0  0  0  0  0
   12.1360   15.2370   23.0520 C   0  0  0  0  0  0  0  0  0  0  0  0
   12.0540   15.7570   21.6140 C   0  0  0  0  0  0  0  0  0  0  0  0
    9.6090   15.2310   21.5780 C   0  0  0  0  0  0  0  0  0  0  0  0
   10.9370   15.0210   20.8400 C   0  0  1  0  0  0  0  0  0  0  0  0
   10.7970   15.5510   19.4230 C   0  0  0  0  0  0  0  0  0  0  0  0
   10.4190   16.7150   19.2140 O   0  0  0  0  0  0  0  0  0  0  0  0
   11.0200   14.6670   18.4590 N   0  0  0  0  0  0  0  0  0  0  0  0
 21 19  1  0
 20 19  2  0
 18 19  1  6
 18 16  1  0
 16 15  1  0
 15 14  1  0
 14 13  1  0
 13 11  1  0
 12 11  2  0
 11 10  1  0
 10  9  1  0
  9  8  2  0
  8  6  1  0
  7  6  1  0
  6  4  2  0
  5  4  1  0
  4  3  1  0
  3  2  2  0
  9  2  1  0
  2  1  1  0
 17 13  1  0
 18 17  1  0
M  END
>  <id>  (501) 
501

>  <inchikey>  (501) 
YKAJVIMAQQDNPC-QMMMGPOBSA-N

>  <alias>  (501) 
A4882b

>  <smiles>  (501) 
NC(=O)[C@H]1CCCN(C(=O)Cc2cc(F)c(F)cc2Br)C1

>  <path>  (501) 
/opt/xchem-fragalysis-2/maxwin/BulkDock/TARGETS/A71EV2A/aligned_files/A4882b/A4882b_hippo.pdb

>  <distance_score>  (501) 
None

>  <energy_score>  (501) 
None

>  <compound>  (501) 
YKAJVIMAQQDNPC-UHFFFAOYSA-N

>  <compound_id>  (501) 
374

>  <target>  (501) 
A71EV2A

>  <tags>  (501) 
['GOOD count', 'MEDIOCRE count', '[Other] S1 site', 'hits', '[Other] S2 site', '[Other] P3 compound design', '[Other] upload_1 2025-02-12', 'Main status', '[Series] Piperidine series', 'BAD count']

>  <inspirations>  (501) 
None

>  <subsites>  (501) 
None

>  <reference>  (501) 


>  <observation_longname>  (501) 
A71EV2A-x4882_C_201_v1

>  <ConformerSites alias>  (501) 
1b - A0911/A/147

>  <CanonSites alias>  (501) 
1 - Active Site

>  <CrystalformSites alias>  (501) 
F7r - A4303/C/201

>  <Quatassemblies alias>  (501) 
A1 - monomer

>  <Crystalforms alias>  (501) 
F7 - A712A_x4207_8.1_refmac1_1st_ref

>  <ConformerSites upload name>  (501) 
1b - A71EV2A-x0911/A/147

>  <CanonSites upload name>  (501) 
1 - A71EV2A-x0911/A/147/1

>  <CrystalformSites upload name>  (501) 
F7r - A71EV2A-x4303/C/201/1

>  <Quatassemblies upload name>  (501) 
A1 - monomer

>  <Crystalforms upload name>  (501) 
F7 - A712A_x4207_8.1_refmac1_1st_ref

>  <ConformerSites short tag>  (501) 
1b - A0911/A/147

>  <CanonSites short tag>  (501) 
1 - A0911/A/147/1

>  <CrystalformSites short tag>  (501) 
F7r - A4303/C/201

>  <Quatassemblies short tag>  (501) 
A1 - monomer

>  <Crystalforms short tag>  (501) 
F7 - A712A_x4207_8.1_refmac1_1st_ref

>  <Centroid res>  (501) 
A71EV2A-x0911/A/133/A_v1

>  <Experiment code>  (501) 
A71EV2A-x4882

>  <Pose>  (501) 
A4882a

$$$$
A4883a
     RDKit          3D

 20 21  0  0  0  0  0  0  0  0999 V2000
   10.2620   16.5860   19.2750 O   0  0  0  0  0  0  0  0  0  0  0  0
   10.6190   15.4250   19.5050 C   0  0  0  0  0  0  0  0  0  0  0  0
   10.9730   14.5670   18.5510 N   0  0  0  0  0  0  0  0  0  0  0  0
   10.6290   14.8730   20.9210 C   0  0  1  0  0  0  0  0  0  0  0  0
   11.7820   15.4520   21.7560 C   0  0  0  0  0  0  0  0  0  0  0  0
   11.7940   14.8390   23.1600 C   0  0  0  0  0  0  0  0  0  0  0  0
   10.4460   15.0390   23.8470 C   0  0  0  0  0  0  0  0  0  0  0  0
    9.3030   15.1590   21.6360 C   0  0  0  0  0  0  0  0  0  0  0  0
    9.3270   14.6000   22.9900 N   0  0  0  0  0  0  0  0  0  0  0  0
    8.4400   13.6150   23.3190 C   0  0  0  0  0  0  0  0  0  0  0  0
    7.6090   13.2050   22.5130 O   0  0  0  0  0  0  0  0  0  0  0  0
    8.5010   13.1600   24.5980 N   0  0  0  0  0  0  0  0  0  0  0  0
    7.7050   12.0870   25.0650 C   0  0  0  0  0  0  0  0  0  0  0  0
    7.9870   10.7820   24.6280 C   0  0  0  0  0  0  0  0  0  0  0  0
    9.3750   10.5450   23.5630 S   0  0  0  0  0  0  0  0  0  0  0  0
    9.3930    8.7480   23.3510 C   0  0  0  0  0  0  0  0  0  0  0  0
    6.6640   12.2760   25.9780 C   0  0  0  0  0  0  0  0  0  0  0  0
    5.9640   11.1610   26.4140 C   0  0  0  0  0  0  0  0  0  0  0  0
    6.3010    9.9180   25.9010 C   0  0  0  0  0  0  0  0  0  0  0  0
    7.2980    9.7130   25.0190 N   0  0  0  0  0  0  0  0  0  0  0  0
 16 15  1  0
 15 14  1  0
 14 20  2  0
 20 19  1  0
 19 18  2  0
 18 17  1  0
 17 13  2  0
 14 13  1  0
 13 12  1  0
 12 10  1  0
 11 10  2  0
 10  9  1  0
  9  7  1  0
  7  6  1  0
  6  5  1  0
  5  4  1  0
  4  2  1  6
  3  2  1  0
  2  1  2  0
  8  4  1  0
  9  8  1  0
M  END
>  <id>  (502) 
502

>  <inchikey>  (502) 
FBDCWTCKYSQXKW-VIFPVBQESA-N

>  <alias>  (502) 
A4883a

>  <smiles>  (502) 
CSc1ncccc1NC(=O)N1CCC[C@H](C(N)=O)C1

>  <path>  (502) 
/opt/xchem-fragalysis-2/maxwin/BulkDock/TARGETS/A71EV2A/aligned_files/A4883a/A4883a_hippo.pdb

>  <distance_score>  (502) 
None

>  <energy_score>  (502) 
None

>  <compound>  (502) 
FBDCWTCKYSQXKW-UHFFFAOYSA-N

>  <compound_id>  (502) 
375

>  <target>  (502) 
A71EV2A

>  <tags>  (502) 
['GOOD count', 'MEDIOCRE count', '[Other] S1 site', 'hits', '[Other] S2 site', '[Other] P3 compound design', '[Other] upload_1 2025-02-12', 'Main status', '[Series] Piperidine series', 'BAD count']

>  <inspirations>  (502) 
None

>  <subsites>  (502) 
None

>  <reference>  (502) 


>  <observation_longname>  (502) 
A71EV2A-x4883_A_201_v1

>  <ConformerSites alias>  (502) 
1b - A0911/A/147

>  <CanonSites alias>  (502) 
1 - Active Site

>  <CrystalformSites alias>  (502) 
F6o - A4214/A/201

>  <Quatassemblies alias>  (502) 
A1 - monomer

>  <Crystalforms alias>  (502) 
F6 - short_long_x4018

>  <ConformerSites upload name>  (502) 
1b - A71EV2A-x0911/A/147

>  <CanonSites upload name>  (502) 
1 - A71EV2A-x0911/A/147/1

>  <CrystalformSites upload name>  (502) 
F6o - A71EV2A-x4214/A/201/1

>  <Quatassemblies upload name>  (502) 
A1 - monomer

>  <Crystalforms upload name>  (502) 
F6 - short_long_x4018

>  <ConformerSites short tag>  (502) 
1b - A0911/A/147

>  <CanonSites short tag>  (502) 
1 - A0911/A/147/1

>  <CrystalformSites short tag>  (502) 
F6o - A4214/A/201

>  <Quatassemblies short tag>  (502) 
A1 - monomer

>  <Crystalforms short tag>  (502) 
F6 - short_long_x4018

>  <Centroid res>  (502) 
A71EV2A-x0911/A/133/A_v1

>  <Experiment code>  (502) 
A71EV2A-x4883

>  <Pose>  (502) 
A4883a

$$$$
A4883b
     RDKit          3D

 20 21  0  0  0  0  0  0  0  0999 V2000
   10.3360   16.6070   19.2800 O   0  0  0  0  0  0  0  0  0  0  0  0
   10.7300   15.4440   19.4970 C   0  0  0  0  0  0  0  0  0  0  0  0
   11.1020   14.5910   18.5380 N   0  0  0  0  0  0  0  0  0  0  0  0
   10.7840   14.8900   20.9090 C   0  0  1  0  0  0  0  0  0  0  0  0
   11.9520   15.5060   21.7050 C   0  0  0  0  0  0  0  0  0  0  0  0
   12.0160   14.9250   23.1150 C   0  0  0  0  0  0  0  0  0  0  0  0
   10.6760   15.1110   23.8390 C   0  0  0  0  0  0  0  0  0  0  0  0
    9.4770   15.1570   21.6660 C   0  0  0  0  0  0  0  0  0  0  0  0
    9.5630   14.5950   23.0170 N   0  0  0  0  0  0  0  0  0  0  0  0
    8.7050   13.5870   23.3690 C   0  0  0  0  0  0  0  0  0  0  0  0
    7.8480   13.1680   22.5970 O   0  0  0  0  0  0  0  0  0  0  0  0
    8.8060   13.1340   24.6480 N   0  0  0  0  0  0  0  0  0  0  0  0
    8.0200   12.0460   25.1240 C   0  0  0  0  0  0  0  0  0  0  0  0
    8.2770   10.7510   24.6490 C   0  0  0  0  0  0  0  0  0  0  0  0
    9.6190   10.5350   23.5340 S   0  0  0  0  0  0  0  0  0  0  0  0
    9.6700    8.7310   23.3230 C   0  0  0  0  0  0  0  0  0  0  0  0
    7.0070   12.2100   26.0650 C   0  0  0  0  0  0  0  0  0  0  0  0
    6.3100   11.0940   26.4950 C   0  0  0  0  0  0  0  0  0  0  0  0
    6.6270    9.8710   25.9640 C   0  0  0  0  0  0  0  0  0  0  0  0
    7.5940    9.6740   25.0510 N   0  0  0  0  0  0  0  0  0  0  0  0
 16 15  1  0
 15 14  1  0
 14 20  2  0
 20 19  1  0
 19 18  2  0
 18 17  1  0
 17 13  2  0
 14 13  1  0
 13 12  1  0
 12 10  1  0
 11 10  2  0
 10  9  1  0
  9  7  1  0
  7  6  1  0
  6  5  1  0
  5  4  1  0
  4  2  1  6
  3  2  1  0
  2  1  2  0
  8  4  1  0
  9  8  1  0
M  END
>  <id>  (503) 
503

>  <inchikey>  (503) 
FBDCWTCKYSQXKW-VIFPVBQESA-N

>  <alias>  (503) 
A4883b

>  <smiles>  (503) 
CSc1ncccc1NC(=O)N1CCC[C@H](C(N)=O)C1

>  <path>  (503) 
/opt/xchem-fragalysis-2/maxwin/BulkDock/TARGETS/A71EV2A/aligned_files/A4883b/A4883b_hippo.pdb

>  <distance_score>  (503) 
None

>  <energy_score>  (503) 
None

>  <compound>  (503) 
FBDCWTCKYSQXKW-UHFFFAOYSA-N

>  <compound_id>  (503) 
375

>  <target>  (503) 
A71EV2A

>  <tags>  (503) 
['GOOD count', 'MEDIOCRE count', '[Other] S1 site', 'hits', '[Other] S2 site', '[Other] P3 compound design', '[Other] upload_1 2025-02-12', 'Main status', '[Series] Piperidine series', 'BAD count']

>  <inspirations>  (503) 
None

>  <subsites>  (503) 
None

>  <reference>  (503) 


>  <observation_longname>  (503) 
A71EV2A-x4883_C_201_v1

>  <ConformerSites alias>  (503) 
1b - A0911/A/147

>  <CanonSites alias>  (503) 
1 - Active Site

>  <CrystalformSites alias>  (503) 
F6p - A4214/C/201

>  <Quatassemblies alias>  (503) 
A1 - monomer

>  <Crystalforms alias>  (503) 
F6 - short_long_x4018

>  <ConformerSites upload name>  (503) 
1b - A71EV2A-x0911/A/147

>  <CanonSites upload name>  (503) 
1 - A71EV2A-x0911/A/147/1

>  <CrystalformSites upload name>  (503) 
F6p - A71EV2A-x4214/C/201/1

>  <Quatassemblies upload name>  (503) 
A1 - monomer

>  <Crystalforms upload name>  (503) 
F6 - short_long_x4018

>  <ConformerSites short tag>  (503) 
1b - A0911/A/147

>  <CanonSites short tag>  (503) 
1 - A0911/A/147/1

>  <CrystalformSites short tag>  (503) 
F6p - A4214/C/201

>  <Quatassemblies short tag>  (503) 
A1 - monomer

>  <Crystalforms short tag>  (503) 
F6 - short_long_x4018

>  <Centroid res>  (503) 
A71EV2A-x0911/A/133/A_v1

>  <Experiment code>  (503) 
A71EV2A-x4883

>  <Pose>  (503) 
A4883a

$$$$
A4885a
     RDKit          3D

 21 22  0  0  0  0  0  0  0  0999 V2000
   10.2860   16.6750   19.1600 O   0  0  0  0  0  0  0  0  0  0  0  0
   10.5950   15.5230   19.4620 C   0  0  0  0  0  0  0  0  0  0  0  0
   10.9990   14.6370   18.5590 N   0  0  0  0  0  0  0  0  0  0  0  0
   10.5070   15.0320   20.8970 C   0  0  1  0  0  0  0  0  0  0  0  0
   11.4510   15.7990   21.8410 C   0  0  0  0  0  0  0  0  0  0  0  0
   11.2430   15.4060   23.3190 C   0  0  2  0  0  0  0  0  0  0  0  0
   11.7390   14.0050   23.6200 C   0  0  0  0  0  0  0  0  0  0  0  0
    9.7750   15.5340   23.6830 C   0  0  0  0  0  0  0  0  0  0  0  0
    9.0530   15.1880   21.3590 C   0  0  0  0  0  0  0  0  0  0  0  0
    8.9280   14.7760   22.7600 N   0  0  0  0  0  0  0  0  0  0  0  0
    8.0670   13.8040   23.1400 C   0  0  0  0  0  0  0  0  0  0  0  0
    7.2640   13.3180   22.3550 O   0  0  0  0  0  0  0  0  0  0  0  0
    8.1350   13.3920   24.6040 C   0  0  0  0  0  0  0  0  0  0  0  0
    7.3330   12.1530   24.9320 C   0  0  0  0  0  0  0  0  0  0  0  0
    7.7310   10.8540   24.5810 C   0  0  0  0  0  0  0  0  0  0  0  0
    9.1770   10.7070   23.5690 S   0  0  0  0  0  0  0  0  0  0  0  0
    9.3240    8.9320   23.2860 C   0  0  0  0  0  0  0  0  0  0  0  0
    6.1840   12.3080   25.7070 C   0  0  0  0  0  0  0  0  0  0  0  0
    5.4630   11.2150   26.1400 C   0  0  0  0  0  0  0  0  0  0  0  0
    5.8540    9.9480   25.7890 C   0  0  0  0  0  0  0  0  0  0  0  0
    6.9850    9.7550   25.0060 C   0  0  0  0  0  0  0  0  0  0  0  0
 17 16  1  0
 16 15  1  0
 15 21  2  0
 21 20  1  0
 20 19  2  0
 19 18  1  0
 18 14  2  0
 15 14  1  0
 14 13  1  0
 13 11  1  0
 12 11  2  0
 11 10  1  0
 10  8  1  0
  8  6  1  0
  6  7  1  6
  6  5  1  0
  5  4  1  0
  4  2  1  6
  3  2  1  0
  2  1  2  0
  9  4  1  0
 10  9  1  0
M  END
>  <id>  (504) 
504

>  <inchikey>  (504) 
KCUWPJSIVYQWJM-AAEUAGOBSA-N

>  <alias>  (504) 
A4885a

>  <smiles>  (504) 
CSc1ccccc1CC(=O)N1C[C@@H](C)C[C@H](C(N)=O)C1

>  <path>  (504) 
/opt/xchem-fragalysis-2/maxwin/BulkDock/TARGETS/A71EV2A/aligned_files/A4885a/A4885a_hippo.pdb

>  <distance_score>  (504) 
None

>  <energy_score>  (504) 
None

>  <compound>  (504) 
KCUWPJSIVYQWJM-UHFFFAOYSA-N

>  <compound_id>  (504) 
376

>  <target>  (504) 
A71EV2A

>  <tags>  (504) 
['GOOD count', 'MEDIOCRE count', '[Other] S1 site', 'hits', '[Other] S2 site', '[Other] upload_6_2025-02-13', '[Other] P3 compound design', '[Other] upload_1 2025-02-12', 'Main status', '[Series] Piperidine series', 'BAD count']

>  <inspirations>  (504) 
None

>  <subsites>  (504) 
None

>  <reference>  (504) 


>  <observation_longname>  (504) 
A71EV2A-x4885_A_201_v1

>  <ConformerSites alias>  (504) 
1b - A0911/A/147

>  <CanonSites alias>  (504) 
1 - Active Site

>  <CrystalformSites alias>  (504) 
F7q - A4303/A/201

>  <Quatassemblies alias>  (504) 
A1 - monomer

>  <Crystalforms alias>  (504) 
F7 - A712A_x4207_8.1_refmac1_1st_ref

>  <ConformerSites upload name>  (504) 
1b - A71EV2A-x0911/A/147

>  <CanonSites upload name>  (504) 
1 - A71EV2A-x0911/A/147/1

>  <CrystalformSites upload name>  (504) 
F7q - A71EV2A-x4303/A/201/1

>  <Quatassemblies upload name>  (504) 
A1 - monomer

>  <Crystalforms upload name>  (504) 
F7 - A712A_x4207_8.1_refmac1_1st_ref

>  <ConformerSites short tag>  (504) 
1b - A0911/A/147

>  <CanonSites short tag>  (504) 
1 - A0911/A/147/1

>  <CrystalformSites short tag>  (504) 
F7q - A4303/A/201

>  <Quatassemblies short tag>  (504) 
A1 - monomer

>  <Crystalforms short tag>  (504) 
F7 - A712A_x4207_8.1_refmac1_1st_ref

>  <Centroid res>  (504) 
A71EV2A-x0911/A/133/A_v1

>  <Experiment code>  (504) 
A71EV2A-x4885

>  <Pose>  (504) 
A4885a

$$$$
A4885b
     RDKit          3D

 21 22  0  0  0  0  0  0  0  0999 V2000
   11.0370   14.6160   18.5530 O   0  0  0  0  0  0  0  0  0  0  0  0
   10.7340   15.4460   19.4440 C   0  0  0  0  0  0  0  0  0  0  0  0
   10.3430   16.6780   19.1700 N   0  0  0  0  0  0  0  0  0  0  0  0
   10.7130   15.0410   20.9090 C   0  0  1  0  0  0  0  0  0  0  0  0
   11.7110   15.8200   21.8040 C   0  0  0  0  0  0  0  0  0  0  0  0
   11.5790   15.4370   23.3000 C   0  0  2  0  0  0  0  0  0  0  0  0
   12.1060   14.0350   23.6140 C   0  0  0  0  0  0  0  0  0  0  0  0
   10.1400   15.5740   23.7370 C   0  0  0  0  0  0  0  0  0  0  0  0
    9.2880   15.1910   21.4550 C   0  0  0  0  0  0  0  0  0  0  0  0
    9.2580   14.7870   22.8640 N   0  0  0  0  0  0  0  0  0  0  0  0
    8.4390   13.7910   23.2900 C   0  0  0  0  0  0  0  0  0  0  0  0
    7.5800   13.2950   22.5660 O   0  0  0  0  0  0  0  0  0  0  0  0
    8.5960   13.3650   24.7410 C   0  0  0  0  0  0  0  0  0  0  0  0
    7.7730   12.1420   25.0990 C   0  0  0  0  0  0  0  0  0  0  0  0
    8.1220   10.8480   24.6870 C   0  0  0  0  0  0  0  0  0  0  0  0
    9.5250   10.6720   23.6250 S   0  0  0  0  0  0  0  0  0  0  0  0
    9.6110    8.8960   23.3120 C   0  0  0  0  0  0  0  0  0  0  0  0
    6.6610   12.2940   25.9330 C   0  0  0  0  0  0  0  0  0  0  0  0
    5.9180   11.1990   26.3470 C   0  0  0  0  0  0  0  0  0  0  0  0
    6.2710    9.9370   25.9390 C   0  0  0  0  0  0  0  0  0  0  0  0
    7.3730    9.7460   25.1110 C   0  0  0  0  0  0  0  0  0  0  0  0
 17 16  1  0
 16 15  1  0
 15 21  2  0
 21 20  1  0
 20 19  2  0
 19 18  1  0
 18 14  2  0
 15 14  1  0
 14 13  1  0
 13 11  1  0
 12 11  2  0
 11 10  1  0
 10  8  1  0
  8  6  1  0
  6  7  1  6
  6  5  1  0
  5  4  1  0
  4  2  1  6
  3  2  1  0
  2  1  2  0
  9  4  1  0
 10  9  1  0
M  END
>  <id>  (505) 
505

>  <inchikey>  (505) 
KCUWPJSIVYQWJM-AAEUAGOBSA-N

>  <alias>  (505) 
A4885b

>  <smiles>  (505) 
CSc1ccccc1CC(=O)N1C[C@@H](C)C[C@H](C(N)=O)C1

>  <path>  (505) 
/opt/xchem-fragalysis-2/maxwin/BulkDock/TARGETS/A71EV2A/aligned_files/A4885b/A4885b_hippo.pdb

>  <distance_score>  (505) 
None

>  <energy_score>  (505) 
None

>  <compound>  (505) 
KCUWPJSIVYQWJM-UHFFFAOYSA-N

>  <compound_id>  (505) 
376

>  <target>  (505) 
A71EV2A

>  <tags>  (505) 
['GOOD count', 'MEDIOCRE count', '[Other] S1 site', 'hits', '[Other] S2 site', '[Other] upload_6_2025-02-13', '[Other] P3 compound design', '[Other] upload_1 2025-02-12', 'Main status', '[Series] Piperidine series', 'BAD count']

>  <inspirations>  (505) 
None

>  <subsites>  (505) 
None

>  <reference>  (505) 


>  <observation_longname>  (505) 
A71EV2A-x4885_C_201_v1

>  <ConformerSites alias>  (505) 
1b - A0911/A/147

>  <CanonSites alias>  (505) 
1 - Active Site

>  <CrystalformSites alias>  (505) 
F7r - A4303/C/201

>  <Quatassemblies alias>  (505) 
A1 - monomer

>  <Crystalforms alias>  (505) 
F7 - A712A_x4207_8.1_refmac1_1st_ref

>  <ConformerSites upload name>  (505) 
1b - A71EV2A-x0911/A/147

>  <CanonSites upload name>  (505) 
1 - A71EV2A-x0911/A/147/1

>  <CrystalformSites upload name>  (505) 
F7r - A71EV2A-x4303/C/201/1

>  <Quatassemblies upload name>  (505) 
A1 - monomer

>  <Crystalforms upload name>  (505) 
F7 - A712A_x4207_8.1_refmac1_1st_ref

>  <ConformerSites short tag>  (505) 
1b - A0911/A/147

>  <CanonSites short tag>  (505) 
1 - A0911/A/147/1

>  <CrystalformSites short tag>  (505) 
F7r - A4303/C/201

>  <Quatassemblies short tag>  (505) 
A1 - monomer

>  <Crystalforms short tag>  (505) 
F7 - A712A_x4207_8.1_refmac1_1st_ref

>  <Centroid res>  (505) 
A71EV2A-x0911/A/133/A_v1

>  <Experiment code>  (505) 
A71EV2A-x4885

>  <Pose>  (505) 
A4885a

$$$$
A4894a
     RDKit          3D

 21 22  0  0  0  0  0  0  0  0999 V2000
   10.4120   16.9090   19.3360 O   0  0  0  0  0  0  0  0  0  0  0  0
   10.9170   15.8000   19.5050 C   0  0  0  0  0  0  0  0  0  0  0  0
   11.2970   15.0430   18.4840 N   0  0  0  0  0  0  0  0  0  0  0  0
   11.0600   15.2260   20.9280 C   0  0  1  0  0  0  0  0  0  0  0  0
   11.7970   14.0010   20.9580 O   0  0  0  0  0  0  0  0  0  0  0  0
   11.7500   16.2410   21.8470 C   0  0  0  0  0  0  0  0  0  0  0  0
   11.7850   15.7610   23.2920 C   0  0  0  0  0  0  0  0  0  0  0  0
   10.3760   15.4780   23.7840 C   0  0  0  0  0  0  0  0  0  0  0  0
    9.6480   14.9550   21.4600 C   0  0  0  0  0  0  0  0  0  0  0  0
    9.6080   14.5950   22.8840 N   0  0  0  0  0  0  0  0  0  0  0  0
    8.7110   13.6750   23.3170 C   0  0  0  0  0  0  0  0  0  0  0  0
    7.9010   13.1550   22.5630 O   0  0  0  0  0  0  0  0  0  0  0  0
    8.6950   13.3710   24.8060 C   0  0  0  0  0  0  0  0  0  0  0  0
    7.9210   12.1150   25.1500 C   0  0  0  0  0  0  0  0  0  0  0  0
    8.2370   10.8370   24.6570 C   0  0  0  0  0  0  0  0  0  0  0  0
    9.6510   10.6510   23.6160 S   0  0  0  0  0  0  0  0  0  0  0  0
    9.6550    8.9080   23.1910 C   0  0  0  0  0  0  0  0  0  0  0  0
    6.8500   12.2260   26.0360 C   0  0  0  0  0  0  0  0  0  0  0  0
    6.1130   11.1180   26.4160 C   0  0  0  0  0  0  0  0  0  0  0  0
    6.4190    9.8790   25.9130 C   0  0  0  0  0  0  0  0  0  0  0  0
    7.4780    9.7270   25.0350 C   0  0  0  0  0  0  0  0  0  0  0  0
 17 16  1  0
 16 15  1  0
 15 21  2  0
 21 20  1  0
 20 19  2  0
 19 18  1  0
 18 14  2  0
 15 14  1  0
 14 13  1  0
 13 11  1  0
 12 11  2  0
 11 10  1  0
 10  8  1  0
  8  7  1  0
  7  6  1  0
  6  4  1  0
  4  5  1  6
  4  2  1  0
  3  2  1  0
  2  1  2  0
  9  4  1  0
 10  9  1  0
M  END
>  <id>  (506) 
506

>  <inchikey>  (506) 
MATXBLKTWRNYBE-OAHLLOKOSA-N

>  <alias>  (506) 
A4894a

>  <smiles>  (506) 
CSc1ccccc1CC(=O)N1CCC[C@](O)(C(N)=O)C1

>  <path>  (506) 
/opt/xchem-fragalysis-2/maxwin/BulkDock/TARGETS/A71EV2A/aligned_files/A4894a/A4894a.pdb

>  <distance_score>  (506) 
None

>  <energy_score>  (506) 
None

>  <compound>  (506) 
MATXBLKTWRNYBE-UHFFFAOYSA-N

>  <compound_id>  (506) 
377

>  <target>  (506) 
A71EV2A

>  <tags>  (506) 
['GOOD count', 'MEDIOCRE count', '[Other] S1 site', 'hits', '[Other] S2 site', '[Other] P3 compound design', '[Other] upload_1 2025-02-12', 'Main status', '[Series] Piperidine series', 'BAD count']

>  <inspirations>  (506) 
None

>  <subsites>  (506) 
None

>  <reference>  (506) 


>  <observation_longname>  (506) 
A71EV2A-x4894_A_201_v1

>  <ConformerSites alias>  (506) 
1b - A0911/A/147

>  <CanonSites alias>  (506) 
1 - Active Site

>  <CrystalformSites alias>  (506) 
F8h - A0884/A/147

>  <Quatassemblies alias>  (506) 
A1 - monomer

>  <Crystalforms alias>  (506) 
F8 - A712A_x4271_2.1_refmac1_1st_ref

>  <ConformerSites upload name>  (506) 
1b - A71EV2A-x0911/A/147

>  <CanonSites upload name>  (506) 
1 - A71EV2A-x0911/A/147/1

>  <CrystalformSites upload name>  (506) 
F8h - A71EV2A-x0884/A/147/1

>  <Quatassemblies upload name>  (506) 
A1 - monomer

>  <Crystalforms upload name>  (506) 
F8 - A712A_x4271_2.1_refmac1_1st_ref

>  <ConformerSites short tag>  (506) 
1b - A0911/A/147

>  <CanonSites short tag>  (506) 
1 - A0911/A/147/1

>  <CrystalformSites short tag>  (506) 
F8h - A0884/A/147

>  <Quatassemblies short tag>  (506) 
A1 - monomer

>  <Crystalforms short tag>  (506) 
F8 - A712A_x4271_2.1_refmac1_1st_ref

>  <Centroid res>  (506) 
A71EV2A-x0911/A/133/A_v1

>  <Experiment code>  (506) 
A71EV2A-x4894

>  <Pose>  (506) 
A4894a

$$$$
A4895a
     RDKit          3D

 21 22  0  0  0  0  0  0  0  0999 V2000
    9.5600   11.2340   23.3610 Cl  0  0  0  0  0  0  0  0  0  0  0  0
    8.1240   11.0940   24.3300 C   0  0  0  0  0  0  0  0  0  0  0  0
    7.5880    9.8410   24.5810 C   0  0  0  0  0  0  0  0  0  0  0  0
    6.4690    9.7260   25.3840 C   0  0  0  0  0  0  0  0  0  0  0  0
    5.9590   10.8980   25.8750 C   0  0  0  0  0  0  0  0  0  0  0  0
    4.8740   10.8600   26.6820 F   0  0  0  0  0  0  0  0  0  0  0  0
    6.4250   12.1060   25.6410 N   0  0  0  0  0  0  0  0  0  0  0  0
    7.5240   12.2130   24.8780 C   0  0  0  0  0  0  0  0  0  0  0  0
    8.1330   13.5930   24.6680 C   0  0  2  0  0  0  0  0  0  0  0  0
    7.3800   14.6840   25.4310 C   0  0  0  0  0  0  0  0  0  0  0  0
    8.1900   13.9580   23.1920 C   0  0  0  0  0  0  0  0  0  0  0  0
    7.3770   13.5110   22.4100 O   0  0  0  0  0  0  0  0  0  0  0  0
    9.1510   14.8340   22.7900 N   0  0  0  0  0  0  0  0  0  0  0  0
    9.2130   15.3020   21.3990 C   0  0  0  0  0  0  0  0  0  0  0  0
   10.6180   15.0830   20.8300 C   0  0  1  0  0  0  0  0  0  0  0  0
   10.6670   15.5730   19.3950 C   0  0  0  0  0  0  0  0  0  0  0  0
   10.3610   16.7380   19.1050 O   0  0  0  0  0  0  0  0  0  0  0  0
   10.9850   14.6650   18.4800 N   0  0  0  0  0  0  0  0  0  0  0  0
   11.6870   15.7600   21.6980 C   0  0  0  0  0  0  0  0  0  0  0  0
   11.5800   15.2500   23.1340 C   0  0  0  0  0  0  0  0  0  0  0  0
   10.1710   15.4330   23.6710 C   0  0  0  0  0  0  0  0  0  0  0  0
  9 10  1  1
 11  9  1  0
 12 11  2  0
 13 11  1  0
 13 21  1  0
 21 20  1  0
 20 19  1  0
 19 15  1  0
 15 16  1  6
 18 16  1  0
 17 16  2  0
 15 14  1  0
 14 13  1  0
  9  8  1  0
  8  7  2  0
  7  5  1  0
  6  5  1  0
  5  4  2  0
  4  3  1  0
  3  2  2  0
  8  2  1  0
  2  1  1  0
M  END
>  <id>  (507) 
507

>  <inchikey>  (507) 
QEUIIYABWPSJMA-IUCAKERBSA-N

>  <alias>  (507) 
A4895a

>  <smiles>  (507) 
C[C@H](C(=O)N1CCC[C@H](C(N)=O)C1)c1nc(F)ccc1Cl

>  <path>  (507) 
/opt/xchem-fragalysis-2/maxwin/BulkDock/TARGETS/A71EV2A/aligned_files/A4895a/A4895a_hippo.pdb

>  <distance_score>  (507) 
None

>  <energy_score>  (507) 
None

>  <compound>  (507) 
QEUIIYABWPSJMA-UHFFFAOYSA-N

>  <compound_id>  (507) 
378

>  <target>  (507) 
A71EV2A

>  <tags>  (507) 
['GOOD count', 'MEDIOCRE count', '[Other] S1 site', 'hits', '[Other] S2 site', '[Other] P3 compound design', '[Other] upload_1 2025-02-12', 'Main status', '[Series] Piperidine series', 'BAD count']

>  <inspirations>  (507) 
None

>  <subsites>  (507) 
None

>  <reference>  (507) 


>  <observation_longname>  (507) 
A71EV2A-x4895_A_201_v1

>  <ConformerSites alias>  (507) 
1b - A0911/A/147

>  <CanonSites alias>  (507) 
1 - Active Site

>  <CrystalformSites alias>  (507) 
F7q - A4303/A/201

>  <Quatassemblies alias>  (507) 
A1 - monomer

>  <Crystalforms alias>  (507) 
F7 - A712A_x4207_8.1_refmac1_1st_ref

>  <ConformerSites upload name>  (507) 
1b - A71EV2A-x0911/A/147

>  <CanonSites upload name>  (507) 
1 - A71EV2A-x0911/A/147/1

>  <CrystalformSites upload name>  (507) 
F7q - A71EV2A-x4303/A/201/1

>  <Quatassemblies upload name>  (507) 
A1 - monomer

>  <Crystalforms upload name>  (507) 
F7 - A712A_x4207_8.1_refmac1_1st_ref

>  <ConformerSites short tag>  (507) 
1b - A0911/A/147

>  <CanonSites short tag>  (507) 
1 - A0911/A/147/1

>  <CrystalformSites short tag>  (507) 
F7q - A4303/A/201

>  <Quatassemblies short tag>  (507) 
A1 - monomer

>  <Crystalforms short tag>  (507) 
F7 - A712A_x4207_8.1_refmac1_1st_ref

>  <Centroid res>  (507) 
A71EV2A-x0911/A/133/A_v1

>  <Experiment code>  (507) 
A71EV2A-x4895

>  <Pose>  (507) 
A4895a

$$$$
A4895b
     RDKit          3D

 21 22  0  0  0  0  0  0  0  0999 V2000
    9.9990   11.0750   23.4480 Cl  0  0  0  0  0  0  0  0  0  0  0  0
    8.6130   10.9910   24.4800 C   0  0  0  0  0  0  0  0  0  0  0  0
    8.0710    9.7450   24.7400 C   0  0  0  0  0  0  0  0  0  0  0  0
    6.9890    9.6410   25.5930 C   0  0  0  0  0  0  0  0  0  0  0  0
    6.5260   10.8170   26.1220 C   0  0  0  0  0  0  0  0  0  0  0  0
    5.4150   10.7970   26.8960 F   0  0  0  0  0  0  0  0  0  0  0  0
    6.9990   12.0220   25.8900 N   0  0  0  0  0  0  0  0  0  0  0  0
    8.0560   12.1130   25.0630 C   0  0  0  0  0  0  0  0  0  0  0  0
    8.6710   13.4920   24.8420 C   0  0  2  0  0  0  0  0  0  0  0  0
    7.9650   14.5810   25.6680 C   0  0  0  0  0  0  0  0  0  0  0  0
    8.6370   13.8560   23.3610 C   0  0  0  0  0  0  0  0  0  0  0  0
    7.7730   13.3970   22.6300 O   0  0  0  0  0  0  0  0  0  0  0  0
    9.5470   14.7600   22.9090 N   0  0  0  0  0  0  0  0  0  0  0  0
    9.5100   15.2020   21.5060 C   0  0  0  0  0  0  0  0  0  0  0  0
   10.8760   15.0350   20.8360 C   0  0  1  0  0  0  0  0  0  0  0  0
   10.8220   15.5150   19.3970 C   0  0  0  0  0  0  0  0  0  0  0  0
   10.4500   16.6690   19.1220 O   0  0  0  0  0  0  0  0  0  0  0  0
   11.1260   14.6110   18.4670 N   0  0  0  0  0  0  0  0  0  0  0  0
   11.9530   15.7730   21.6470 C   0  0  0  0  0  0  0  0  0  0  0  0
   11.9620   15.2660   23.0920 C   0  0  0  0  0  0  0  0  0  0  0  0
   10.5920   15.4190   23.7180 C   0  0  0  0  0  0  0  0  0  0  0  0
  9 10  1  1
 11  9  1  0
 12 11  2  0
 13 11  1  0
 13 21  1  0
 21 20  1  0
 20 19  1  0
 19 15  1  0
 15 16  1  6
 18 16  1  0
 17 16  2  0
 15 14  1  0
 14 13  1  0
  9  8  1  0
  8  7  2  0
  7  5  1  0
  6  5  1  0
  5  4  2  0
  4  3  1  0
  3  2  2  0
  8  2  1  0
  2  1  1  0
M  END
>  <id>  (508) 
508

>  <inchikey>  (508) 
QEUIIYABWPSJMA-IUCAKERBSA-N

>  <alias>  (508) 
A4895b

>  <smiles>  (508) 
C[C@H](C(=O)N1CCC[C@H](C(N)=O)C1)c1nc(F)ccc1Cl

>  <path>  (508) 
/opt/xchem-fragalysis-2/maxwin/BulkDock/TARGETS/A71EV2A/aligned_files/A4895b/A4895b_hippo.pdb

>  <distance_score>  (508) 
None

>  <energy_score>  (508) 
None

>  <compound>  (508) 
QEUIIYABWPSJMA-UHFFFAOYSA-N

>  <compound_id>  (508) 
378

>  <target>  (508) 
A71EV2A

>  <tags>  (508) 
['GOOD count', 'MEDIOCRE count', '[Other] S1 site', 'hits', '[Other] S2 site', '[Other] P3 compound design', '[Other] upload_1 2025-02-12', 'Main status', '[Series] Piperidine series', 'BAD count']

>  <inspirations>  (508) 
None

>  <subsites>  (508) 
None

>  <reference>  (508) 


>  <observation_longname>  (508) 
A71EV2A-x4895_C_201_v1

>  <ConformerSites alias>  (508) 
1b - A0911/A/147

>  <CanonSites alias>  (508) 
1 - Active Site

>  <CrystalformSites alias>  (508) 
F7r - A4303/C/201

>  <Quatassemblies alias>  (508) 
A1 - monomer

>  <Crystalforms alias>  (508) 
F7 - A712A_x4207_8.1_refmac1_1st_ref

>  <ConformerSites upload name>  (508) 
1b - A71EV2A-x0911/A/147

>  <CanonSites upload name>  (508) 
1 - A71EV2A-x0911/A/147/1

>  <CrystalformSites upload name>  (508) 
F7r - A71EV2A-x4303/C/201/1

>  <Quatassemblies upload name>  (508) 
A1 - monomer

>  <Crystalforms upload name>  (508) 
F7 - A712A_x4207_8.1_refmac1_1st_ref

>  <ConformerSites short tag>  (508) 
1b - A0911/A/147

>  <CanonSites short tag>  (508) 
1 - A0911/A/147/1

>  <CrystalformSites short tag>  (508) 
F7r - A4303/C/201

>  <Quatassemblies short tag>  (508) 
A1 - monomer

>  <Crystalforms short tag>  (508) 
F7 - A712A_x4207_8.1_refmac1_1st_ref

>  <Centroid res>  (508) 
A71EV2A-x0911/A/133/A_v1

>  <Experiment code>  (508) 
A71EV2A-x4895

>  <Pose>  (508) 
A4895a

$$$$
A4899a
     RDKit          3D

 21 22  0  0  0  0  0  0  0  0999 V2000
   10.4230   16.7110   19.2030 O   0  0  0  0  0  0  0  0  0  0  0  0
   10.7980   15.5520   19.4350 C   0  0  0  0  0  0  0  0  0  0  0  0
   11.0760   14.6800   18.4700 N   0  0  0  0  0  0  0  0  0  0  0  0
   10.8110   14.9940   20.8490 C   0  0  1  0  0  0  0  0  0  0  0  0
   11.7560   15.7590   21.7790 C   0  0  0  0  0  0  0  0  0  0  0  0
   11.6840   15.1600   23.1820 C   0  0  0  0  0  0  0  0  0  0  0  0
   10.2510   15.1250   23.6900 C   0  0  0  0  0  0  0  0  0  0  0  0
    9.3710   15.1120   21.3390 C   0  0  0  0  0  0  0  0  0  0  0  0
    9.2280   14.6430   22.7320 N   0  0  0  0  0  0  0  0  0  0  0  0
    7.7980   14.1400   23.2930 S   0  0  0  0  0  0  0  0  0  0  0  0
    7.1300   13.4980   22.2070 O   0  0  0  0  0  0  0  0  0  0  0  0
    7.2010   15.2950   23.8890 O   0  0  0  0  0  0  0  0  0  0  0  0
    8.1480   13.1170   24.5470 N   0  0  0  0  0  0  0  0  0  0  0  0
    8.4180   11.7530   24.2990 C   0  0  0  0  0  0  0  0  0  0  0  0
    7.6660   10.7860   24.9550 C   0  0  0  0  0  0  0  0  0  0  0  0
    6.8200   11.2500   25.9110 O   0  0  0  0  0  0  0  0  0  0  0  0
    5.8760   10.3250   26.4740 C   0  0  0  0  0  0  0  0  0  0  0  0
    9.3990   11.3570   23.3990 C   0  0  0  0  0  0  0  0  0  0  0  0
    9.5600   10.0030   23.1620 C   0  0  0  0  0  0  0  0  0  0  0  0
    8.7400    9.1220   23.8180 C   0  0  0  0  0  0  0  0  0  0  0  0
    7.8070    9.4910   24.7160 N   0  0  0  0  0  0  0  0  0  0  0  0
 17 16  1  0
 16 15  1  0
 15 21  2  0
 21 20  1  0
 20 19  2  0
 19 18  1  0
 18 14  2  0
 15 14  1  0
 14 13  1  0
 13 10  1  0
 11 10  2  0
 12 10  2  0
 10  9  1  0
  9  7  1  0
  7  6  1  0
  6  5  1  0
  5  4  1  0
  4  2  1  6
  3  2  1  0
  2  1  2  0
  8  4  1  0
  9  8  1  0
M  END
>  <id>  (509) 
509

>  <inchikey>  (509) 
BWOXLKDHBJDGAX-VIFPVBQESA-N

>  <alias>  (509) 
A4899a

>  <smiles>  (509) 
COc1ncccc1NS(=O)(=O)N1CCC[C@H](C(N)=O)C1

>  <path>  (509) 
/opt/xchem-fragalysis-2/maxwin/BulkDock/TARGETS/A71EV2A/aligned_files/A4899a/A4899a_hippo.pdb

>  <distance_score>  (509) 
None

>  <energy_score>  (509) 
None

>  <compound>  (509) 
BWOXLKDHBJDGAX-UHFFFAOYSA-N

>  <compound_id>  (509) 
379

>  <target>  (509) 
A71EV2A

>  <tags>  (509) 
['GOOD count', 'MEDIOCRE count', '[Other] S1 site', 'hits', '[Other] S2 site', '[Other] P3 compound design', '[Other] upload_1 2025-02-12', 'Main status', '[Series] Piperidine series', 'BAD count']

>  <inspirations>  (509) 
None

>  <subsites>  (509) 
None

>  <reference>  (509) 


>  <observation_longname>  (509) 
A71EV2A-x4899_A_201_v1

>  <ConformerSites alias>  (509) 
1b - A0911/A/147

>  <CanonSites alias>  (509) 
1 - Active Site

>  <CrystalformSites alias>  (509) 
F7q - A4303/A/201

>  <Quatassemblies alias>  (509) 
A1 - monomer

>  <Crystalforms alias>  (509) 
F7 - A712A_x4207_8.1_refmac1_1st_ref

>  <ConformerSites upload name>  (509) 
1b - A71EV2A-x0911/A/147

>  <CanonSites upload name>  (509) 
1 - A71EV2A-x0911/A/147/1

>  <CrystalformSites upload name>  (509) 
F7q - A71EV2A-x4303/A/201/1

>  <Quatassemblies upload name>  (509) 
A1 - monomer

>  <Crystalforms upload name>  (509) 
F7 - A712A_x4207_8.1_refmac1_1st_ref

>  <ConformerSites short tag>  (509) 
1b - A0911/A/147

>  <CanonSites short tag>  (509) 
1 - A0911/A/147/1

>  <CrystalformSites short tag>  (509) 
F7q - A4303/A/201

>  <Quatassemblies short tag>  (509) 
A1 - monomer

>  <Crystalforms short tag>  (509) 
F7 - A712A_x4207_8.1_refmac1_1st_ref

>  <Centroid res>  (509) 
A71EV2A-x0911/A/133/A_v1

>  <Experiment code>  (509) 
A71EV2A-x4899

>  <Pose>  (509) 
A4899a

$$$$
A4899b
     RDKit          3D

 21 22  0  0  0  0  0  0  0  0999 V2000
   10.5250   16.7290   19.2280 O   0  0  0  0  0  0  0  0  0  0  0  0
   10.8850   15.5540   19.4330 C   0  0  0  0  0  0  0  0  0  0  0  0
   11.1340   14.6760   18.4550 N   0  0  0  0  0  0  0  0  0  0  0  0
   10.9500   14.9970   20.8440 C   0  0  1  0  0  0  0  0  0  0  0  0
   11.9170   15.7840   21.7420 C   0  0  0  0  0  0  0  0  0  0  0  0
   11.8860   15.2250   23.1640 C   0  0  0  0  0  0  0  0  0  0  0  0
   10.4630   15.1700   23.7100 C   0  0  0  0  0  0  0  0  0  0  0  0
    9.5240   15.0660   21.3940 C   0  0  0  0  0  0  0  0  0  0  0  0
    9.4640   14.5850   22.7870 N   0  0  0  0  0  0  0  0  0  0  0  0
    8.0580   14.0000   23.3940 S   0  0  0  0  0  0  0  0  0  0  0  0
    7.3590   13.4270   22.2890 O   0  0  0  0  0  0  0  0  0  0  0  0
    7.4740   15.1080   24.0810 O   0  0  0  0  0  0  0  0  0  0  0  0
    8.4320   12.9540   24.5480 N   0  0  0  0  0  0  0  0  0  0  0  0
    8.7070   11.5970   24.2500 C   0  0  0  0  0  0  0  0  0  0  0  0
    7.9880   10.5730   24.8860 C   0  0  0  0  0  0  0  0  0  0  0  0
    7.0890   10.9710   25.8090 O   0  0  0  0  0  0  0  0  0  0  0  0
    6.2220    9.9730   26.3670 C   0  0  0  0  0  0  0  0  0  0  0  0
    9.6860   11.2620   23.3260 C   0  0  0  0  0  0  0  0  0  0  0  0
    9.8720    9.9200   23.0440 C   0  0  0  0  0  0  0  0  0  0  0  0
    9.0900    8.9820   23.6900 C   0  0  0  0  0  0  0  0  0  0  0  0
    8.1670    9.2890   24.6160 N   0  0  0  0  0  0  0  0  0  0  0  0
 17 16  1  0
 16 15  1  0
 15 21  2  0
 21 20  1  0
 20 19  2  0
 19 18  1  0
 18 14  2  0
 15 14  1  0
 14 13  1  0
 13 10  1  0
 11 10  2  0
 12 10  2  0
 10  9  1  0
  9  7  1  0
  7  6  1  0
  6  5  1  0
  5  4  1  0
  4  2  1  6
  3  2  1  0
  2  1  2  0
  8  4  1  0
  9  8  1  0
M  END
>  <id>  (510) 
510

>  <inchikey>  (510) 
BWOXLKDHBJDGAX-VIFPVBQESA-N

>  <alias>  (510) 
A4899b

>  <smiles>  (510) 
COc1ncccc1NS(=O)(=O)N1CCC[C@H](C(N)=O)C1

>  <path>  (510) 
/opt/xchem-fragalysis-2/maxwin/BulkDock/TARGETS/A71EV2A/aligned_files/A4899b/A4899b_hippo.pdb

>  <distance_score>  (510) 
None

>  <energy_score>  (510) 
None

>  <compound>  (510) 
BWOXLKDHBJDGAX-UHFFFAOYSA-N

>  <compound_id>  (510) 
379

>  <target>  (510) 
A71EV2A

>  <tags>  (510) 
['GOOD count', 'MEDIOCRE count', '[Other] S1 site', 'hits', '[Other] S2 site', '[Other] P3 compound design', '[Other] upload_1 2025-02-12', 'Main status', '[Series] Piperidine series', 'BAD count']

>  <inspirations>  (510) 
None

>  <subsites>  (510) 
None

>  <reference>  (510) 


>  <observation_longname>  (510) 
A71EV2A-x4899_C_201_v1

>  <ConformerSites alias>  (510) 
1b - A0911/A/147

>  <CanonSites alias>  (510) 
1 - Active Site

>  <CrystalformSites alias>  (510) 
F7r - A4303/C/201

>  <Quatassemblies alias>  (510) 
A1 - monomer

>  <Crystalforms alias>  (510) 
F7 - A712A_x4207_8.1_refmac1_1st_ref

>  <ConformerSites upload name>  (510) 
1b - A71EV2A-x0911/A/147

>  <CanonSites upload name>  (510) 
1 - A71EV2A-x0911/A/147/1

>  <CrystalformSites upload name>  (510) 
F7r - A71EV2A-x4303/C/201/1

>  <Quatassemblies upload name>  (510) 
A1 - monomer

>  <Crystalforms upload name>  (510) 
F7 - A712A_x4207_8.1_refmac1_1st_ref

>  <ConformerSites short tag>  (510) 
1b - A0911/A/147

>  <CanonSites short tag>  (510) 
1 - A0911/A/147/1

>  <CrystalformSites short tag>  (510) 
F7r - A4303/C/201

>  <Quatassemblies short tag>  (510) 
A1 - monomer

>  <Crystalforms short tag>  (510) 
F7 - A712A_x4207_8.1_refmac1_1st_ref

>  <Centroid res>  (510) 
A71EV2A-x0911/A/133/A_v1

>  <Experiment code>  (510) 
A71EV2A-x4899

>  <Pose>  (510) 
A4899a

$$$$
A4903a
     RDKit          3D

 21 22  0  0  0  0  0  0  0  0999 V2000
   10.3690   16.6690   19.2200 O   0  0  0  0  0  0  0  0  0  0  0  0
   10.7230   15.5070   19.4640 C   0  0  0  0  0  0  0  0  0  0  0  0
   11.0690   14.6560   18.5050 N   0  0  0  0  0  0  0  0  0  0  0  0
   10.7000   14.9730   20.8830 C   0  0  1  0  0  0  0  0  0  0  0  0
   11.7940   15.5780   21.7710 C   0  0  0  0  0  0  0  0  0  0  0  0
   11.7210   14.9350   23.1600 C   0  0  0  0  0  0  0  0  0  0  0  0
   10.3240   15.0540   23.7720 C   0  0  0  0  0  0  0  0  0  0  0  0
    9.3120   15.1680   21.5010 C   0  0  0  0  0  0  0  0  0  0  0  0
    9.2800   14.5810   22.8440 N   0  0  0  0  0  0  0  0  0  0  0  0
    8.3750   13.6200   23.1380 C   0  0  0  0  0  0  0  0  0  0  0  0
    7.4900   13.2610   22.4000 O   0  0  0  0  0  0  0  0  0  0  0  0
    8.5570   13.1580   24.4080 O   0  0  0  0  0  0  0  0  0  0  0  0
    7.6690   12.1690   24.8360 C   0  0  0  0  0  0  0  0  0  0  0  0
    7.8760   10.8290   24.4650 C   0  0  0  0  0  0  0  0  0  0  0  0
    8.9180   10.6110   23.5980 O   0  0  0  0  0  0  0  0  0  0  0  0
    9.2080    9.2570   23.2250 C   0  0  0  0  0  0  0  0  0  0  0  0
    6.6580   12.5050   25.7120 C   0  0  0  0  0  0  0  0  0  0  0  0
    5.8510   11.4990   26.2110 C   0  0  0  0  0  0  0  0  0  0  0  0
    4.5990   11.9110   27.3490 Cl  0  0  0  0  0  0  0  0  0  0  0  0
    6.0410   10.1770   25.8660 C   0  0  0  0  0  0  0  0  0  0  0  0
    7.0610    9.8390   24.9870 C   0  0  0  0  0  0  0  0  0  0  0  0
 16 15  1  0
 15 14  1  0
 14 21  2  0
 21 20  1  0
 20 18  2  0
 19 18  1  0
 18 17  1  0
 17 13  2  0
 14 13  1  0
 13 12  1  0
 12 10  1  0
 11 10  2  0
 10  9  1  0
  9  7  1  0
  7  6  1  0
  6  5  1  0
  5  4  1  0
  4  2  1  6
  3  2  1  0
  2  1  2  0
  8  4  1  0
  9  8  1  0
M  END
>  <id>  (511) 
511

>  <inchikey>  (511) 
RWZFWMWMIABRNY-VIFPVBQESA-N

>  <alias>  (511) 
A4903a

>  <smiles>  (511) 
COc1ccc(Cl)cc1OC(=O)N1CCC[C@H](C(N)=O)C1

>  <path>  (511) 
/opt/xchem-fragalysis-2/maxwin/BulkDock/TARGETS/A71EV2A/aligned_files/A4903a/A4903a_hippo.pdb

>  <distance_score>  (511) 
None

>  <energy_score>  (511) 
None

>  <compound>  (511) 
RWZFWMWMIABRNY-UHFFFAOYSA-N

>  <compound_id>  (511) 
361

>  <target>  (511) 
A71EV2A

>  <tags>  (511) 
['GOOD count', 'MEDIOCRE count', '[Other] S1 site', 'hits', '[Other] S2 site', '[Other] P3 compound design', '[Other] upload_1 2025-02-12', 'Main status', '[Series] Piperidine series', 'BAD count']

>  <inspirations>  (511) 
None

>  <subsites>  (511) 
None

>  <reference>  (511) 


>  <observation_longname>  (511) 
A71EV2A-x4903_A_201_v1

>  <ConformerSites alias>  (511) 
1b - A0911/A/147

>  <CanonSites alias>  (511) 
1 - Active Site

>  <CrystalformSites alias>  (511) 
F6o - A4214/A/201

>  <Quatassemblies alias>  (511) 
A1 - monomer

>  <Crystalforms alias>  (511) 
F6 - short_long_x4018

>  <ConformerSites upload name>  (511) 
1b - A71EV2A-x0911/A/147

>  <CanonSites upload name>  (511) 
1 - A71EV2A-x0911/A/147/1

>  <CrystalformSites upload name>  (511) 
F6o - A71EV2A-x4214/A/201/1

>  <Quatassemblies upload name>  (511) 
A1 - monomer

>  <Crystalforms upload name>  (511) 
F6 - short_long_x4018

>  <ConformerSites short tag>  (511) 
1b - A0911/A/147

>  <CanonSites short tag>  (511) 
1 - A0911/A/147/1

>  <CrystalformSites short tag>  (511) 
F6o - A4214/A/201

>  <Quatassemblies short tag>  (511) 
A1 - monomer

>  <Crystalforms short tag>  (511) 
F6 - short_long_x4018

>  <Centroid res>  (511) 
A71EV2A-x0911/A/133/A_v1

>  <Experiment code>  (511) 
A71EV2A-x4903

>  <Pose>  (511) 
A4903a

$$$$
A4903b
     RDKit          3D

 21 22  0  0  0  0  0  0  0  0999 V2000
   10.5050   16.6550   19.2350 O   0  0  0  0  0  0  0  0  0  0  0  0
   10.8840   15.4900   19.4640 C   0  0  0  0  0  0  0  0  0  0  0  0
   11.1880   14.6330   18.4820 N   0  0  0  0  0  0  0  0  0  0  0  0
   10.9480   14.9570   20.8850 C   0  0  1  0  0  0  0  0  0  0  0  0
   12.0190   15.6530   21.7420 C   0  0  0  0  0  0  0  0  0  0  0  0
   12.0570   15.0290   23.1400 C   0  0  0  0  0  0  0  0  0  0  0  0
   10.6800   15.0800   23.8000 C   0  0  0  0  0  0  0  0  0  0  0  0
    9.5830   15.0830   21.5690 C   0  0  0  0  0  0  0  0  0  0  0  0
    9.6440   14.5110   22.9190 N   0  0  0  0  0  0  0  0  0  0  0  0
    8.7400   13.5790   23.2690 C   0  0  0  0  0  0  0  0  0  0  0  0
    7.8450   13.1820   22.5670 O   0  0  0  0  0  0  0  0  0  0  0  0
    8.9680   13.1280   24.5340 O   0  0  0  0  0  0  0  0  0  0  0  0
    8.0880   12.1230   24.9850 C   0  0  0  0  0  0  0  0  0  0  0  0
    8.2850   10.7880   24.5930 C   0  0  0  0  0  0  0  0  0  0  0  0
    9.2980   10.5750   23.6950 O   0  0  0  0  0  0  0  0  0  0  0  0
    9.5500    9.2140   23.2710 C   0  0  0  0  0  0  0  0  0  0  0  0
    7.0990   12.4540   25.8900 C   0  0  0  0  0  0  0  0  0  0  0  0
    6.3050   11.4430   26.4020 C   0  0  0  0  0  0  0  0  0  0  0  0
    4.9800   11.8590   27.4800 Cl  0  0  0  0  0  0  0  0  0  0  0  0
    6.4820   10.1270   26.0340 C   0  0  0  0  0  0  0  0  0  0  0  0
    7.4630    9.7940   25.1110 C   0  0  0  0  0  0  0  0  0  0  0  0
 16 15  1  0
 15 14  1  0
 14 21  2  0
 21 20  1  0
 20 18  2  0
 19 18  1  0
 18 17  1  0
 17 13  2  0
 14 13  1  0
 13 12  1  0
 12 10  1  0
 11 10  2  0
 10  9  1  0
  9  7  1  0
  7  6  1  0
  6  5  1  0
  5  4  1  0
  4  2  1  6
  3  2  1  0
  2  1  2  0
  8  4  1  0
  9  8  1  0
M  END
>  <id>  (512) 
512

>  <inchikey>  (512) 
RWZFWMWMIABRNY-VIFPVBQESA-N

>  <alias>  (512) 
A4903b

>  <smiles>  (512) 
COc1ccc(Cl)cc1OC(=O)N1CCC[C@H](C(N)=O)C1

>  <path>  (512) 
/opt/xchem-fragalysis-2/maxwin/BulkDock/TARGETS/A71EV2A/aligned_files/A4903b/A4903b_hippo.pdb

>  <distance_score>  (512) 
None

>  <energy_score>  (512) 
None

>  <compound>  (512) 
RWZFWMWMIABRNY-UHFFFAOYSA-N

>  <compound_id>  (512) 
361

>  <target>  (512) 
A71EV2A

>  <tags>  (512) 
['GOOD count', 'MEDIOCRE count', '[Other] S1 site', 'hits', '[Other] S2 site', '[Other] P3 compound design', '[Other] upload_1 2025-02-12', 'Main status', '[Series] Piperidine series', 'BAD count']

>  <inspirations>  (512) 
None

>  <subsites>  (512) 
None

>  <reference>  (512) 


>  <observation_longname>  (512) 
A71EV2A-x4903_C_201_v1

>  <ConformerSites alias>  (512) 
1b - A0911/A/147

>  <CanonSites alias>  (512) 
1 - Active Site

>  <CrystalformSites alias>  (512) 
F6p - A4214/C/201

>  <Quatassemblies alias>  (512) 
A1 - monomer

>  <Crystalforms alias>  (512) 
F6 - short_long_x4018

>  <ConformerSites upload name>  (512) 
1b - A71EV2A-x0911/A/147

>  <CanonSites upload name>  (512) 
1 - A71EV2A-x0911/A/147/1

>  <CrystalformSites upload name>  (512) 
F6p - A71EV2A-x4214/C/201/1

>  <Quatassemblies upload name>  (512) 
A1 - monomer

>  <Crystalforms upload name>  (512) 
F6 - short_long_x4018

>  <ConformerSites short tag>  (512) 
1b - A0911/A/147

>  <CanonSites short tag>  (512) 
1 - A0911/A/147/1

>  <CrystalformSites short tag>  (512) 
F6p - A4214/C/201

>  <Quatassemblies short tag>  (512) 
A1 - monomer

>  <Crystalforms short tag>  (512) 
F6 - short_long_x4018

>  <Centroid res>  (512) 
A71EV2A-x0911/A/133/A_v1

>  <Experiment code>  (512) 
A71EV2A-x4903

>  <Pose>  (512) 
A4903a

$$$$
A4908a
     RDKit          3D

 21 23  0  0  0  0  0  0  0  0999 V2000
    8.0540   13.2680   22.5010 O   0  0  0  0  0  0  0  0  0  0  0  0
    8.7660   13.8720   23.2860 C   0  0  0  0  0  0  0  0  0  0  0  0
    9.5570   14.8930   22.8950 N   0  0  0  0  0  0  0  0  0  0  0  0
   10.5600   15.5660   23.7350 C   0  0  0  0  0  0  0  0  0  0  0  0
   11.9370   15.4940   23.0880 C   0  0  0  0  0  0  0  0  0  0  0  0
   11.8890   15.9540   21.6270 C   0  0  0  0  0  0  0  0  0  0  0  0
    9.4870   15.4220   21.5310 C   0  0  0  0  0  0  0  0  0  0  0  0
   10.8270   15.1880   20.8290 C   0  0  1  0  0  0  0  0  0  0  0  0
   10.7880   15.6310   19.3780 C   0  0  0  0  0  0  0  0  0  0  0  0
   10.5970   16.8110   19.0750 O   0  0  0  0  0  0  0  0  0  0  0  0
   10.9470   14.6750   18.4770 N   0  0  0  0  0  0  0  0  0  0  0  0
    8.7910   13.5070   24.7570 C   0  0  0  0  0  0  0  0  0  0  0  0
    8.1160   12.1780   25.0110 C   0  0  0  0  0  0  0  0  0  0  0  0
    8.5730   11.0050   24.4160 C   0  0  0  0  0  0  0  0  0  0  0  0
    9.6570   10.9120   23.5810 O   0  0  0  0  0  0  0  0  0  0  0  0
    9.7420    9.5770   23.2400 C   0  0  0  0  0  0  0  0  0  0  0  0
    8.7780    8.8500   23.8040 C   0  0  0  0  0  0  0  0  0  0  0  0
    7.9870    9.7520   24.5990 C   0  0  0  0  0  0  0  0  0  0  0  0
    6.8830    9.7040   25.4600 C   0  0  0  0  0  0  0  0  0  0  0  0
    6.4030   10.8550   26.0770 C   0  0  0  0  0  0  0  0  0  0  0  0
    7.0080   12.0820   25.8500 C   0  0  0  0  0  0  0  0  0  0  0  0
 11  9  1  0
 10  9  2  0
  8  9  1  6
  8  6  1  0
  6  5  1  0
  5  4  1  0
  4  3  1  0
  3  2  1  0
  2  1  2  0
 12  2  1  0
 13 12  1  0
 13 21  1  0
 21 20  2  0
 20 19  1  0
 19 18  2  0
 18 17  1  0
 17 16  2  0
 16 15  1  0
 15 14  1  0
 14 13  2  0
 18 14  1  0
  7  3  1  0
  8  7  1  0
M  END
>  <id>  (513) 
513

>  <inchikey>  (513) 
UBPLXXDIBAGAQY-ZDUSSCGKSA-N

>  <alias>  (513) 
A4908a

>  <smiles>  (513) 
NC(=O)[C@H]1CCCN(C(=O)Cc2cccc3ccoc23)C1

>  <path>  (513) 
/opt/xchem-fragalysis-2/maxwin/BulkDock/TARGETS/A71EV2A/aligned_files/A4908a/A4908a.pdb

>  <distance_score>  (513) 
None

>  <energy_score>  (513) 
None

>  <compound>  (513) 
UBPLXXDIBAGAQY-UHFFFAOYSA-N

>  <compound_id>  (513) 
380

>  <target>  (513) 
A71EV2A

>  <tags>  (513) 
['GOOD count', 'MEDIOCRE count', '[Other] S1 site', 'hits', '[Other] S2 site', '[Other] P3 compound design', '[Other] upload_1 2025-02-12', 'Main status', '[Series] Piperidine series', 'BAD count']

>  <inspirations>  (513) 
None

>  <subsites>  (513) 
None

>  <reference>  (513) 


>  <observation_longname>  (513) 
A71EV2A-x4908_A_201_v1

>  <ConformerSites alias>  (513) 
1b - A0911/A/147

>  <CanonSites alias>  (513) 
1 - Active Site

>  <CrystalformSites alias>  (513) 
F8h - A0884/A/147

>  <Quatassemblies alias>  (513) 
A1 - monomer

>  <Crystalforms alias>  (513) 
F8 - A712A_x4271_2.1_refmac1_1st_ref

>  <ConformerSites upload name>  (513) 
1b - A71EV2A-x0911/A/147

>  <CanonSites upload name>  (513) 
1 - A71EV2A-x0911/A/147/1

>  <CrystalformSites upload name>  (513) 
F8h - A71EV2A-x0884/A/147/1

>  <Quatassemblies upload name>  (513) 
A1 - monomer

>  <Crystalforms upload name>  (513) 
F8 - A712A_x4271_2.1_refmac1_1st_ref

>  <ConformerSites short tag>  (513) 
1b - A0911/A/147

>  <CanonSites short tag>  (513) 
1 - A0911/A/147/1

>  <CrystalformSites short tag>  (513) 
F8h - A0884/A/147

>  <Quatassemblies short tag>  (513) 
A1 - monomer

>  <Crystalforms short tag>  (513) 
F8 - A712A_x4271_2.1_refmac1_1st_ref

>  <Centroid res>  (513) 
A71EV2A-x0911/A/133/A_v1

>  <Experiment code>  (513) 
A71EV2A-x4908

>  <Pose>  (513) 
A4908a

$$$$
A4914a
     RDKit          3D

 20 21  0  0  0  0  0  0  0  0999 V2000
   10.5530   16.9520   19.3940 O   0  0  0  0  0  0  0  0  0  0  0  0
   10.7850   15.7430   19.4930 C   0  0  0  0  0  0  0  0  0  0  0  0
   11.0190   14.9670   18.4480 N   0  0  0  0  0  0  0  0  0  0  0  0
   10.8640   15.0680   20.8510 C   0  0  1  0  0  0  0  0  0  0  0  0
   11.9060   15.7610   21.7390 C   0  0  0  0  0  0  0  0  0  0  0  0
   12.0000   15.0860   23.1040 C   0  0  0  0  0  0  0  0  0  0  0  0
   10.6500   15.0970   23.7870 C   0  0  0  0  0  0  0  0  0  0  0  0
    9.5140   15.1080   21.5780 C   0  0  0  0  0  0  0  0  0  0  0  0
    9.6060   14.5200   22.9210 N   0  0  0  0  0  0  0  0  0  0  0  0
    8.6970   13.6140   23.3490 C   0  0  0  0  0  0  0  0  0  0  0  0
    7.8520   13.1390   22.6060 O   0  0  0  0  0  0  0  0  0  0  0  0
    8.7330   13.2340   24.8180 C   0  0  0  0  0  0  0  0  0  0  0  0
    7.9850   11.9660   25.1210 C   0  0  0  0  0  0  0  0  0  0  0  0
    8.4090   10.6900   24.6490 C   0  0  0  0  0  0  0  0  0  0  0  0
    9.7530   10.5350   23.5130 S   0  0  0  0  0  0  0  0  0  0  0  0
    9.9510    8.7690   23.3350 C   0  0  0  0  0  0  0  0  0  0  0  0
    6.9320   12.1230   25.9390 N   0  0  0  0  0  0  0  0  0  0  0  0
    6.2800   11.0280   26.3490 C   0  0  0  0  0  0  0  0  0  0  0  0
    6.6240    9.7550   25.9670 C   0  0  0  0  0  0  0  0  0  0  0  0
    7.6960    9.5840   25.1050 C   0  0  0  0  0  0  0  0  0  0  0  0
 16 15  1  0
 15 14  1  0
 14 20  2  0
 20 19  1  0
 19 18  2  0
 18 17  1  0
 17 13  2  0
 14 13  1  0
 13 12  1  0
 12 10  1  0
 11 10  2  0
 10  9  1  0
  9  7  1  0
  7  6  1  0
  6  5  1  0
  5  4  1  0
  4  2  1  6
  3  2  1  0
  2  1  2  0
  8  4  1  0
  9  8  1  0
M  END
>  <id>  (514) 
514

>  <inchikey>  (514) 
MYIKGEYXRPOTHW-JTQLQIEISA-N

>  <alias>  (514) 
A4914a

>  <smiles>  (514) 
CSc1cccnc1CC(=O)N1CCC[C@H](C(N)=O)C1

>  <path>  (514) 
/opt/xchem-fragalysis-2/maxwin/BulkDock/TARGETS/A71EV2A/aligned_files/A4914a/A4914a.pdb

>  <distance_score>  (514) 
None

>  <energy_score>  (514) 
None

>  <compound>  (514) 
MYIKGEYXRPOTHW-UHFFFAOYSA-N

>  <compound_id>  (514) 
381

>  <target>  (514) 
A71EV2A

>  <tags>  (514) 
['GOOD count', 'MEDIOCRE count', '[Other] S1 site', 'hits', '[Other] S2 site', '[Other] P3 compound design', '[Series] Piperidine series', 'Main status', '[Other] upload_2 2025-02-28', 'BAD count']

>  <inspirations>  (514) 
None

>  <subsites>  (514) 
None

>  <reference>  (514) 


>  <observation_longname>  (514) 
A71EV2A-x4914_A_201_v2

>  <ConformerSites alias>  (514) 
1b - A0911/A/147

>  <CanonSites alias>  (514) 
1 - Active Site

>  <CrystalformSites alias>  (514) 
F8h - A0884/A/147

>  <Quatassemblies alias>  (514) 
A1 - monomer

>  <Crystalforms alias>  (514) 
F8 - A712A_x4271_2.1_refmac1_1st_ref

>  <ConformerSites upload name>  (514) 
1b - A71EV2A-x0911/A/147

>  <CanonSites upload name>  (514) 
1 - A71EV2A-x0911/A/147/1

>  <CrystalformSites upload name>  (514) 
F8h - A71EV2A-x0884/A/147/1

>  <Quatassemblies upload name>  (514) 
A1 - monomer

>  <Crystalforms upload name>  (514) 
F8 - A712A_x4271_2.1_refmac1_1st_ref

>  <ConformerSites short tag>  (514) 
1b - A0911/A/147

>  <CanonSites short tag>  (514) 
1 - A0911/A/147/1

>  <CrystalformSites short tag>  (514) 
F8h - A0884/A/147

>  <Quatassemblies short tag>  (514) 
A1 - monomer

>  <Crystalforms short tag>  (514) 
F8 - A712A_x4271_2.1_refmac1_1st_ref

>  <Centroid res>  (514) 
A71EV2A-x0911/A/133/A_v1

>  <Experiment code>  (514) 
A71EV2A-x4914

>  <Pose>  (514) 
A4914a

$$$$
A4921a
     RDKit          3D

 18 19  0  0  0  0  0  0  0  0999 V2000
   10.0830    9.2490   23.0970 Cl  0  0  0  0  0  0  0  0  0  0  0  0
    9.0860   10.5030   23.7920 C   0  0  0  0  0  0  0  0  0  0  0  0
    8.0430   10.1440   24.6080 C   0  0  0  0  0  0  0  0  0  0  0  0
    7.3070   11.1390   25.2220 C   0  0  0  0  0  0  0  0  0  0  0  0
    7.6270   12.4700   25.0250 C   0  0  0  0  0  0  0  0  0  0  0  0
    9.4060   11.8330   23.5610 C   0  0  0  0  0  0  0  0  0  0  0  0
    8.6750   12.8360   24.1950 C   0  0  0  0  0  0  0  0  0  0  0  0
    8.9960   14.3050   24.0250 C   0  0  0  0  0  0  0  0  0  0  0  0
   10.1620   14.6180   23.2010 N   0  0  0  0  0  0  0  0  0  0  0  0
   11.3780   14.7350   23.7990 C   0  0  0  0  0  0  0  0  0  0  0  0
   11.5330   14.6520   25.0130 O   0  0  0  0  0  0  0  0  0  0  0  0
   12.5480   15.0510   22.9100 C   0  0  0  0  0  0  0  0  0  0  0  0
   12.1610   15.6860   21.5710 C   0  0  0  0  0  0  0  0  0  0  0  0
    9.8270   14.8790   21.7930 C   0  0  0  0  0  0  0  0  0  0  0  0
   11.0640   14.8610   20.8870 C   0  0  1  0  0  0  0  0  0  0  0  0
   10.8150   15.3390   19.4640 C   0  0  0  0  0  0  0  0  0  0  0  0
   10.3160   16.4480   19.2380 O   0  0  0  0  0  0  0  0  0  0  0  0
   11.1490   14.4880   18.4940 N   0  0  0  0  0  0  0  0  0  0  0  0
 18 16  1  0
 17 16  2  0
 15 16  1  6
 15 13  1  0
 13 12  1  0
 12 10  1  0
 11 10  2  0
 10  9  1  0
  9  8  1  0
  8  7  1  0
  7  5  1  0
  5  4  2  0
  4  3  1  0
  3  2  2  0
  2  1  1  0
  6  2  1  0
  7  6  2  0
 14  9  1  0
 15 14  1  0
M  END
>  <id>  (515) 
515

>  <inchikey>  (515) 
XCIJOFUOZLCWIY-JTQLQIEISA-N

>  <alias>  (515) 
A4921a

>  <smiles>  (515) 
NC(=O)[C@H]1CCC(=O)N(Cc2cccc(Cl)c2)C1

>  <path>  (515) 
/opt/xchem-fragalysis-2/maxwin/BulkDock/TARGETS/A71EV2A/aligned_files/A4921a/A4921a.pdb

>  <distance_score>  (515) 
None

>  <energy_score>  (515) 
None

>  <compound>  (515) 
XCIJOFUOZLCWIY-UHFFFAOYSA-N

>  <compound_id>  (515) 
382

>  <target>  (515) 
A71EV2A

>  <tags>  (515) 
['GOOD count', 'MEDIOCRE count', '[Other] S1 site', 'hits', '[Other] S2 site', '[Other] P3 compound design', '[Other] upload_1 2025-02-12', 'Main status', '[Series] Piperidine series', 'BAD count']

>  <inspirations>  (515) 
None

>  <subsites>  (515) 
None

>  <reference>  (515) 


>  <observation_longname>  (515) 
A71EV2A-x4921_A_201_v1

>  <ConformerSites alias>  (515) 
1b - A0911/A/147

>  <CanonSites alias>  (515) 
1 - Active Site

>  <CrystalformSites alias>  (515) 
F1a - A0375/A/201

>  <Quatassemblies alias>  (515) 
A1 - monomer

>  <Crystalforms alias>  (515) 
F1 - A71_2A_open

>  <ConformerSites upload name>  (515) 
1b - A71EV2A-x0911/A/147

>  <CanonSites upload name>  (515) 
1 - A71EV2A-x0911/A/147/1

>  <CrystalformSites upload name>  (515) 
F1a - A71EV2A-x0375/A/201/1

>  <Quatassemblies upload name>  (515) 
A1 - monomer

>  <Crystalforms upload name>  (515) 
F1 - A71_2A_open

>  <ConformerSites short tag>  (515) 
1b - A0911/A/147

>  <CanonSites short tag>  (515) 
1 - A0911/A/147/1

>  <CrystalformSites short tag>  (515) 
F1a - A0375/A/201

>  <Quatassemblies short tag>  (515) 
A1 - monomer

>  <Crystalforms short tag>  (515) 
F1 - A71_2A_open

>  <Centroid res>  (515) 
A71EV2A-x0911/A/133/A_v1

>  <Experiment code>  (515) 
A71EV2A-x4921

>  <Pose>  (515) 
A4921a

$$$$
A4922a
     RDKit          3D

 18 19  0  0  0  0  0  0  0  0999 V2000
   11.3970   14.1030   25.1720 O   0  0  0  0  0  0  0  0  0  0  0  0
   11.2020   14.4120   24.0090 C   0  0  0  0  0  0  0  0  0  0  0  0
   12.2840   15.1050   23.2260 C   0  0  0  0  0  0  0  0  0  0  0  0
   11.8020   15.7880   21.9520 C   0  0  0  0  0  0  0  0  0  0  0  0
   10.9570   14.8050   21.1380 C   0  0  2  0  0  0  0  0  0  0  0  0
   10.6960   15.3410   19.7410 C   0  0  0  0  0  0  0  0  0  0  0  0
   10.1610   16.4400   19.5680 O   0  0  0  0  0  0  0  0  0  0  0  0
   11.0930   14.5710   18.7390 N   0  0  0  0  0  0  0  0  0  0  0  0
    9.7030   14.4660   21.9580 C   0  0  0  0  0  0  0  0  0  0  0  0
   10.0030   14.1560   23.3840 N   0  0  0  0  0  0  0  0  0  0  0  0
    8.9540   13.5660   24.1680 C   0  0  0  0  0  0  0  0  0  0  0  0
    8.7670   12.1800   24.2240 C   0  0  0  0  0  0  0  0  0  0  0  0
    9.9230   11.1810   23.3390 S   0  0  0  0  0  0  0  0  0  0  0  0
    9.3450    9.5160   23.5900 C   0  0  0  0  0  0  0  0  0  0  0  0
    8.1590   14.3960   24.9570 C   0  0  0  0  0  0  0  0  0  0  0  0
    7.1840   13.8470   25.7730 C   0  0  0  0  0  0  0  0  0  0  0  0
    6.9820   12.4790   25.8010 C   0  0  0  0  0  0  0  0  0  0  0  0
    7.7660   11.6380   25.0260 C   0  0  0  0  0  0  0  0  0  0  0  0
 14 13  1  0
 13 12  1  0
 12 18  2  0
 18 17  1  0
 17 16  2  0
 16 15  1  0
 15 11  2  0
 12 11  1  0
 11 10  1  0
 10  9  1  0
  9  5  1  0
  5  6  1  6
  8  6  1  0
  7  6  2  0
  5  4  1  0
  4  3  1  0
  3  2  1  0
 10  2  1  0
  2  1  2  0
M  END
>  <id>  (516) 
516

>  <inchikey>  (516) 
XFDPKKNIFJSWGV-VIFPVBQESA-N

>  <alias>  (516) 
A4922a

>  <smiles>  (516) 
CSc1ccccc1N1C[C@@H](C(N)=O)CCC1=O

>  <path>  (516) 
/opt/xchem-fragalysis-2/maxwin/BulkDock/TARGETS/A71EV2A/aligned_files/A4922a/A4922a.pdb

>  <distance_score>  (516) 
None

>  <energy_score>  (516) 
None

>  <compound>  (516) 
XFDPKKNIFJSWGV-UHFFFAOYSA-N

>  <compound_id>  (516) 
383

>  <target>  (516) 
A71EV2A

>  <tags>  (516) 
['GOOD count', 'MEDIOCRE count', '[Other] S1 site', 'hits', '[Other] S2 site', '[Other] upload_6_2025-02-13', '[Other] P3 compound design', '[Other] upload_1 2025-02-12', 'Main status', '[Series] Piperidine series', 'BAD count']

>  <inspirations>  (516) 
None

>  <subsites>  (516) 
None

>  <reference>  (516) 


>  <observation_longname>  (516) 
A71EV2A-x4922_A_201_v1

>  <ConformerSites alias>  (516) 
1b - A0911/A/147

>  <CanonSites alias>  (516) 
1 - Active Site

>  <CrystalformSites alias>  (516) 
F8h - A0884/A/147

>  <Quatassemblies alias>  (516) 
A1 - monomer

>  <Crystalforms alias>  (516) 
F8 - A712A_x4271_2.1_refmac1_1st_ref

>  <ConformerSites upload name>  (516) 
1b - A71EV2A-x0911/A/147

>  <CanonSites upload name>  (516) 
1 - A71EV2A-x0911/A/147/1

>  <CrystalformSites upload name>  (516) 
F8h - A71EV2A-x0884/A/147/1

>  <Quatassemblies upload name>  (516) 
A1 - monomer

>  <Crystalforms upload name>  (516) 
F8 - A712A_x4271_2.1_refmac1_1st_ref

>  <ConformerSites short tag>  (516) 
1b - A0911/A/147

>  <CanonSites short tag>  (516) 
1 - A0911/A/147/1

>  <CrystalformSites short tag>  (516) 
F8h - A0884/A/147

>  <Quatassemblies short tag>  (516) 
A1 - monomer

>  <Crystalforms short tag>  (516) 
F8 - A712A_x4271_2.1_refmac1_1st_ref

>  <Centroid res>  (516) 
A71EV2A-x0911/A/133/A_v1

>  <Experiment code>  (516) 
A71EV2A-x4922

>  <Pose>  (516) 
A4922a

$$$$
A4926a
     RDKit          3D

 22 24  0  0  0  0  0  0  0  0999 V2000
    9.7090   11.7430   22.6280 F   0  0  0  0  0  0  0  0  0  0  0  0
    8.8410   11.5470   23.6540 C   0  0  0  0  0  0  0  0  0  0  0  0
    8.6020   10.2410   24.0400 C   0  0  0  0  0  0  0  0  0  0  0  0
    7.6150    9.9740   24.9770 C   0  0  0  0  0  0  0  0  0  0  0  0
    6.9350   11.0540   25.5180 C   0  0  0  0  0  0  0  0  0  0  0  0
    7.2020   12.3710   25.1400 C   0  0  0  0  0  0  0  0  0  0  0  0
    6.3640   13.2440   25.8230 N   0  0  0  0  0  0  0  0  0  0  0  0
    5.9080   11.1440   26.4490 N   0  0  0  0  0  0  0  0  0  0  0  0
    5.6110   12.4650   26.5980 C   0  0  0  0  0  0  0  0  0  0  0  0
    4.5580   12.9520   27.5290 C   0  0  0  0  0  0  0  0  0  0  0  0
    8.1840   12.6570   24.1780 C   0  0  0  0  0  0  0  0  0  0  0  0
    8.4270   14.0810   23.7180 C   0  0  0  0  0  0  0  0  0  0  0  0
    9.6900   14.3700   23.0380 N   0  0  0  0  0  0  0  0  0  0  0  0
   10.8440   14.4250   23.7480 C   0  0  0  0  0  0  0  0  0  0  0  0
   10.8900   14.1860   24.9450 O   0  0  0  0  0  0  0  0  0  0  0  0
   12.0900   14.8640   23.0210 C   0  0  0  0  0  0  0  0  0  0  0  0
   11.8430   15.4950   21.6540 C   0  0  0  0  0  0  0  0  0  0  0  0
   10.8260   14.6630   20.8550 C   0  0  1  0  0  0  0  0  0  0  0  0
    9.4980   14.7050   21.6210 C   0  0  0  0  0  0  0  0  0  0  0  0
   10.6880   15.1680   19.4300 C   0  0  0  0  0  0  0  0  0  0  0  0
   10.1270   16.2440   19.1830 O   0  0  0  0  0  0  0  0  0  0  0  0
   11.2440   14.4150   18.4930 N   0  0  0  0  0  0  0  0  0  0  0  0
 10  9  1  0
  9  7  2  0
  7  6  1  0
  6 11  1  0
 12 11  1  0
 13 12  1  0
 13 19  1  0
 19 18  1  0
 18 20  1  6
 22 20  1  0
 21 20  2  0
 18 17  1  0
 17 16  1  0
 16 14  1  0
 14 13  1  0
 15 14  2  0
 11  2  2  0
  2  1  1  0
  3  2  1  0
  4  3  2  0
  5  4  1  0
  6  5  2  0
  8  5  1  0
  9  8  1  0
M  END
>  <id>  (517) 
517

>  <inchikey>  (517) 
CDTVOSIPPPNCHX-VIFPVBQESA-N

>  <alias>  (517) 
A4926a

>  <smiles>  (517) 
Cc1nc2c(CN3C[C@@H](C(N)=O)CCC3=O)c(F)ccc2[nH]1

>  <path>  (517) 
/opt/xchem-fragalysis-2/maxwin/BulkDock/TARGETS/A71EV2A/aligned_files/A4926a/A4926a.pdb

>  <distance_score>  (517) 
None

>  <energy_score>  (517) 
None

>  <compound>  (517) 
CDTVOSIPPPNCHX-UHFFFAOYSA-N

>  <compound_id>  (517) 
384

>  <target>  (517) 
A71EV2A

>  <tags>  (517) 
['GOOD count', 'MEDIOCRE count', '[Other] S1 site', 'hits', '[Other] upload_3 2025-03-06', '[Other] S2 site', '[Other] P3 compound design', '[Series] Piperidine series', 'Main status', 'BAD count']

>  <inspirations>  (517) 
None

>  <subsites>  (517) 
None

>  <reference>  (517) 


>  <observation_longname>  (517) 
A71EV2A-x4926_A_201_v3

>  <ConformerSites alias>  (517) 
1b - A0911/A/147

>  <CanonSites alias>  (517) 
1 - Active Site

>  <CrystalformSites alias>  (517) 
F5i - A3175/A/201

>  <Quatassemblies alias>  (517) 
A1 - monomer

>  <Crystalforms alias>  (517) 
F5 - A71EV2A_x3178_new_long_dials_041024

>  <ConformerSites upload name>  (517) 
1b - A71EV2A-x0911/A/147

>  <CanonSites upload name>  (517) 
1 - A71EV2A-x0911/A/147/1

>  <CrystalformSites upload name>  (517) 
F5i - A71EV2A-x3175/A/201/1

>  <Quatassemblies upload name>  (517) 
A1 - monomer

>  <Crystalforms upload name>  (517) 
F5 - A71EV2A_x3178_new_long_dials_041024

>  <ConformerSites short tag>  (517) 
1b - A0911/A/147

>  <CanonSites short tag>  (517) 
1 - A0911/A/147/1

>  <CrystalformSites short tag>  (517) 
F5i - A3175/A/201

>  <Quatassemblies short tag>  (517) 
A1 - monomer

>  <Crystalforms short tag>  (517) 
F5 - A71EV2A_x3178_new_long_dials_041024

>  <Centroid res>  (517) 
A71EV2A-x0911/A/133/A_v1

>  <Experiment code>  (517) 
A71EV2A-x4926

>  <Pose>  (517) 
A4926a

$$$$
A4928a
     RDKit          3D

 18 19  0  0  0  0  0  0  0  0999 V2000
   11.4260   14.5490   25.0210 O   0  0  0  0  0  0  0  0  0  0  0  0
   11.3220   14.6410   23.8060 C   0  0  0  0  0  0  0  0  0  0  0  0
   12.5360   14.9730   22.9800 C   0  0  0  0  0  0  0  0  0  0  0  0
   12.2670   15.4590   21.5520 C   0  0  0  0  0  0  0  0  0  0  0  0
   11.1180   14.6890   20.8970 C   0  0  2  0  0  0  0  0  0  0  0  0
   10.8150   15.2100   19.5020 C   0  0  0  0  0  0  0  0  0  0  0  0
   10.2280   16.2830   19.3330 O   0  0  0  0  0  0  0  0  0  0  0  0
   11.1610   14.4150   18.5040 N   0  0  0  0  0  0  0  0  0  0  0  0
    9.8550   14.7970   21.7580 C   0  0  0  0  0  0  0  0  0  0  0  0
   10.1350   14.5040   23.1690 N   0  0  0  0  0  0  0  0  0  0  0  0
    8.9240   14.2270   23.9360 C   0  0  0  0  0  0  0  0  0  0  0  0
    8.5270   12.7750   24.0880 C   0  0  0  0  0  0  0  0  0  0  0  0
    7.5000   12.4500   24.9610 C   0  0  0  0  0  0  0  0  0  0  0  0
    7.1730   11.1290   25.2030 C   0  0  0  0  0  0  0  0  0  0  0  0
    7.8710   10.1170   24.5680 C   0  0  0  0  0  0  0  0  0  0  0  0
    9.2000   11.7410   23.4370 C   0  0  0  0  0  0  0  0  0  0  0  0
    8.8870   10.4050   23.6730 C   0  0  0  0  0  0  0  0  0  0  0  0
    9.6840    9.2920   23.0310 C   0  0  0  0  0  0  0  0  0  0  0  0
 18 17  1  0
 17 15  2  0
 15 14  1  0
 14 13  2  0
 13 12  1  0
 12 11  1  0
 11 10  1  0
 10  9  1  0
  9  5  1  0
  5  6  1  6
  8  6  1  0
  7  6  2  0
  5  4  1  0
  4  3  1  0
  3  2  1  0
 10  2  1  0
  2  1  2  0
 16 12  2  0
 17 16  1  0
M  END
>  <id>  (518) 
518

>  <inchikey>  (518) 
UGHGVHZNFADSPL-LBPRGKRZSA-N

>  <alias>  (518) 
A4928a

>  <smiles>  (518) 
Cc1cccc(CN2C[C@@H](C(N)=O)CCC2=O)c1

>  <path>  (518) 
/opt/xchem-fragalysis-2/maxwin/BulkDock/TARGETS/A71EV2A/aligned_files/A4928a/A4928a.pdb

>  <distance_score>  (518) 
None

>  <energy_score>  (518) 
None

>  <compound>  (518) 
UGHGVHZNFADSPL-UHFFFAOYSA-N

>  <compound_id>  (518) 
385

>  <target>  (518) 
A71EV2A

>  <tags>  (518) 
['GOOD count', 'MEDIOCRE count', '[Other] S1 site', 'hits', '[Other] S2 site', '[Other] upload_6_2025-02-13', '[Other] P3 compound design', '[Other] upload_1 2025-02-12', 'Main status', '[Series] Piperidine series', 'BAD count']

>  <inspirations>  (518) 
None

>  <subsites>  (518) 
None

>  <reference>  (518) 


>  <observation_longname>  (518) 
A71EV2A-x4928_A_201_v1

>  <ConformerSites alias>  (518) 
1b - A0911/A/147

>  <CanonSites alias>  (518) 
1 - Active Site

>  <CrystalformSites alias>  (518) 
F1a - A0375/A/201

>  <Quatassemblies alias>  (518) 
A1 - monomer

>  <Crystalforms alias>  (518) 
F1 - A71_2A_open

>  <ConformerSites upload name>  (518) 
1b - A71EV2A-x0911/A/147

>  <CanonSites upload name>  (518) 
1 - A71EV2A-x0911/A/147/1

>  <CrystalformSites upload name>  (518) 
F1a - A71EV2A-x0375/A/201/1

>  <Quatassemblies upload name>  (518) 
A1 - monomer

>  <Crystalforms upload name>  (518) 
F1 - A71_2A_open

>  <ConformerSites short tag>  (518) 
1b - A0911/A/147

>  <CanonSites short tag>  (518) 
1 - A0911/A/147/1

>  <CrystalformSites short tag>  (518) 
F1a - A0375/A/201

>  <Quatassemblies short tag>  (518) 
A1 - monomer

>  <Crystalforms short tag>  (518) 
F1 - A71_2A_open

>  <Centroid res>  (518) 
A71EV2A-x0911/A/133/A_v1

>  <Experiment code>  (518) 
A71EV2A-x4928

>  <Pose>  (518) 
A4928a

$$$$
A4934a
     RDKit          3D

 23 25  0  0  0  0  0  0  0  0999 V2000
   10.7850   14.6070   25.1990 O   0  0  0  0  0  0  0  0  0  0  0  0
   10.7930   14.7680   23.9740 C   0  0  0  0  0  0  0  0  0  0  0  0
   12.0520   15.2040   23.2530 C   0  0  0  0  0  0  0  0  0  0  0  0
   11.8690   15.7640   21.8350 C   0  0  0  0  0  0  0  0  0  0  0  0
    9.6820   14.5990   23.2190 N   0  0  0  0  0  0  0  0  0  0  0  0
    9.5340   14.8690   21.7790 C   0  0  0  0  0  0  0  0  0  0  0  0
   10.8770   14.9000   21.0340 C   0  0  1  0  0  0  0  0  0  0  0  0
   10.7000   15.4140   19.6120 C   0  0  0  0  0  0  0  0  0  0  0  0
   10.2330   16.5380   19.3920 O   0  0  0  0  0  0  0  0  0  0  0  0
   11.0170   14.5730   18.6410 N   0  0  0  0  0  0  0  0  0  0  0  0
    8.4520   14.1310   23.8680 C   0  0  0  0  0  0  0  0  0  0  0  0
    8.3880   12.6280   24.0430 C   0  0  0  0  0  0  0  0  0  0  0  0
    7.3830   12.0160   24.8100 C   0  0  0  0  0  0  0  0  0  0  0  0
    7.3980   10.6290   24.9710 C   0  0  0  0  0  0  0  0  0  0  0  0
    8.3710    9.8580   24.3660 C   0  0  0  0  0  0  0  0  0  0  0  0
    9.3580   10.4510   23.6240 C   0  0  0  0  0  0  0  0  0  0  0  0
    9.3720   11.8240   23.4620 C   0  0  0  0  0  0  0  0  0  0  0  0
    6.2870   12.7680   25.4810 C   0  0  0  0  0  0  0  0  0  0  0  0
    5.3810   13.5540   24.7700 C   0  0  0  0  0  0  0  0  0  0  0  0
    4.2810   14.0990   25.2990 N   0  0  0  0  0  0  0  0  0  0  0  0
    4.0470   13.8730   26.5970 C   0  0  0  0  0  0  0  0  0  0  0  0
    4.8820   13.1260   27.3960 C   0  0  0  0  0  0  0  0  0  0  0  0
    6.0120   12.5690   26.8270 C   0  0  0  0  0  0  0  0  0  0  0  0
 10  8  1  0
  9  8  2  0
  7  8  1  6
  7  4  1  0
  4  3  1  0
  3  2  1  0
  2  1  2  0
  5  2  1  0
 11  5  1  0
 12 11  1  0
 12 17  1  0
 17 16  2  0
 16 15  1  0
 15 14  2  0
 14 13  1  0
 13 12  2  0
 18 13  1  0
 18 23  2  0
 23 22  1  0
 22 21  2  0
 21 20  1  0
 20 19  2  0
 19 18  1  0
  6  5  1  0
  7  6  1  0
M  END
>  <id>  (519) 
519

>  <inchikey>  (519) 
BENGMPPJNGGMDU-HNNXBMFYSA-N

>  <alias>  (519) 
A4934a

>  <smiles>  (519) 
NC(=O)[C@H]1CCC(=O)N(Cc2ccccc2-c2cccnc2)C1

>  <path>  (519) 
/opt/xchem-fragalysis-2/maxwin/BulkDock/TARGETS/A71EV2A/aligned_files/A4934a/A4934a.pdb

>  <distance_score>  (519) 
None

>  <energy_score>  (519) 
None

>  <compound>  (519) 
BENGMPPJNGGMDU-UHFFFAOYSA-N

>  <compound_id>  (519) 
386

>  <target>  (519) 
A71EV2A

>  <tags>  (519) 
['GOOD count', 'MEDIOCRE count', '[Other] S1 site', 'hits', '[Other] S2 site', '[Other] P3 compound design', '[Other] upload_1 2025-02-12', 'Main status', '[Series] Piperidine series', 'BAD count']

>  <inspirations>  (519) 
None

>  <subsites>  (519) 
None

>  <reference>  (519) 


>  <observation_longname>  (519) 
A71EV2A-x4934_A_201_v1

>  <ConformerSites alias>  (519) 
1b - A0911/A/147

>  <CanonSites alias>  (519) 
1 - Active Site

>  <CrystalformSites alias>  (519) 
F8h - A0884/A/147

>  <Quatassemblies alias>  (519) 
A1 - monomer

>  <Crystalforms alias>  (519) 
F8 - A712A_x4271_2.1_refmac1_1st_ref

>  <ConformerSites upload name>  (519) 
1b - A71EV2A-x0911/A/147

>  <CanonSites upload name>  (519) 
1 - A71EV2A-x0911/A/147/1

>  <CrystalformSites upload name>  (519) 
F8h - A71EV2A-x0884/A/147/1

>  <Quatassemblies upload name>  (519) 
A1 - monomer

>  <Crystalforms upload name>  (519) 
F8 - A712A_x4271_2.1_refmac1_1st_ref

>  <ConformerSites short tag>  (519) 
1b - A0911/A/147

>  <CanonSites short tag>  (519) 
1 - A0911/A/147/1

>  <CrystalformSites short tag>  (519) 
F8h - A0884/A/147

>  <Quatassemblies short tag>  (519) 
A1 - monomer

>  <Crystalforms short tag>  (519) 
F8 - A712A_x4271_2.1_refmac1_1st_ref

>  <Centroid res>  (519) 
A71EV2A-x0911/A/133/A_v1

>  <Experiment code>  (519) 
A71EV2A-x4934

>  <Pose>  (519) 
A4934a

$$$$
A4963a
     RDKit          3D

 23 25  0  0  0  0  0  0  0  0999 V2000
    9.3330   13.6440   25.0100 O   0  0  0  0  0  0  0  0  0  0  0  0
    8.9530   13.7860   23.8570 C   0  0  0  0  0  0  0  0  0  0  0  0
    7.6220   13.1980   23.4420 C   0  0  0  0  0  0  0  0  0  0  0  0
    7.2100   12.1840   24.4850 C   0  0  0  0  0  0  0  0  0  0  0  0
    7.6590   10.8650   24.4020 C   0  0  0  0  0  0  0  0  0  0  0  0
    8.7340   10.6740   23.5710 O   0  0  0  0  0  0  0  0  0  0  0  0
    9.2490    9.3490   23.4180 C   0  0  0  0  0  0  0  0  0  0  0  0
    7.0900    9.8680   25.1890 C   0  0  0  0  0  0  0  0  0  0  0  0
    6.1210   10.2050   26.1240 C   0  0  0  0  0  0  0  0  0  0  0  0
    5.7450   11.5230   26.2920 C   0  0  0  0  0  0  0  0  0  0  0  0
    6.2810   12.5070   25.4760 C   0  0  0  0  0  0  0  0  0  0  0  0
    9.6730   14.4400   22.9110 N   0  0  0  0  0  0  0  0  0  0  0  0
    9.2820   14.6900   21.5340 C   0  0  0  0  0  0  0  0  0  0  0  0
   10.5530   15.3220   20.9460 C   0  0  2  0  0  0  0  0  0  0  0  0
   10.7600   16.3130   22.1450 C   0  0  0  0  0  0  0  0  0  0  0  0
   10.6010   15.7100   19.4720 C   0  0  0  0  0  0  0  0  0  0  0  0
   10.3330   16.8570   19.1240 O   0  0  0  0  0  0  0  0  0  0  0  0
   10.9160   14.7580   18.6040 N   0  0  0  0  0  0  0  0  0  0  0  0
   11.5920   14.3840   21.6630 C   0  0  0  0  0  0  0  0  0  0  0  0
   11.0310   15.0210   22.9570 C   0  0  2  0  0  0  0  0  0  0  0  0
   11.7770   15.0690   24.2890 C   0  0  0  0  0  0  0  0  0  0  0  0
   11.0250   15.8910   25.1690 O   0  0  0  0  0  0  0  0  0  0  0  0
   11.4220   15.7290   26.5310 C   0  0  0  0  0  0  0  0  0  0  0  0
 23 22  1  0
 22 21  1  0
 20 21  1  1
 20 15  1  0
 15 14  1  0
 14 16  1  6
 18 16  1  0
 17 16  2  0
 14 13  1  0
 13 12  1  0
 20 12  1  0
 12  2  1  0
  2  1  2  0
  3  2  1  0
  4  3  1  0
  4 11  2  0
 11 10  1  0
 10  9  2  0
  9  8  1  0
  8  5  2  0
  5  4  1  0
  6  5  1  0
  7  6  1  0
 19 14  1  0
 20 19  1  0
M  END
>  <id>  (520) 
520

>  <inchikey>  (520) 
UCCVWOVHIIFTLD-QAQDUYKDSA-N

>  <alias>  (520) 
A4963a

>  <smiles>  (520) 
COC[C@]12C[C@](C(N)=O)(CN1C(=O)Cc1ccccc1OC)C2

>  <path>  (520) 
/opt/xchem-fragalysis-2/maxwin/BulkDock/TARGETS/A71EV2A/aligned_files/A4963a/A4963a_hippo.pdb

>  <distance_score>  (520) 
None

>  <energy_score>  (520) 
None

>  <compound>  (520) 
UCCVWOVHIIFTLD-UHFFFAOYSA-N

>  <compound_id>  (520) 
387

>  <target>  (520) 
A71EV2A

>  <tags>  (520) 
['GOOD count', 'MEDIOCRE count', '[Other] S1 site', 'hits', '[Other] S2 site', '[Other] upload_6_2025-02-13', '[Other] P3 compound design', '[Other] upload_1 2025-02-12', 'Main status', '[Series] Piperidine series', 'BAD count']

>  <inspirations>  (520) 
None

>  <subsites>  (520) 
None

>  <reference>  (520) 


>  <observation_longname>  (520) 
A71EV2A-x4963_A_201_v1

>  <ConformerSites alias>  (520) 
1b - A0911/A/147

>  <CanonSites alias>  (520) 
1 - Active Site

>  <CrystalformSites alias>  (520) 
F7q - A4303/A/201

>  <Quatassemblies alias>  (520) 
A1 - monomer

>  <Crystalforms alias>  (520) 
F7 - A712A_x4207_8.1_refmac1_1st_ref

>  <ConformerSites upload name>  (520) 
1b - A71EV2A-x0911/A/147

>  <CanonSites upload name>  (520) 
1 - A71EV2A-x0911/A/147/1

>  <CrystalformSites upload name>  (520) 
F7q - A71EV2A-x4303/A/201/1

>  <Quatassemblies upload name>  (520) 
A1 - monomer

>  <Crystalforms upload name>  (520) 
F7 - A712A_x4207_8.1_refmac1_1st_ref

>  <ConformerSites short tag>  (520) 
1b - A0911/A/147

>  <CanonSites short tag>  (520) 
1 - A0911/A/147/1

>  <CrystalformSites short tag>  (520) 
F7q - A4303/A/201

>  <Quatassemblies short tag>  (520) 
A1 - monomer

>  <Crystalforms short tag>  (520) 
F7 - A712A_x4207_8.1_refmac1_1st_ref

>  <Centroid res>  (520) 
A71EV2A-x0911/A/133/A_v1

>  <Experiment code>  (520) 
A71EV2A-x4963

>  <Pose>  (520) 
A4963a

$$$$
A4963b
     RDKit          3D

 23 25  0  0  0  0  0  0  0  0999 V2000
    9.7470   13.5910   24.9230 O   0  0  0  0  0  0  0  0  0  0  0  0
    9.2800   13.8180   23.8090 C   0  0  0  0  0  0  0  0  0  0  0  0
    7.9140   13.2810   23.4330 C   0  0  0  0  0  0  0  0  0  0  0  0
    7.4680   12.2920   24.4860 C   0  0  0  0  0  0  0  0  0  0  0  0
    7.8620   10.9560   24.4150 C   0  0  0  0  0  0  0  0  0  0  0  0
    8.9280   10.7110   23.5860 O   0  0  0  0  0  0  0  0  0  0  0  0
    9.2560    9.3480   23.3060 C   0  0  0  0  0  0  0  0  0  0  0  0
    7.2930   10.0000   25.2550 C   0  0  0  0  0  0  0  0  0  0  0  0
    6.4020   10.3980   26.2410 C   0  0  0  0  0  0  0  0  0  0  0  0
    6.0750   11.7320   26.3840 C   0  0  0  0  0  0  0  0  0  0  0  0
    6.5980   12.6710   25.5080 C   0  0  0  0  0  0  0  0  0  0  0  0
    9.9460   14.5090   22.8620 N   0  0  0  0  0  0  0  0  0  0  0  0
    9.5240   14.7620   21.5010 C   0  0  0  0  0  0  0  0  0  0  0  0
   10.7870   15.4020   20.9020 C   0  0  2  0  0  0  0  0  0  0  0  0
   11.0280   16.3850   22.1030 C   0  0  0  0  0  0  0  0  0  0  0  0
   10.7480   15.8320   19.4540 C   0  0  0  0  0  0  0  0  0  0  0  0
   10.4390   16.9890   19.1660 O   0  0  0  0  0  0  0  0  0  0  0  0
   11.0520   14.9090   18.5470 N   0  0  0  0  0  0  0  0  0  0  0  0
   11.8180   14.4450   21.5840 C   0  0  0  0  0  0  0  0  0  0  0  0
   11.3020   15.0850   22.8970 C   0  0  2  0  0  0  0  0  0  0  0  0
   12.0900   15.1210   24.2030 C   0  0  0  0  0  0  0  0  0  0  0  0
   11.4160   16.0610   25.0310 O   0  0  0  0  0  0  0  0  0  0  0  0
   11.8390   15.9810   26.3890 C   0  0  0  0  0  0  0  0  0  0  0  0
 23 22  1  0
 22 21  1  0
 20 21  1  1
 20 15  1  0
 15 14  1  0
 14 16  1  6
 18 16  1  0
 17 16  2  0
 14 13  1  0
 13 12  1  0
 20 12  1  0
 12  2  1  0
  2  1  2  0
  3  2  1  0
  4  3  1  0
  4 11  2  0
 11 10  1  0
 10  9  2  0
  9  8  1  0
  8  5  2  0
  5  4  1  0
  6  5  1  0
  7  6  1  0
 19 14  1  0
 20 19  1  0
M  END
>  <id>  (521) 
521

>  <inchikey>  (521) 
UCCVWOVHIIFTLD-QAQDUYKDSA-N

>  <alias>  (521) 
A4963b

>  <smiles>  (521) 
COC[C@]12C[C@](C(N)=O)(CN1C(=O)Cc1ccccc1OC)C2

>  <path>  (521) 
/opt/xchem-fragalysis-2/maxwin/BulkDock/TARGETS/A71EV2A/aligned_files/A4963b/A4963b.pdb

>  <distance_score>  (521) 
None

>  <energy_score>  (521) 
None

>  <compound>  (521) 
UCCVWOVHIIFTLD-UHFFFAOYSA-N

>  <compound_id>  (521) 
387

>  <target>  (521) 
A71EV2A

>  <tags>  (521) 
['GOOD count', 'MEDIOCRE count', '[Other] S1 site', 'hits', '[Other] S2 site', '[Other] upload_6_2025-02-13', '[Other] P3 compound design', '[Other] upload_1 2025-02-12', 'Main status', '[Series] Piperidine series', 'BAD count']

>  <inspirations>  (521) 
None

>  <subsites>  (521) 
None

>  <reference>  (521) 


>  <observation_longname>  (521) 
A71EV2A-x4963_C_201_v1

>  <ConformerSites alias>  (521) 
1b - A0911/A/147

>  <CanonSites alias>  (521) 
1 - Active Site

>  <CrystalformSites alias>  (521) 
F7r - A4303/C/201

>  <Quatassemblies alias>  (521) 
A1 - monomer

>  <Crystalforms alias>  (521) 
F7 - A712A_x4207_8.1_refmac1_1st_ref

>  <ConformerSites upload name>  (521) 
1b - A71EV2A-x0911/A/147

>  <CanonSites upload name>  (521) 
1 - A71EV2A-x0911/A/147/1

>  <CrystalformSites upload name>  (521) 
F7r - A71EV2A-x4303/C/201/1

>  <Quatassemblies upload name>  (521) 
A1 - monomer

>  <Crystalforms upload name>  (521) 
F7 - A712A_x4207_8.1_refmac1_1st_ref

>  <ConformerSites short tag>  (521) 
1b - A0911/A/147

>  <CanonSites short tag>  (521) 
1 - A0911/A/147/1

>  <CrystalformSites short tag>  (521) 
F7r - A4303/C/201

>  <Quatassemblies short tag>  (521) 
A1 - monomer

>  <Crystalforms short tag>  (521) 
F7 - A712A_x4207_8.1_refmac1_1st_ref

>  <Centroid res>  (521) 
A71EV2A-x0911/A/133/A_v1

>  <Experiment code>  (521) 
A71EV2A-x4963

>  <Pose>  (521) 
A4963a

$$$$
A4967a
     RDKit          3D

 24 26  0  0  0  0  0  0  0  0999 V2000
   10.3180   16.7290   19.2380 O   0  0  0  0  0  0  0  0  0  0  0  0
   10.6020   15.5520   19.4940 C   0  0  0  0  0  0  0  0  0  0  0  0
   10.9370   14.6710   18.5630 N   0  0  0  0  0  0  0  0  0  0  0  0
   10.5600   15.0260   20.9180 C   0  0  2  0  0  0  0  0  0  0  0  0
    9.3070   15.4270   21.7030 C   0  0  0  0  0  0  0  0  0  0  0  0
   11.8360   15.3650   21.7220 C   0  0  0  0  0  0  0  0  0  0  0  0
   11.5850   16.0340   23.0770 C   0  0  1  0  0  0  0  0  0  0  0  0
   10.5120   15.2700   23.8670 C   0  0  1  0  0  0  0  0  0  0  0  0
   10.0870   16.1250   25.0610 C   0  0  0  0  0  0  0  0  0  0  0  0
   11.3030   16.2500   26.0020 C   0  0  0  0  0  0  0  0  0  0  0  0
   12.5050   16.8960   25.2940 C   0  0  0  0  0  0  0  0  0  0  0  0
   12.8320   16.1880   23.9560 C   0  0  0  0  0  0  0  0  0  0  0  0
    9.3780   14.8130   23.0310 N   0  0  0  0  0  0  0  0  0  0  0  0
    8.5710   13.7660   23.3500 C   0  0  0  0  0  0  0  0  0  0  0  0
    7.6690   13.4000   22.6050 O   0  0  0  0  0  0  0  0  0  0  0  0
    8.8560   13.0260   24.6430 C   0  0  0  0  0  0  0  0  0  0  0  0
    7.8020   11.9830   24.9250 C   0  0  0  0  0  0  0  0  0  0  0  0
    7.9530   10.6710   24.4770 C   0  0  0  0  0  0  0  0  0  0  0  0
    9.0680   10.4530   23.7060 O   0  0  0  0  0  0  0  0  0  0  0  0
    9.3960    9.1110   23.3390 C   0  0  0  0  0  0  0  0  0  0  0  0
    6.7090   12.2390   25.7280 C   0  0  0  0  0  0  0  0  0  0  0  0
    5.8190   11.3250   26.1200 N   0  0  0  0  0  0  0  0  0  0  0  0
    6.0030   10.0770   25.6840 C   0  0  0  0  0  0  0  0  0  0  0  0
    7.0390    9.6960   24.8500 C   0  0  0  0  0  0  0  0  0  0  0  0
 20 19  1  0
 19 18  1  0
 18 24  2  0
 24 23  1  0
 23 22  2  0
 22 21  1  0
 21 17  2  0
 18 17  1  0
 17 16  1  0
 16 14  1  0
 15 14  2  0
 14 13  1  0
 13  5  1  0
  5  4  1  0
  4  2  1  6
  3  2  1  0
  2  1  2  0
  6  4  1  0
  7  6  1  6
  7 12  1  0
 12 11  1  0
 11 10  1  0
 10  9  1  0
  8  9  1  1
  8  7  1  0
 13  8  1  0
M  END
>  <id>  (522) 
522

>  <inchikey>  (522) 
MXUBGPXGMPSEFG-AEGPPILISA-N

>  <alias>  (522) 
A4967a

>  <smiles>  (522) 
COc1ccncc1CC(=O)N1C[C@@H](C(N)=O)C[C@@H]2CCCC[C@H]21

>  <path>  (522) 
/opt/xchem-fragalysis-2/maxwin/BulkDock/TARGETS/A71EV2A/aligned_files/A4967a/A4967a_hippo.pdb

>  <distance_score>  (522) 
None

>  <energy_score>  (522) 
None

>  <compound>  (522) 
MXUBGPXGMPSEFG-UHFFFAOYSA-N

>  <compound_id>  (522) 
388

>  <target>  (522) 
A71EV2A

>  <tags>  (522) 
['GOOD count', 'MEDIOCRE count', '[Other] S1 site', 'hits', '[Other] S2 site', '[Other] upload_6_2025-02-13', '[Other] P3 compound design', '[Series] Piperidine series', 'Main status', 'BAD count']

>  <inspirations>  (522) 
None

>  <subsites>  (522) 
None

>  <reference>  (522) 


>  <observation_longname>  (522) 
A71EV2A-x4967_A_201_v1

>  <ConformerSites alias>  (522) 
1b - A0911/A/147

>  <CanonSites alias>  (522) 
1 - Active Site

>  <CrystalformSites alias>  (522) 
F7q - A4303/A/201

>  <Quatassemblies alias>  (522) 
A1 - monomer

>  <Crystalforms alias>  (522) 
F7 - A712A_x4207_8.1_refmac1_1st_ref

>  <ConformerSites upload name>  (522) 
1b - A71EV2A-x0911/A/147

>  <CanonSites upload name>  (522) 
1 - A71EV2A-x0911/A/147/1

>  <CrystalformSites upload name>  (522) 
F7q - A71EV2A-x4303/A/201/1

>  <Quatassemblies upload name>  (522) 
A1 - monomer

>  <Crystalforms upload name>  (522) 
F7 - A712A_x4207_8.1_refmac1_1st_ref

>  <ConformerSites short tag>  (522) 
1b - A0911/A/147

>  <CanonSites short tag>  (522) 
1 - A0911/A/147/1

>  <CrystalformSites short tag>  (522) 
F7q - A4303/A/201

>  <Quatassemblies short tag>  (522) 
A1 - monomer

>  <Crystalforms short tag>  (522) 
F7 - A712A_x4207_8.1_refmac1_1st_ref

>  <Centroid res>  (522) 
A71EV2A-x0911/A/133/A_v1

>  <Experiment code>  (522) 
A71EV2A-x4967

>  <Pose>  (522) 
A4967a

$$$$
A4967b
     RDKit          3D

 24 26  0  0  0  0  0  0  0  0999 V2000
   10.3380   16.6530   19.3420 O   0  0  0  0  0  0  0  0  0  0  0  0
   10.6670   15.4690   19.5380 C   0  0  0  0  0  0  0  0  0  0  0  0
   10.9780   14.6230   18.5660 N   0  0  0  0  0  0  0  0  0  0  0  0
   10.7270   14.8980   20.9430 C   0  0  2  0  0  0  0  0  0  0  0  0
    9.5300   15.3390   21.7810 C   0  0  0  0  0  0  0  0  0  0  0  0
   12.0440   15.2710   21.6490 C   0  0  0  0  0  0  0  0  0  0  0  0
   11.8750   15.9430   23.0160 C   0  0  1  0  0  0  0  0  0  0  0  0
   10.8320   15.2100   23.8730 C   0  0  1  0  0  0  0  0  0  0  0  0
   10.4830   16.1010   25.0630 C   0  0  0  0  0  0  0  0  0  0  0  0
   11.7590   16.2470   25.9310 C   0  0  0  0  0  0  0  0  0  0  0  0
   12.9420   16.8350   25.1280 C   0  0  0  0  0  0  0  0  0  0  0  0
   13.1780   16.0630   23.8130 C   0  0  0  0  0  0  0  0  0  0  0  0
    9.6510   14.7320   23.1100 N   0  0  0  0  0  0  0  0  0  0  0  0
    8.8610   13.6730   23.4350 C   0  0  0  0  0  0  0  0  0  0  0  0
    7.9410   13.3040   22.7050 O   0  0  0  0  0  0  0  0  0  0  0  0
    9.1870   12.9290   24.7190 C   0  0  0  0  0  0  0  0  0  0  0  0
    8.1560   11.8770   25.0560 C   0  0  0  0  0  0  0  0  0  0  0  0
    8.2570   10.5790   24.5570 C   0  0  0  0  0  0  0  0  0  0  0  0
    9.2810   10.3700   23.6800 O   0  0  0  0  0  0  0  0  0  0  0  0
    9.5430    9.0260   23.2600 C   0  0  0  0  0  0  0  0  0  0  0  0
    7.1840   12.0930   26.0060 C   0  0  0  0  0  0  0  0  0  0  0  0
    6.3460   11.1650   26.4690 N   0  0  0  0  0  0  0  0  0  0  0  0
    6.4710    9.9400   25.9740 C   0  0  0  0  0  0  0  0  0  0  0  0
    7.4040    9.5870   25.0170 C   0  0  0  0  0  0  0  0  0  0  0  0
 20 19  1  0
 19 18  1  0
 18 24  2  0
 24 23  1  0
 23 22  2  0
 22 21  1  0
 21 17  2  0
 18 17  1  0
 17 16  1  0
 16 14  1  0
 15 14  2  0
 14 13  1  0
 13  5  1  0
  5  4  1  0
  4  2  1  6
  3  2  1  0
  2  1  2  0
  6  4  1  0
  7  6  1  6
  7 12  1  0
 12 11  1  0
 11 10  1  0
 10  9  1  0
  8  9  1  1
  8  7  1  0
 13  8  1  0
M  END
>  <id>  (523) 
523

>  <inchikey>  (523) 
MXUBGPXGMPSEFG-AEGPPILISA-N

>  <alias>  (523) 
A4967b

>  <smiles>  (523) 
COc1ccncc1CC(=O)N1C[C@@H](C(N)=O)C[C@@H]2CCCC[C@H]21

>  <path>  (523) 
/opt/xchem-fragalysis-2/maxwin/BulkDock/TARGETS/A71EV2A/aligned_files/A4967b/A4967b.pdb

>  <distance_score>  (523) 
None

>  <energy_score>  (523) 
None

>  <compound>  (523) 
MXUBGPXGMPSEFG-UHFFFAOYSA-N

>  <compound_id>  (523) 
388

>  <target>  (523) 
A71EV2A

>  <tags>  (523) 
['GOOD count', 'MEDIOCRE count', '[Other] S1 site', 'hits', '[Other] S2 site', '[Other] upload_6_2025-02-13', '[Other] P3 compound design', '[Series] Piperidine series', 'Main status', 'BAD count']

>  <inspirations>  (523) 
None

>  <subsites>  (523) 
None

>  <reference>  (523) 


>  <observation_longname>  (523) 
A71EV2A-x4967_C_201_v1

>  <ConformerSites alias>  (523) 
1b - A0911/A/147

>  <CanonSites alias>  (523) 
1 - Active Site

>  <CrystalformSites alias>  (523) 
F7r - A4303/C/201

>  <Quatassemblies alias>  (523) 
A1 - monomer

>  <Crystalforms alias>  (523) 
F7 - A712A_x4207_8.1_refmac1_1st_ref

>  <ConformerSites upload name>  (523) 
1b - A71EV2A-x0911/A/147

>  <CanonSites upload name>  (523) 
1 - A71EV2A-x0911/A/147/1

>  <CrystalformSites upload name>  (523) 
F7r - A71EV2A-x4303/C/201/1

>  <Quatassemblies upload name>  (523) 
A1 - monomer

>  <Crystalforms upload name>  (523) 
F7 - A712A_x4207_8.1_refmac1_1st_ref

>  <ConformerSites short tag>  (523) 
1b - A0911/A/147

>  <CanonSites short tag>  (523) 
1 - A0911/A/147/1

>  <CrystalformSites short tag>  (523) 
F7r - A4303/C/201

>  <Quatassemblies short tag>  (523) 
A1 - monomer

>  <Crystalforms short tag>  (523) 
F7 - A712A_x4207_8.1_refmac1_1st_ref

>  <Centroid res>  (523) 
A71EV2A-x0911/A/133/A_v1

>  <Experiment code>  (523) 
A71EV2A-x4967

>  <Pose>  (523) 
A4967a

$$$$
A4967c
     RDKit          3D

 24 26  0  0  0  0  0  0  0  0999 V2000
   -1.5140   15.6030   19.4200 O   0  0  0  0  0  0  0  0  0  0  0  0
   -1.1040   15.9270   20.5400 C   0  0  0  0  0  0  0  0  0  0  0  0
   -1.6080   16.9400   21.2240 N   0  0  0  0  0  0  0  0  0  0  0  0
    0.0640   15.2030   21.1900 C   0  0  2  0  0  0  0  0  0  0  0  0
    1.3600   15.7800   20.6030 C   0  0  0  0  0  0  0  0  0  0  0  0
    0.0070   13.6790   20.9640 C   0  0  0  0  0  0  0  0  0  0  0  0
    1.0950   13.1530   20.0180 C   0  0  1  0  0  0  0  0  0  0  0  0
    2.4910   13.5760   20.5080 C   0  0  1  0  0  0  0  0  0  0  0  0
    3.5300   13.2860   19.4240 C   0  0  0  0  0  0  0  0  0  0  0  0
    3.3200   11.9550   18.6720 C   0  0  0  0  0  0  0  0  0  0  0  0
    2.4020   10.9980   19.4310 C   0  0  0  0  0  0  0  0  0  0  0  0
    1.0320   11.6340   19.7830 C   0  0  0  0  0  0  0  0  0  0  0  0
    2.5320   14.9780   20.9860 N   0  0  0  0  0  0  0  0  0  0  0  0
    3.5400   15.5520   21.7010 C   0  0  0  0  0  0  0  0  0  0  0  0
    3.5210   16.7490   21.9430 O   0  0  0  0  0  0  0  0  0  0  0  0
    4.6580   14.6880   22.2590 C   0  0  0  0  0  0  0  0  0  0  0  0
    4.9080   14.9890   23.7180 C   0  0  0  0  0  0  0  0  0  0  0  0
    5.7720   16.0150   24.1050 C   0  0  0  0  0  0  0  0  0  0  0  0
    6.2460   16.7960   23.0820 O   0  0  0  0  0  0  0  0  0  0  0  0
    7.2750   17.7380   23.3820 C   0  0  0  0  0  0  0  0  0  0  0  0
    4.2940   14.2840   24.7390 C   0  0  0  0  0  0  0  0  0  0  0  0
    4.4790   14.5100   26.0430 N   0  0  0  0  0  0  0  0  0  0  0  0
    5.3410   15.4740   26.3740 C   0  0  0  0  0  0  0  0  0  0  0  0
    6.0180   16.2480   25.4520 C   0  0  0  0  0  0  0  0  0  0  0  0
 20 19  1  0
 19 18  1  0
 18 24  2  0
 24 23  1  0
 23 22  2  0
 22 21  1  0
 21 17  2  0
 18 17  1  0
 17 16  1  0
 16 14  1  0
 15 14  2  0
 14 13  1  0
 13  5  1  0
  5  4  1  0
  4  2  1  6
  3  2  1  0
  2  1  2  0
  6  4  1  0
  7  6  1  1
  7 12  1  0
 12 11  1  0
 11 10  1  0
 10  9  1  0
  8  9  1  6
  8  7  1  0
 13  8  1  0
M  END
>  <id>  (524) 
524

>  <inchikey>  (524) 
MXUBGPXGMPSEFG-AEGPPILISA-N

>  <alias>  (524) 
A4967c

>  <smiles>  (524) 
COc1ccncc1CC(=O)N1C[C@@H](C(N)=O)C[C@@H]2CCCC[C@H]21

>  <path>  (524) 
/opt/xchem-fragalysis-2/maxwin/BulkDock/TARGETS/A71EV2A/aligned_files/A4967c/A4967c_hippo.pdb

>  <distance_score>  (524) 
None

>  <energy_score>  (524) 
None

>  <compound>  (524) 
MXUBGPXGMPSEFG-UHFFFAOYSA-N

>  <compound_id>  (524) 
388

>  <target>  (524) 
A71EV2A

>  <tags>  (524) 
['GOOD count', 'MEDIOCRE count', '[Other] S1 site', 'hits', '[Other] S2 site', '[Other] upload_6_2025-02-13', '[Other] P3 compound design', '[Series] Piperidine series', 'Main status', 'BAD count']

>  <inspirations>  (524) 
None

>  <subsites>  (524) 
None

>  <reference>  (524) 


>  <observation_longname>  (524) 
A71EV2A-x4967_C_202_v1

>  <ConformerSites alias>  (524) 
1b - A0911/A/147

>  <CanonSites alias>  (524) 
1 - Active Site

>  <CrystalformSites alias>  (524) 
F7r - A4303/C/201

>  <Quatassemblies alias>  (524) 
A1 - monomer

>  <Crystalforms alias>  (524) 
F7 - A712A_x4207_8.1_refmac1_1st_ref

>  <ConformerSites upload name>  (524) 
1b - A71EV2A-x0911/A/147

>  <CanonSites upload name>  (524) 
1 - A71EV2A-x0911/A/147/1

>  <CrystalformSites upload name>  (524) 
F7r - A71EV2A-x4303/C/201/1

>  <Quatassemblies upload name>  (524) 
A1 - monomer

>  <Crystalforms upload name>  (524) 
F7 - A712A_x4207_8.1_refmac1_1st_ref

>  <ConformerSites short tag>  (524) 
1b - A0911/A/147

>  <CanonSites short tag>  (524) 
1 - A0911/A/147/1

>  <CrystalformSites short tag>  (524) 
F7r - A4303/C/201

>  <Quatassemblies short tag>  (524) 
A1 - monomer

>  <Crystalforms short tag>  (524) 
F7 - A712A_x4207_8.1_refmac1_1st_ref

>  <Centroid res>  (524) 
A71EV2A-x0911/A/133/A_v1

>  <Experiment code>  (524) 
A71EV2A-x4967

>  <Pose>  (524) 
A4967a

$$$$
A4974a
     RDKit          3D

 21 23  0  0  0  0  0  0  0  0999 V2000
   11.7410   14.5740   24.9050 O   0  0  0  0  0  0  0  0  0  0  0  0
   11.5380   14.6540   23.6990 C   0  0  0  0  0  0  0  0  0  0  0  0
   12.7010   14.6620   22.7360 C   0  0  0  0  0  0  0  0  0  0  0  0
   12.3600   14.5770   21.2440 C   0  0  0  0  0  0  0  0  0  0  0  0
   11.1160   15.4280   20.9540 C   0  0  1  0  0  0  0  0  0  0  0  0
   10.8270   15.5990   19.4700 C   0  0  0  0  0  0  0  0  0  0  0  0
   10.1790   16.5640   19.0640 O   0  0  0  0  0  0  0  0  0  0  0  0
   11.2770   14.6560   18.6510 N   0  0  0  0  0  0  0  0  0  0  0  0
    9.9500   14.8430   21.7590 C   0  0  0  0  0  0  0  0  0  0  0  0
   10.2890   14.7690   23.1860 N   0  0  0  0  0  0  0  0  0  0  0  0
    9.1350   14.8610   24.0810 C   0  0  0  0  0  0  0  0  0  0  0  0
    8.4810   13.5400   24.4120 C   0  0  0  0  0  0  0  0  0  0  0  0
    7.4300   13.5040   25.3300 C   0  0  0  0  0  0  0  0  0  0  0  0
    6.8430   12.3090   25.7070 C   0  0  0  0  0  0  0  0  0  0  0  0
    8.9420   12.3400   23.8660 C   0  0  0  0  0  0  0  0  0  0  0  0
    8.3600   11.1360   24.2510 C   0  0  0  0  0  0  0  0  0  0  0  0
    8.6240    9.8390   23.9190 N   0  0  0  0  0  0  0  0  0  0  0  0
    9.6850    9.3150   23.0660 C   0  0  0  0  0  0  0  0  0  0  0  0
    7.3030   11.1040   25.1700 C   0  0  0  0  0  0  0  0  0  0  0  0
    6.9970    9.7240   25.3120 C   0  0  0  0  0  0  0  0  0  0  0  0
    7.7860    8.9780   24.5670 N   0  0  0  0  0  0  0  0  0  0  0  0
 18 17  1  0
 17 21  1  0
 21 20  2  0
 20 19  1  0
 19 14  1  0
 14 13  2  0
 13 12  1  0
 12 11  1  0
 11 10  1  0
 10  9  1  0
  9  5  1  0
  5  6  1  6
  8  6  1  0
  7  6  2  0
  5  4  1  0
  4  3  1  0
  3  2  1  0
 10  2  1  0
  2  1  2  0
 15 12  2  0
 16 15  1  0
 19 16  2  0
 17 16  1  0
M  END
>  <id>  (525) 
525

>  <inchikey>  (525) 
ICAOAIIRHBCCAZ-GFCCVEGCSA-N

>  <alias>  (525) 
A4974a

>  <smiles>  (525) 
Cn1ncc2ccc(CN3C[C@H](C(N)=O)CCC3=O)cc21

>  <path>  (525) 
/opt/xchem-fragalysis-2/maxwin/BulkDock/TARGETS/A71EV2A/aligned_files/A4974a/A4974a.pdb

>  <distance_score>  (525) 
None

>  <energy_score>  (525) 
None

>  <compound>  (525) 
ICAOAIIRHBCCAZ-UHFFFAOYSA-N

>  <compound_id>  (525) 
363

>  <target>  (525) 
A71EV2A

>  <tags>  (525) 
['GOOD count', 'MEDIOCRE count', '[Other] S1 site', 'hits', '[Other] S2 site', '[Other] upload_6_2025-02-13', '[Other] P3 compound design', '[Series] Piperidine series', 'Main status', 'BAD count']

>  <inspirations>  (525) 
None

>  <subsites>  (525) 
None

>  <reference>  (525) 


>  <observation_longname>  (525) 
A71EV2A-x4974_A_201_v1

>  <ConformerSites alias>  (525) 
1b - A0911/A/147

>  <CanonSites alias>  (525) 
1 - Active Site

>  <CrystalformSites alias>  (525) 
F8h - A0884/A/147

>  <Quatassemblies alias>  (525) 
A1 - monomer

>  <Crystalforms alias>  (525) 
F8 - A712A_x4271_2.1_refmac1_1st_ref

>  <ConformerSites upload name>  (525) 
1b - A71EV2A-x0911/A/147

>  <CanonSites upload name>  (525) 
1 - A71EV2A-x0911/A/147/1

>  <CrystalformSites upload name>  (525) 
F8h - A71EV2A-x0884/A/147/1

>  <Quatassemblies upload name>  (525) 
A1 - monomer

>  <Crystalforms upload name>  (525) 
F8 - A712A_x4271_2.1_refmac1_1st_ref

>  <ConformerSites short tag>  (525) 
1b - A0911/A/147

>  <CanonSites short tag>  (525) 
1 - A0911/A/147/1

>  <CrystalformSites short tag>  (525) 
F8h - A0884/A/147

>  <Quatassemblies short tag>  (525) 
A1 - monomer

>  <Crystalforms short tag>  (525) 
F8 - A712A_x4271_2.1_refmac1_1st_ref

>  <Centroid res>  (525) 
A71EV2A-x0911/A/133/A_v1

>  <Experiment code>  (525) 
A71EV2A-x4974

>  <Pose>  (525) 
A4974a

$$$$
A4977a
     RDKit          3D

 24 26  0  0  0  0  0  0  0  0999 V2000
   10.2790   16.6640   19.1560 O   0  0  0  0  0  0  0  0  0  0  0  0
   10.6740   15.5200   19.4120 C   0  0  0  0  0  0  0  0  0  0  0  0
   11.0320   14.6680   18.4720 N   0  0  0  0  0  0  0  0  0  0  0  0
   10.6310   14.9720   20.8300 C   0  0  1  0  0  0  0  0  0  0  0  0
   11.7750   15.5470   21.6850 C   0  0  0  0  0  0  0  0  0  0  0  0
   11.6950   15.0170   23.1240 C   0  0  0  0  0  0  0  0  0  0  0  0
   10.3140   15.2970   23.7200 C   0  0  0  0  0  0  0  0  0  0  0  0
    9.2710   15.2800   21.4790 C   0  0  0  0  0  0  0  0  0  0  0  0
    9.2330   14.7790   22.8560 N   0  0  0  0  0  0  0  0  0  0  0  0
    8.3550   13.7760   23.1950 C   0  0  0  0  0  0  0  0  0  0  0  0
    7.5280   13.3490   22.4030 O   0  0  0  0  0  0  0  0  0  0  0  0
    8.4030   13.3390   24.4820 N   0  0  0  0  0  0  0  0  0  0  0  0
    7.5820   12.2610   24.9360 C   0  0  0  0  0  0  0  0  0  0  0  0
    7.9270   10.9340   24.6310 C   0  0  0  0  0  0  0  0  0  0  0  0
    9.3700   10.6780   23.6380 S   0  0  0  0  0  0  0  0  0  0  0  0
    9.3980    8.9000   23.4030 C   0  0  0  0  0  0  0  0  0  0  0  0
    6.4140   12.5360   25.7150 C   0  0  0  0  0  0  0  0  0  0  0  0
    5.6510   11.4450   26.2000 C   0  0  0  0  0  0  0  0  0  0  0  0
    6.0470   10.1230   25.8800 C   0  0  0  0  0  0  0  0  0  0  0  0
    7.1470    9.8770   25.1030 C   0  0  0  0  0  0  0  0  0  0  0  0
    5.9400   13.8370   26.0070 C   0  0  0  0  0  0  0  0  0  0  0  0
    4.7860   14.0000   26.7230 C   0  0  0  0  0  0  0  0  0  0  0  0
    4.1110   12.8730   27.1690 C   0  0  0  0  0  0  0  0  0  0  0  0
    4.5080   11.6250   26.9470 N   0  0  0  0  0  0  0  0  0  0  0  0
 16 15  1  0
 15 14  1  0
 14 20  2  0
 20 19  1  0
 19 18  2  0
 18 24  1  0
 24 23  2  0
 23 22  1  0
 22 21  2  0
 21 17  1  0
 18 17  1  0
 17 13  2  0
 14 13  1  0
 13 12  1  0
 12 10  1  0
 11 10  2  0
 10  9  1  0
  9  7  1  0
  7  6  1  0
  6  5  1  0
  5  4  1  0
  4  2  1  6
  3  2  1  0
  2  1  2  0
  8  4  1  0
  9  8  1  0
M  END
>  <id>  (526) 
526

>  <inchikey>  (526) 
CYBVNZOMOMLBBC-NSHDSACASA-N

>  <alias>  (526) 
A4977a

>  <smiles>  (526) 
CSc1ccc2ncccc2c1NC(=O)N1CCC[C@H](C(N)=O)C1

>  <path>  (526) 
/opt/xchem-fragalysis-2/maxwin/BulkDock/TARGETS/A71EV2A/aligned_files/A4977a/A4977a_hippo.pdb

>  <distance_score>  (526) 
None

>  <energy_score>  (526) 
None

>  <compound>  (526) 
CYBVNZOMOMLBBC-UHFFFAOYSA-N

>  <compound_id>  (526) 
389

>  <target>  (526) 
A71EV2A

>  <tags>  (526) 
['GOOD count', 'MEDIOCRE count', '[Other] S1 site', 'hits', '[Other] S2 site', '[Other] P3 compound design', '[Other] upload_1 2025-02-12', 'Main status', '[Series] Piperidine series', 'BAD count']

>  <inspirations>  (526) 
None

>  <subsites>  (526) 
None

>  <reference>  (526) 


>  <observation_longname>  (526) 
A71EV2A-x4977_A_201_v1

>  <ConformerSites alias>  (526) 
1b - A0911/A/147

>  <CanonSites alias>  (526) 
1 - Active Site

>  <CrystalformSites alias>  (526) 
F7q - A4303/A/201

>  <Quatassemblies alias>  (526) 
A1 - monomer

>  <Crystalforms alias>  (526) 
F7 - A712A_x4207_8.1_refmac1_1st_ref

>  <ConformerSites upload name>  (526) 
1b - A71EV2A-x0911/A/147

>  <CanonSites upload name>  (526) 
1 - A71EV2A-x0911/A/147/1

>  <CrystalformSites upload name>  (526) 
F7q - A71EV2A-x4303/A/201/1

>  <Quatassemblies upload name>  (526) 
A1 - monomer

>  <Crystalforms upload name>  (526) 
F7 - A712A_x4207_8.1_refmac1_1st_ref

>  <ConformerSites short tag>  (526) 
1b - A0911/A/147

>  <CanonSites short tag>  (526) 
1 - A0911/A/147/1

>  <CrystalformSites short tag>  (526) 
F7q - A4303/A/201

>  <Quatassemblies short tag>  (526) 
A1 - monomer

>  <Crystalforms short tag>  (526) 
F7 - A712A_x4207_8.1_refmac1_1st_ref

>  <Centroid res>  (526) 
A71EV2A-x0911/A/133/A_v1

>  <Experiment code>  (526) 
A71EV2A-x4977

>  <Pose>  (526) 
A4977a

$$$$
A4977b
     RDKit          3D

 24 26  0  0  0  0  0  0  0  0999 V2000
   10.3550   16.6530   19.2350 O   0  0  0  0  0  0  0  0  0  0  0  0
   10.7500   15.5030   19.4570 C   0  0  0  0  0  0  0  0  0  0  0  0
   11.0510   14.6510   18.4870 N   0  0  0  0  0  0  0  0  0  0  0  0
   10.8130   14.9580   20.8760 C   0  0  1  0  0  0  0  0  0  0  0  0
   11.9590   15.6070   21.6760 C   0  0  0  0  0  0  0  0  0  0  0  0
   11.9730   15.0940   23.1270 C   0  0  0  0  0  0  0  0  0  0  0  0
   10.6220   15.3260   23.7970 C   0  0  0  0  0  0  0  0  0  0  0  0
    9.4930   15.2440   21.6000 C   0  0  0  0  0  0  0  0  0  0  0  0
    9.5380   14.7550   22.9820 N   0  0  0  0  0  0  0  0  0  0  0  0
    8.6840   13.7540   23.3680 C   0  0  0  0  0  0  0  0  0  0  0  0
    7.8390   13.2960   22.6100 O   0  0  0  0  0  0  0  0  0  0  0  0
    8.7960   13.3260   24.6540 N   0  0  0  0  0  0  0  0  0  0  0  0
    7.9950   12.2390   25.1240 C   0  0  0  0  0  0  0  0  0  0  0  0
    8.3080   10.9120   24.7570 C   0  0  0  0  0  0  0  0  0  0  0  0
    9.6940   10.6530   23.6790 S   0  0  0  0  0  0  0  0  0  0  0  0
    9.7180    8.8750   23.4540 C   0  0  0  0  0  0  0  0  0  0  0  0
    6.8750   12.5050   25.9730 C   0  0  0  0  0  0  0  0  0  0  0  0
    6.1110   11.4140   26.4520 C   0  0  0  0  0  0  0  0  0  0  0  0
    6.4670   10.0950   26.0690 C   0  0  0  0  0  0  0  0  0  0  0  0
    7.5260    9.8530   25.2290 C   0  0  0  0  0  0  0  0  0  0  0  0
    6.4410   13.8080   26.3270 C   0  0  0  0  0  0  0  0  0  0  0  0
    5.3250   13.9690   27.1030 C   0  0  0  0  0  0  0  0  0  0  0  0
    4.6440   12.8340   27.5390 C   0  0  0  0  0  0  0  0  0  0  0  0
    5.0010   11.5900   27.2480 N   0  0  0  0  0  0  0  0  0  0  0  0
 16 15  1  0
 15 14  1  0
 14 20  2  0
 20 19  1  0
 19 18  2  0
 18 24  1  0
 24 23  2  0
 23 22  1  0
 22 21  2  0
 21 17  1  0
 18 17  1  0
 17 13  2  0
 14 13  1  0
 13 12  1  0
 12 10  1  0
 11 10  2  0
 10  9  1  0
  9  7  1  0
  7  6  1  0
  6  5  1  0
  5  4  1  0
  4  2  1  6
  3  2  1  0
  2  1  2  0
  8  4  1  0
  9  8  1  0
M  END
>  <id>  (527) 
527

>  <inchikey>  (527) 
CYBVNZOMOMLBBC-NSHDSACASA-N

>  <alias>  (527) 
A4977b

>  <smiles>  (527) 
CSc1ccc2ncccc2c1NC(=O)N1CCC[C@H](C(N)=O)C1

>  <path>  (527) 
/opt/xchem-fragalysis-2/maxwin/BulkDock/TARGETS/A71EV2A/aligned_files/A4977b/A4977b_hippo.pdb

>  <distance_score>  (527) 
None

>  <energy_score>  (527) 
None

>  <compound>  (527) 
CYBVNZOMOMLBBC-UHFFFAOYSA-N

>  <compound_id>  (527) 
389

>  <target>  (527) 
A71EV2A

>  <tags>  (527) 
['GOOD count', 'MEDIOCRE count', '[Other] S1 site', 'hits', '[Other] S2 site', '[Other] P3 compound design', '[Other] upload_1 2025-02-12', 'Main status', '[Series] Piperidine series', 'BAD count']

>  <inspirations>  (527) 
None

>  <subsites>  (527) 
None

>  <reference>  (527) 


>  <observation_longname>  (527) 
A71EV2A-x4977_C_201_v1

>  <ConformerSites alias>  (527) 
1b - A0911/A/147

>  <CanonSites alias>  (527) 
1 - Active Site

>  <CrystalformSites alias>  (527) 
F7r - A4303/C/201

>  <Quatassemblies alias>  (527) 
A1 - monomer

>  <Crystalforms alias>  (527) 
F7 - A712A_x4207_8.1_refmac1_1st_ref

>  <ConformerSites upload name>  (527) 
1b - A71EV2A-x0911/A/147

>  <CanonSites upload name>  (527) 
1 - A71EV2A-x0911/A/147/1

>  <CrystalformSites upload name>  (527) 
F7r - A71EV2A-x4303/C/201/1

>  <Quatassemblies upload name>  (527) 
A1 - monomer

>  <Crystalforms upload name>  (527) 
F7 - A712A_x4207_8.1_refmac1_1st_ref

>  <ConformerSites short tag>  (527) 
1b - A0911/A/147

>  <CanonSites short tag>  (527) 
1 - A0911/A/147/1

>  <CrystalformSites short tag>  (527) 
F7r - A4303/C/201

>  <Quatassemblies short tag>  (527) 
A1 - monomer

>  <Crystalforms short tag>  (527) 
F7 - A712A_x4207_8.1_refmac1_1st_ref

>  <Centroid res>  (527) 
A71EV2A-x0911/A/133/A_v1

>  <Experiment code>  (527) 
A71EV2A-x4977

>  <Pose>  (527) 
A4977a

$$$$
A4979a
     RDKit          3D

 19 20  0  0  0  0  0  0  0  0999 V2000
    9.3680   10.1670   23.6480 Cl  0  0  0  0  0  0  0  0  0  0  0  0
    8.0820   10.6870   24.6860 C   0  0  0  0  0  0  0  0  0  0  0  0
    7.1590    9.7680   25.1410 C   0  0  0  0  0  0  0  0  0  0  0  0
    6.1400   10.1040   25.9350 N   0  0  0  0  0  0  0  0  0  0  0  0
    6.1070   11.3860   26.2910 C   0  0  0  0  0  0  0  0  0  0  0  0
    6.9460   12.3500   25.9160 N   0  0  0  0  0  0  0  0  0  0  0  0
    7.9450   12.0000   25.0840 C   0  0  0  0  0  0  0  0  0  0  0  0
    8.9250   13.0790   24.7190 C   0  0  0  0  0  0  0  0  0  0  0  0
    8.6750   13.6640   23.3380 C   0  0  0  0  0  0  0  0  0  0  0  0
    7.7670   13.2680   22.6280 O   0  0  0  0  0  0  0  0  0  0  0  0
    9.4860   14.6730   22.9560 N   0  0  0  0  0  0  0  0  0  0  0  0
   10.5570   15.2620   23.7750 C   0  0  0  0  0  0  0  0  0  0  0  0
   11.9180   15.1220   23.0930 C   0  0  0  0  0  0  0  0  0  0  0  0
   11.8710   15.6690   21.6560 C   0  0  0  0  0  0  0  0  0  0  0  0
    9.3830   15.2360   21.6060 C   0  0  0  0  0  0  0  0  0  0  0  0
   10.7120   15.0240   20.8740 C   0  0  1  0  0  0  0  0  0  0  0  0
   10.6450   15.5380   19.4460 C   0  0  0  0  0  0  0  0  0  0  0  0
   10.2980   16.6960   19.2000 O   0  0  0  0  0  0  0  0  0  0  0  0
   10.9560   14.6620   18.4990 N   0  0  0  0  0  0  0  0  0  0  0  0
 19 17  1  0
 18 17  2  0
 16 17  1  6
 16 14  1  0
 14 13  1  0
 13 12  1  0
 12 11  1  0
 11  9  1  0
 10  9  2  0
  9  8  1  0
  8  7  1  0
  7  6  2  0
  6  5  1  0
  5  4  2  0
  4  3  1  0
  3  2  2  0
  7  2  1  0
  2  1  1  0
 15 11  1  0
 16 15  1  0
M  END
>  <id>  (528) 
528

>  <inchikey>  (528) 
FLCFQJGWJJRWLD-QMMMGPOBSA-N

>  <alias>  (528) 
A4979a

>  <smiles>  (528) 
NC(=O)[C@H]1CCCN(C(=O)Cc2ncncc2Cl)C1

>  <path>  (528) 
/opt/xchem-fragalysis-2/maxwin/BulkDock/TARGETS/A71EV2A/aligned_files/A4979a/A4979a_hippo.pdb

>  <distance_score>  (528) 
None

>  <energy_score>  (528) 
None

>  <compound>  (528) 
FLCFQJGWJJRWLD-UHFFFAOYSA-N

>  <compound_id>  (528) 
390

>  <target>  (528) 
A71EV2A

>  <tags>  (528) 
['GOOD count', 'MEDIOCRE count', '[Other] S1 site', 'hits', '[Other] S2 site', '[Other] upload_6_2025-02-13', '[Other] P3 compound design', '[Series] Piperidine series', 'Main status', 'BAD count']

>  <inspirations>  (528) 
None

>  <subsites>  (528) 
None

>  <reference>  (528) 


>  <observation_longname>  (528) 
A71EV2A-x4979_A_201_v1

>  <ConformerSites alias>  (528) 
1b - A0911/A/147

>  <CanonSites alias>  (528) 
1 - Active Site

>  <CrystalformSites alias>  (528) 
F7q - A4303/A/201

>  <Quatassemblies alias>  (528) 
A1 - monomer

>  <Crystalforms alias>  (528) 
F7 - A712A_x4207_8.1_refmac1_1st_ref

>  <ConformerSites upload name>  (528) 
1b - A71EV2A-x0911/A/147

>  <CanonSites upload name>  (528) 
1 - A71EV2A-x0911/A/147/1

>  <CrystalformSites upload name>  (528) 
F7q - A71EV2A-x4303/A/201/1

>  <Quatassemblies upload name>  (528) 
A1 - monomer

>  <Crystalforms upload name>  (528) 
F7 - A712A_x4207_8.1_refmac1_1st_ref

>  <ConformerSites short tag>  (528) 
1b - A0911/A/147

>  <CanonSites short tag>  (528) 
1 - A0911/A/147/1

>  <CrystalformSites short tag>  (528) 
F7q - A4303/A/201

>  <Quatassemblies short tag>  (528) 
A1 - monomer

>  <Crystalforms short tag>  (528) 
F7 - A712A_x4207_8.1_refmac1_1st_ref

>  <Centroid res>  (528) 
A71EV2A-x0911/A/133/A_v1

>  <Experiment code>  (528) 
A71EV2A-x4979

>  <Pose>  (528) 
A4979a

$$$$
A4979b
     RDKit          3D

 19 20  0  0  0  0  0  0  0  0999 V2000
    9.6380   10.1730   23.7360 Cl  0  0  0  0  0  0  0  0  0  0  0  0
    8.3450   10.7070   24.7590 C   0  0  0  0  0  0  0  0  0  0  0  0
    7.4410    9.7850   25.2540 C   0  0  0  0  0  0  0  0  0  0  0  0
    6.4800   10.1180   26.1160 N   0  0  0  0  0  0  0  0  0  0  0  0
    6.4510   11.4040   26.4550 C   0  0  0  0  0  0  0  0  0  0  0  0
    7.2590   12.3680   26.0350 N   0  0  0  0  0  0  0  0  0  0  0  0
    8.2310   12.0150   25.1630 C   0  0  0  0  0  0  0  0  0  0  0  0
    9.2280   13.0760   24.7650 C   0  0  0  0  0  0  0  0  0  0  0  0
    8.9420   13.6500   23.3850 C   0  0  0  0  0  0  0  0  0  0  0  0
    8.0180   13.2190   22.7040 O   0  0  0  0  0  0  0  0  0  0  0  0
    9.7160   14.6850   22.9740 N   0  0  0  0  0  0  0  0  0  0  0  0
   10.7820   15.3420   23.7510 C   0  0  0  0  0  0  0  0  0  0  0  0
   12.1240   15.2020   23.0530 C   0  0  0  0  0  0  0  0  0  0  0  0
   12.0380   15.7250   21.6070 C   0  0  0  0  0  0  0  0  0  0  0  0
    9.5730   15.2230   21.6160 C   0  0  0  0  0  0  0  0  0  0  0  0
   10.8890   15.0190   20.8540 C   0  0  1  0  0  0  0  0  0  0  0  0
   10.7580   15.5270   19.4300 C   0  0  0  0  0  0  0  0  0  0  0  0
   10.3780   16.6940   19.1980 O   0  0  0  0  0  0  0  0  0  0  0  0
   11.0260   14.6350   18.4790 N   0  0  0  0  0  0  0  0  0  0  0  0
 19 17  1  0
 18 17  2  0
 16 17  1  6
 16 14  1  0
 14 13  1  0
 13 12  1  0
 12 11  1  0
 11  9  1  0
 10  9  2  0
  9  8  1  0
  8  7  1  0
  7  6  2  0
  6  5  1  0
  5  4  2  0
  4  3  1  0
  3  2  2  0
  7  2  1  0
  2  1  1  0
 15 11  1  0
 16 15  1  0
M  END
>  <id>  (529) 
529

>  <inchikey>  (529) 
FLCFQJGWJJRWLD-QMMMGPOBSA-N

>  <alias>  (529) 
A4979b

>  <smiles>  (529) 
NC(=O)[C@H]1CCCN(C(=O)Cc2ncncc2Cl)C1

>  <path>  (529) 
/opt/xchem-fragalysis-2/maxwin/BulkDock/TARGETS/A71EV2A/aligned_files/A4979b/A4979b_hippo.pdb

>  <distance_score>  (529) 
None

>  <energy_score>  (529) 
None

>  <compound>  (529) 
FLCFQJGWJJRWLD-UHFFFAOYSA-N

>  <compound_id>  (529) 
390

>  <target>  (529) 
A71EV2A

>  <tags>  (529) 
['GOOD count', 'MEDIOCRE count', '[Other] S1 site', 'hits', '[Other] S2 site', '[Other] upload_6_2025-02-13', '[Other] P3 compound design', '[Series] Piperidine series', 'Main status', 'BAD count']

>  <inspirations>  (529) 
None

>  <subsites>  (529) 
None

>  <reference>  (529) 


>  <observation_longname>  (529) 
A71EV2A-x4979_C_201_v1

>  <ConformerSites alias>  (529) 
1b - A0911/A/147

>  <CanonSites alias>  (529) 
1 - Active Site

>  <CrystalformSites alias>  (529) 
F7r - A4303/C/201

>  <Quatassemblies alias>  (529) 
A1 - monomer

>  <Crystalforms alias>  (529) 
F7 - A712A_x4207_8.1_refmac1_1st_ref

>  <ConformerSites upload name>  (529) 
1b - A71EV2A-x0911/A/147

>  <CanonSites upload name>  (529) 
1 - A71EV2A-x0911/A/147/1

>  <CrystalformSites upload name>  (529) 
F7r - A71EV2A-x4303/C/201/1

>  <Quatassemblies upload name>  (529) 
A1 - monomer

>  <Crystalforms upload name>  (529) 
F7 - A712A_x4207_8.1_refmac1_1st_ref

>  <ConformerSites short tag>  (529) 
1b - A0911/A/147

>  <CanonSites short tag>  (529) 
1 - A0911/A/147/1

>  <CrystalformSites short tag>  (529) 
F7r - A4303/C/201

>  <Quatassemblies short tag>  (529) 
A1 - monomer

>  <Crystalforms short tag>  (529) 
F7 - A712A_x4207_8.1_refmac1_1st_ref

>  <Centroid res>  (529) 
A71EV2A-x0911/A/133/A_v1

>  <Experiment code>  (529) 
A71EV2A-x4979

>  <Pose>  (529) 
A4979a

$$$$
A4980a
     RDKit          3D

 21 23  0  0  0  0  0  0  0  0999 V2000
   11.6150   14.7190   25.0610 O   0  0  0  0  0  0  0  0  0  0  0  0
   11.4410   14.8340   23.8480 C   0  0  0  0  0  0  0  0  0  0  0  0
   12.6210   14.9490   22.9150 C   0  0  0  0  0  0  0  0  0  0  0  0
   12.2870   15.5920   21.5680 C   0  0  0  0  0  0  0  0  0  0  0  0
   11.0690   14.8900   20.9510 C   0  0  2  0  0  0  0  0  0  0  0  0
   10.8330   15.3740   19.5300 C   0  0  0  0  0  0  0  0  0  0  0  0
   10.3190   16.4720   19.3090 O   0  0  0  0  0  0  0  0  0  0  0  0
   11.2470   14.5720   18.5540 N   0  0  0  0  0  0  0  0  0  0  0  0
    9.8660   15.1170   21.8860 C   0  0  0  0  0  0  0  0  0  0  0  0
   10.2030   14.9070   23.3040 N   0  0  0  0  0  0  0  0  0  0  0  0
    9.0290   14.9680   24.1820 C   0  0  0  0  0  0  0  0  0  0  0  0
    8.4090   13.6320   24.5070 C   0  0  0  0  0  0  0  0  0  0  0  0
    7.3370   13.5760   25.3970 C   0  0  0  0  0  0  0  0  0  0  0  0
    6.7540   12.3690   25.7520 C   0  0  0  0  0  0  0  0  0  0  0  0
    8.9110   12.4430   23.9720 C   0  0  0  0  0  0  0  0  0  0  0  0
    8.3330   11.2290   24.3300 C   0  0  0  0  0  0  0  0  0  0  0  0
    8.6090    9.9390   23.9810 N   0  0  0  0  0  0  0  0  0  0  0  0
    9.6850    9.4370   23.1380 C   0  0  0  0  0  0  0  0  0  0  0  0
    7.2490   11.1760   25.2220 C   0  0  0  0  0  0  0  0  0  0  0  0
    6.9460    9.7930   25.3300 C   0  0  0  0  0  0  0  0  0  0  0  0
    7.7600    9.0620   24.5950 N   0  0  0  0  0  0  0  0  0  0  0  0
 18 17  1  0
 17 21  1  0
 21 20  2  0
 20 19  1  0
 19 14  1  0
 14 13  2  0
 13 12  1  0
 12 11  1  0
 11 10  1  0
 10  9  1  0
  9  5  1  0
  5  6  1  6
  8  6  1  0
  7  6  2  0
  5  4  1  0
  4  3  1  0
  3  2  1  0
 10  2  1  0
  2  1  2  0
 15 12  2  0
 16 15  1  0
 19 16  2  0
 17 16  1  0
M  END
>  <id>  (530) 
530

>  <inchikey>  (530) 
ICAOAIIRHBCCAZ-LBPRGKRZSA-N

>  <alias>  (530) 
A4980a

>  <smiles>  (530) 
Cn1ncc2ccc(CN3C[C@@H](C(N)=O)CCC3=O)cc21

>  <path>  (530) 
/opt/xchem-fragalysis-2/maxwin/BulkDock/TARGETS/A71EV2A/aligned_files/A4980a/A4980a.pdb

>  <distance_score>  (530) 
None

>  <energy_score>  (530) 
None

>  <compound>  (530) 
ICAOAIIRHBCCAZ-UHFFFAOYSA-N

>  <compound_id>  (530) 
363

>  <target>  (530) 
A71EV2A

>  <tags>  (530) 
['GOOD count', 'MEDIOCRE count', '[Other] S1 site', 'hits', '[Other] S2 site', '[Other] upload_6_2025-02-13', '[Other] P3 compound design', '[Series] Piperidine series', 'Main status', 'BAD count']

>  <inspirations>  (530) 
None

>  <subsites>  (530) 
None

>  <reference>  (530) 


>  <observation_longname>  (530) 
A71EV2A-x4980_A_201_v1

>  <ConformerSites alias>  (530) 
1b - A0911/A/147

>  <CanonSites alias>  (530) 
1 - Active Site

>  <CrystalformSites alias>  (530) 
F8h - A0884/A/147

>  <Quatassemblies alias>  (530) 
A1 - monomer

>  <Crystalforms alias>  (530) 
F8 - A712A_x4271_2.1_refmac1_1st_ref

>  <ConformerSites upload name>  (530) 
1b - A71EV2A-x0911/A/147

>  <CanonSites upload name>  (530) 
1 - A71EV2A-x0911/A/147/1

>  <CrystalformSites upload name>  (530) 
F8h - A71EV2A-x0884/A/147/1

>  <Quatassemblies upload name>  (530) 
A1 - monomer

>  <Crystalforms upload name>  (530) 
F8 - A712A_x4271_2.1_refmac1_1st_ref

>  <ConformerSites short tag>  (530) 
1b - A0911/A/147

>  <CanonSites short tag>  (530) 
1 - A0911/A/147/1

>  <CrystalformSites short tag>  (530) 
F8h - A0884/A/147

>  <Quatassemblies short tag>  (530) 
A1 - monomer

>  <Crystalforms short tag>  (530) 
F8 - A712A_x4271_2.1_refmac1_1st_ref

>  <Centroid res>  (530) 
A71EV2A-x0911/A/133/A_v1

>  <Experiment code>  (530) 
A71EV2A-x4980

>  <Pose>  (530) 
A4980a

$$$$
A4986a
     RDKit          3D

 26 28  0  0  0  0  0  0  0  0999 V2000
   10.2680   16.6270   19.2040 O   0  0  0  0  0  0  0  0  0  0  0  0
   10.6400   15.4730   19.4420 C   0  0  0  0  0  0  0  0  0  0  0  0
   11.0110   14.6160   18.4900 N   0  0  0  0  0  0  0  0  0  0  0  0
   10.6230   14.9180   20.8550 C   0  0  1  0  0  0  0  0  0  0  0  0
   11.7610   15.5010   21.7050 C   0  0  0  0  0  0  0  0  0  0  0  0
   11.7280   14.9220   23.1260 C   0  0  0  0  0  0  0  0  0  0  0  0
   10.3610   15.1370   23.7700 C   0  0  0  0  0  0  0  0  0  0  0  0
    9.2850   15.2400   21.5370 C   0  0  0  0  0  0  0  0  0  0  0  0
    9.2660   14.6870   22.8940 N   0  0  0  0  0  0  0  0  0  0  0  0
    8.3270   13.7260   23.2020 C   0  0  0  0  0  0  0  0  0  0  0  0
    7.5750   13.2610   22.3660 O   0  0  0  0  0  0  0  0  0  0  0  0
    8.3080   13.2980   24.4920 N   0  0  0  0  0  0  0  0  0  0  0  0
    7.5500   12.1830   24.9270 C   0  0  0  0  0  0  0  0  0  0  0  0
    7.9380   10.8900   24.5310 C   0  0  0  0  0  0  0  0  0  0  0  0
    9.3420   10.6900   23.4710 S   0  0  0  0  0  0  0  0  0  0  0  0
    9.4410    8.9050   23.2510 C   0  0  0  0  0  0  0  0  0  0  0  0
    6.4590   12.3370   25.7950 C   0  0  0  0  0  0  0  0  0  0  0  0
    5.7640   11.2230   26.2690 C   0  0  0  0  0  0  0  0  0  0  0  0
    6.1600    9.9570   25.8640 C   0  0  0  0  0  0  0  0  0  0  0  0
    7.2350    9.7890   25.0080 C   0  0  0  0  0  0  0  0  0  0  0  0
    4.6010   11.3640   27.1070 N   0  0  0  0  0  0  0  0  0  0  0  0
    3.7060   12.4110   27.0890 C   0  0  0  0  0  0  0  0  0  0  0  0
    3.6530   13.2760   26.2230 O   0  0  0  0  0  0  0  0  0  0  0  0
    2.7550   12.2370   28.2480 C   0  0  0  0  0  0  0  0  0  0  0  0
    2.9240   10.7780   28.6850 C   0  0  0  0  0  0  0  0  0  0  0  0
    4.1490   10.2280   27.9360 C   0  0  0  0  0  0  0  0  0  0  0  0
 16 15  1  0
 15 14  1  0
 14 20  2  0
 20 19  1  0
 19 18  2  0
 21 18  1  0
 21 26  1  0
 26 25  1  0
 25 24  1  0
 24 22  1  0
 22 21  1  0
 23 22  2  0
 18 17  1  0
 17 13  2  0
 14 13  1  0
 13 12  1  0
 12 10  1  0
 11 10  2  0
 10  9  1  0
  9  7  1  0
  7  6  1  0
  6  5  1  0
  5  4  1  0
  4  2  1  6
  3  2  1  0
  2  1  2  0
  8  4  1  0
  9  8  1  0
M  END
>  <id>  (531) 
531

>  <inchikey>  (531) 
BFTJLJDSJHXUFC-LBPRGKRZSA-N

>  <alias>  (531) 
A4986a

>  <smiles>  (531) 
CSc1ccc(N2CCCC2=O)cc1NC(=O)N1CCC[C@H](C(N)=O)C1

>  <path>  (531) 
/opt/xchem-fragalysis-2/maxwin/BulkDock/TARGETS/A71EV2A/aligned_files/A4986a/A4986a_hippo.pdb

>  <distance_score>  (531) 
None

>  <energy_score>  (531) 
None

>  <compound>  (531) 
BFTJLJDSJHXUFC-UHFFFAOYSA-N

>  <compound_id>  (531) 
391

>  <target>  (531) 
A71EV2A

>  <tags>  (531) 
['GOOD count', 'MEDIOCRE count', '[Other] S1 site', 'hits', '[Other] S2 site', '[Other] P3 compound design', '[Other] upload_1 2025-02-12', 'Main status', '[Series] Piperidine series', 'BAD count']

>  <inspirations>  (531) 
None

>  <subsites>  (531) 
None

>  <reference>  (531) 


>  <observation_longname>  (531) 
A71EV2A-x4986_A_201_v1

>  <ConformerSites alias>  (531) 
1b - A0911/A/147

>  <CanonSites alias>  (531) 
1 - Active Site

>  <CrystalformSites alias>  (531) 
F7q - A4303/A/201

>  <Quatassemblies alias>  (531) 
A1 - monomer

>  <Crystalforms alias>  (531) 
F7 - A712A_x4207_8.1_refmac1_1st_ref

>  <ConformerSites upload name>  (531) 
1b - A71EV2A-x0911/A/147

>  <CanonSites upload name>  (531) 
1 - A71EV2A-x0911/A/147/1

>  <CrystalformSites upload name>  (531) 
F7q - A71EV2A-x4303/A/201/1

>  <Quatassemblies upload name>  (531) 
A1 - monomer

>  <Crystalforms upload name>  (531) 
F7 - A712A_x4207_8.1_refmac1_1st_ref

>  <ConformerSites short tag>  (531) 
1b - A0911/A/147

>  <CanonSites short tag>  (531) 
1 - A0911/A/147/1

>  <CrystalformSites short tag>  (531) 
F7q - A4303/A/201

>  <Quatassemblies short tag>  (531) 
A1 - monomer

>  <Crystalforms short tag>  (531) 
F7 - A712A_x4207_8.1_refmac1_1st_ref

>  <Centroid res>  (531) 
A71EV2A-x0911/A/133/A_v1

>  <Experiment code>  (531) 
A71EV2A-x4986

>  <Pose>  (531) 
A4986a

$$$$
A4986b
     RDKit          3D

 26 28  0  0  0  0  0  0  0  0999 V2000
   10.3620   16.6460   19.2270 O   0  0  0  0  0  0  0  0  0  0  0  0
   10.7320   15.4850   19.4510 C   0  0  0  0  0  0  0  0  0  0  0  0
   11.0440   14.6180   18.4910 N   0  0  0  0  0  0  0  0  0  0  0  0
   10.8040   14.9480   20.8680 C   0  0  1  0  0  0  0  0  0  0  0  0
   11.9720   15.5810   21.6430 C   0  0  0  0  0  0  0  0  0  0  0  0
   12.0300   15.0490   23.0880 C   0  0  0  0  0  0  0  0  0  0  0  0
   10.6970   15.2620   23.8030 C   0  0  0  0  0  0  0  0  0  0  0  0
    9.5100   15.2420   21.6330 C   0  0  0  0  0  0  0  0  0  0  0  0
    9.5990   14.7080   22.9960 N   0  0  0  0  0  0  0  0  0  0  0  0
    8.7410   13.7040   23.3680 C   0  0  0  0  0  0  0  0  0  0  0  0
    7.9090   13.2390   22.5960 O   0  0  0  0  0  0  0  0  0  0  0  0
    8.8200   13.2890   24.6620 N   0  0  0  0  0  0  0  0  0  0  0  0
    8.0540   12.1960   25.1670 C   0  0  0  0  0  0  0  0  0  0  0  0
    8.3510   10.8980   24.7230 C   0  0  0  0  0  0  0  0  0  0  0  0
    9.6680   10.6780   23.5700 S   0  0  0  0  0  0  0  0  0  0  0  0
    9.7140    8.8950   23.3240 C   0  0  0  0  0  0  0  0  0  0  0  0
    7.0480   12.3790   26.1180 C   0  0  0  0  0  0  0  0  0  0  0  0
    6.3510   11.2850   26.6350 C   0  0  0  0  0  0  0  0  0  0  0  0
    6.6510   10.0080   26.1820 C   0  0  0  0  0  0  0  0  0  0  0  0
    7.6430    9.8110   25.2330 C   0  0  0  0  0  0  0  0  0  0  0  0
    5.3720   11.4690   27.6720 N   0  0  0  0  0  0  0  0  0  0  0  0
    4.4170   12.4470   27.7190 C   0  0  0  0  0  0  0  0  0  0  0  0
    4.1380   13.1960   26.8000 O   0  0  0  0  0  0  0  0  0  0  0  0
    3.7660   12.4010   29.0850 C   0  0  0  0  0  0  0  0  0  0  0  0
    4.4690   11.2660   29.8280 C   0  0  0  0  0  0  0  0  0  0  0  0
    5.2630   10.5050   28.7760 C   0  0  0  0  0  0  0  0  0  0  0  0
 16 15  1  0
 15 14  1  0
 14 20  2  0
 20 19  1  0
 19 18  2  0
 21 18  1  0
 21 26  1  0
 26 25  1  0
 25 24  1  0
 24 22  1  0
 22 21  1  0
 23 22  2  0
 18 17  1  0
 17 13  2  0
 14 13  1  0
 13 12  1  0
 12 10  1  0
 11 10  2  0
 10  9  1  0
  9  7  1  0
  7  6  1  0
  6  5  1  0
  5  4  1  0
  4  2  1  6
  3  2  1  0
  2  1  2  0
  8  4  1  0
  9  8  1  0
M  END
>  <id>  (532) 
532

>  <inchikey>  (532) 
BFTJLJDSJHXUFC-LBPRGKRZSA-N

>  <alias>  (532) 
A4986b

>  <smiles>  (532) 
CSc1ccc(N2CCCC2=O)cc1NC(=O)N1CCC[C@H](C(N)=O)C1

>  <path>  (532) 
/opt/xchem-fragalysis-2/maxwin/BulkDock/TARGETS/A71EV2A/aligned_files/A4986b/A4986b_hippo.pdb

>  <distance_score>  (532) 
None

>  <energy_score>  (532) 
None

>  <compound>  (532) 
BFTJLJDSJHXUFC-UHFFFAOYSA-N

>  <compound_id>  (532) 
391

>  <target>  (532) 
A71EV2A

>  <tags>  (532) 
['GOOD count', 'MEDIOCRE count', '[Other] S1 site', 'hits', '[Other] S2 site', '[Other] P3 compound design', '[Other] upload_1 2025-02-12', 'Main status', '[Series] Piperidine series', 'BAD count']

>  <inspirations>  (532) 
None

>  <subsites>  (532) 
None

>  <reference>  (532) 


>  <observation_longname>  (532) 
A71EV2A-x4986_C_201_v1

>  <ConformerSites alias>  (532) 
1b - A0911/A/147

>  <CanonSites alias>  (532) 
1 - Active Site

>  <CrystalformSites alias>  (532) 
F7r - A4303/C/201

>  <Quatassemblies alias>  (532) 
A1 - monomer

>  <Crystalforms alias>  (532) 
F7 - A712A_x4207_8.1_refmac1_1st_ref

>  <ConformerSites upload name>  (532) 
1b - A71EV2A-x0911/A/147

>  <CanonSites upload name>  (532) 
1 - A71EV2A-x0911/A/147/1

>  <CrystalformSites upload name>  (532) 
F7r - A71EV2A-x4303/C/201/1

>  <Quatassemblies upload name>  (532) 
A1 - monomer

>  <Crystalforms upload name>  (532) 
F7 - A712A_x4207_8.1_refmac1_1st_ref

>  <ConformerSites short tag>  (532) 
1b - A0911/A/147

>  <CanonSites short tag>  (532) 
1 - A0911/A/147/1

>  <CrystalformSites short tag>  (532) 
F7r - A4303/C/201

>  <Quatassemblies short tag>  (532) 
A1 - monomer

>  <Crystalforms short tag>  (532) 
F7 - A712A_x4207_8.1_refmac1_1st_ref

>  <Centroid res>  (532) 
A71EV2A-x0911/A/133/A_v1

>  <Experiment code>  (532) 
A71EV2A-x4986

>  <Pose>  (532) 
A4986a

$$$$
A4935a
     RDKit          3D

 19 20  0  0  0  0  0  0  0  0999 V2000
   10.3810   16.6330   19.1670 O   0  0  0  0  0  0  0  0  0  0  0  0
   10.7400   15.4950   19.4790 C   0  0  0  0  0  0  0  0  0  0  0  0
   11.1450   14.6080   18.5910 N   0  0  0  0  0  0  0  0  0  0  0  0
   10.7160   15.0300   20.9260 C   0  0  1  0  0  0  0  0  0  0  0  0
   11.7260   15.7980   21.7950 C   0  0  0  0  0  0  0  0  0  0  0  0
   11.7040   15.3070   23.2550 C   0  0  0  0  0  0  0  0  0  0  0  0
   10.2960   15.3790   23.8170 C   0  0  0  0  0  0  0  0  0  0  0  0
    9.3280   15.1820   21.5540 C   0  0  0  0  0  0  0  0  0  0  0  0
    9.3390   14.6860   22.9340 N   0  0  0  0  0  0  0  0  0  0  0  0
    8.4650   13.7310   23.3350 C   0  0  0  0  0  0  0  0  0  0  0  0
    7.6820   13.2050   22.5620 O   0  0  0  0  0  0  0  0  0  0  0  0
    8.4720   13.3720   24.8090 C   0  0  0  0  0  0  0  0  0  0  0  0
    7.7800   12.0830   25.1750 C   0  0  0  0  0  0  0  0  0  0  0  0
    6.7500   12.0100   26.0640 C   0  0  0  0  0  0  0  0  0  0  0  0
    6.1770   10.4240   26.2580 S   0  0  0  0  0  0  0  0  0  0  0  0
    7.3320    9.7890   25.1640 C   0  0  0  0  0  0  0  0  0  0  0  0
    8.1160   10.7680   24.6580 C   0  0  0  0  0  0  0  0  0  0  0  0
    9.4000   10.5550   23.4900 S   0  0  0  0  0  0  0  0  0  0  0  0
    9.4280    8.7860   23.2190 C   0  0  0  0  0  0  0  0  0  0  0  0
 19 18  1  0
 18 17  1  0
 17 16  2  0
 16 15  1  0
 15 14  1  0
 14 13  2  0
 17 13  1  0
 13 12  1  0
 12 10  1  0
 11 10  2  0
 10  9  1  0
  9  7  1  0
  7  6  1  0
  6  5  1  0
  5  4  1  0
  4  2  1  6
  3  2  1  0
  2  1  2  0
  8  4  1  0
  9  8  1  0
M  END
>  <id>  (533) 
533

>  <inchikey>  (533) 
ZVMJXFQDYDQURV-VIFPVBQESA-N

>  <alias>  (533) 
A4935a

>  <smiles>  (533) 
CSc1cscc1CC(=O)N1CCC[C@H](C(N)=O)C1

>  <path>  (533) 
/opt/xchem-fragalysis-2/maxwin/BulkDock/TARGETS/A71EV2A/aligned_files/A4935a/A4935a.pdb

>  <distance_score>  (533) 
None

>  <energy_score>  (533) 
None

>  <compound>  (533) 
ZVMJXFQDYDQURV-UHFFFAOYSA-N

>  <compound_id>  (533) 
392

>  <target>  (533) 
A71EV2A

>  <tags>  (533) 
['GOOD count', 'MEDIOCRE count', '[Other] S1 site', 'hits', '[Other] upload_3 2025-03-06', '[Other] S2 site', '[Other] P3 compound design', '[Series] Piperidine series', 'Main status', 'BAD count']

>  <inspirations>  (533) 
None

>  <subsites>  (533) 
None

>  <reference>  (533) 


>  <observation_longname>  (533) 
A71EV2A-x4935_A_201_v3

>  <ConformerSites alias>  (533) 
1b - A0911/A/147

>  <CanonSites alias>  (533) 
1 - Active Site

>  <CrystalformSites alias>  (533) 
F8h - A0884/A/147

>  <Quatassemblies alias>  (533) 
A1 - monomer

>  <Crystalforms alias>  (533) 
F8 - A712A_x4271_2.1_refmac1_1st_ref

>  <ConformerSites upload name>  (533) 
1b - A71EV2A-x0911/A/147

>  <CanonSites upload name>  (533) 
1 - A71EV2A-x0911/A/147/1

>  <CrystalformSites upload name>  (533) 
F8h - A71EV2A-x0884/A/147/1

>  <Quatassemblies upload name>  (533) 
A1 - monomer

>  <Crystalforms upload name>  (533) 
F8 - A712A_x4271_2.1_refmac1_1st_ref

>  <ConformerSites short tag>  (533) 
1b - A0911/A/147

>  <CanonSites short tag>  (533) 
1 - A0911/A/147/1

>  <CrystalformSites short tag>  (533) 
F8h - A0884/A/147

>  <Quatassemblies short tag>  (533) 
A1 - monomer

>  <Crystalforms short tag>  (533) 
F8 - A712A_x4271_2.1_refmac1_1st_ref

>  <Centroid res>  (533) 
A71EV2A-x0911/A/133/A_v1

>  <Experiment code>  (533) 
A71EV2A-x4935

>  <Pose>  (533) 
A4935a

$$$$
A4940a
     RDKit          3D

 21 22  0  0  0  0  0  0  0  0999 V2000
   10.4510   16.8870   19.3070 O   0  0  0  0  0  0  0  0  0  0  0  0
   10.9050   15.7580   19.5160 C   0  0  0  0  0  0  0  0  0  0  0  0
   11.2620   14.9370   18.5390 N   0  0  0  0  0  0  0  0  0  0  0  0
   11.0180   15.2430   20.9620 C   0  0  1  0  0  0  0  0  0  0  0  0
   11.7490   14.0150   21.0610 O   0  0  0  0  0  0  0  0  0  0  0  0
   11.7190   16.2690   21.8600 C   0  0  0  0  0  0  0  0  0  0  0  0
   11.6890   15.8420   23.3250 C   0  0  0  0  0  0  0  0  0  0  0  0
   10.2610   15.5960   23.7720 C   0  0  0  0  0  0  0  0  0  0  0  0
    9.5930   15.0380   21.4510 C   0  0  0  0  0  0  0  0  0  0  0  0
    9.5370   14.6800   22.8740 N   0  0  0  0  0  0  0  0  0  0  0  0
    8.6570   13.7430   23.2950 C   0  0  0  0  0  0  0  0  0  0  0  0
    7.7830   13.3010   22.5630 O   0  0  0  0  0  0  0  0  0  0  0  0
    8.7180   13.3590   24.7650 C   0  0  0  0  0  0  0  0  0  0  0  0
    7.8730   12.1520   25.1120 C   0  0  0  0  0  0  0  0  0  0  0  0
    8.1480   10.8600   24.6370 C   0  0  0  0  0  0  0  0  0  0  0  0
    9.5640   10.6680   23.6000 S   0  0  0  0  0  0  0  0  0  0  0  0
    9.5970    8.9100   23.2600 C   0  0  0  0  0  0  0  0  0  0  0  0
    6.8120   12.3100   26.0060 C   0  0  0  0  0  0  0  0  0  0  0  0
    6.0490   11.2260   26.4120 C   0  0  0  0  0  0  0  0  0  0  0  0
    6.3210    9.9670   25.9240 C   0  0  0  0  0  0  0  0  0  0  0  0
    7.3640    9.7760   25.0290 C   0  0  0  0  0  0  0  0  0  0  0  0
 17 16  1  0
 16 15  1  0
 15 21  2  0
 21 20  1  0
 20 19  2  0
 19 18  1  0
 18 14  2  0
 15 14  1  0
 14 13  1  0
 13 11  1  0
 12 11  2  0
 11 10  1  0
 10  8  1  0
  8  7  1  0
  7  6  1  0
  6  4  1  0
  4  5  1  6
  4  2  1  0
  3  2  1  0
  2  1  2  0
  9  4  1  0
 10  9  1  0
M  END
>  <id>  (534) 
534

>  <inchikey>  (534) 
MATXBLKTWRNYBE-OAHLLOKOSA-N

>  <alias>  (534) 
A4940a

>  <smiles>  (534) 
CSc1ccccc1CC(=O)N1CCC[C@](O)(C(N)=O)C1

>  <path>  (534) 
/opt/xchem-fragalysis-2/maxwin/BulkDock/TARGETS/A71EV2A/aligned_files/A4940a/A4940a.pdb

>  <distance_score>  (534) 
None

>  <energy_score>  (534) 
None

>  <compound>  (534) 
MATXBLKTWRNYBE-UHFFFAOYSA-N

>  <compound_id>  (534) 
377

>  <target>  (534) 
A71EV2A

>  <tags>  (534) 
['GOOD count', 'MEDIOCRE count', '[Other] S1 site', 'hits', '[Other] S2 site', '[Other] upload_6_2025-02-13', '[Other] P3 compound design', '[Other] upload_1 2025-02-12', 'Main status', '[Series] Piperidine series', 'BAD count']

>  <inspirations>  (534) 
None

>  <subsites>  (534) 
None

>  <reference>  (534) 


>  <observation_longname>  (534) 
A71EV2A-x4940_A_201_v1

>  <ConformerSites alias>  (534) 
1b - A0911/A/147

>  <CanonSites alias>  (534) 
1 - Active Site

>  <CrystalformSites alias>  (534) 
F8h - A0884/A/147

>  <Quatassemblies alias>  (534) 
A1 - monomer

>  <Crystalforms alias>  (534) 
F8 - A712A_x4271_2.1_refmac1_1st_ref

>  <ConformerSites upload name>  (534) 
1b - A71EV2A-x0911/A/147

>  <CanonSites upload name>  (534) 
1 - A71EV2A-x0911/A/147/1

>  <CrystalformSites upload name>  (534) 
F8h - A71EV2A-x0884/A/147/1

>  <Quatassemblies upload name>  (534) 
A1 - monomer

>  <Crystalforms upload name>  (534) 
F8 - A712A_x4271_2.1_refmac1_1st_ref

>  <ConformerSites short tag>  (534) 
1b - A0911/A/147

>  <CanonSites short tag>  (534) 
1 - A0911/A/147/1

>  <CrystalformSites short tag>  (534) 
F8h - A0884/A/147

>  <Quatassemblies short tag>  (534) 
A1 - monomer

>  <Crystalforms short tag>  (534) 
F8 - A712A_x4271_2.1_refmac1_1st_ref

>  <Centroid res>  (534) 
A71EV2A-x0911/A/133/A_v1

>  <Experiment code>  (534) 
A71EV2A-x4940

>  <Pose>  (534) 
A4940a

$$$$
A4943a
     RDKit          3D

 21 23  0  0  0  0  0  0  0  0999 V2000
    7.1340   13.5700   22.1050 O   0  0  0  0  0  0  0  0  0  0  0  0
    7.8980   13.9360   22.9780 C   0  0  0  0  0  0  0  0  0  0  0  0
    8.8490   14.8900   22.7510 N   0  0  0  0  0  0  0  0  0  0  0  0
    9.8000   15.4690   23.7180 C   0  0  0  0  0  0  0  0  0  0  0  0
   11.2420   15.2550   23.2700 C   0  0  0  0  0  0  0  0  0  0  0  0
   11.4420   15.7920   21.8350 C   0  0  0  0  0  0  0  0  0  0  0  0
    9.0060   15.4240   21.3920 C   0  0  0  0  0  0  0  0  0  0  0  0
   10.4220   15.1270   20.8860 C   0  0  1  0  0  0  0  0  0  0  0  0
   10.5620   15.6160   19.4530 C   0  0  0  0  0  0  0  0  0  0  0  0
   10.2830   16.7840   19.1420 O   0  0  0  0  0  0  0  0  0  0  0  0
   10.9000   14.6840   18.5560 N   0  0  0  0  0  0  0  0  0  0  0  0
    7.7330   13.3620   24.3840 C   0  0  2  0  0  0  0  0  0  0  0  0
    7.9840   11.8660   24.2990 C   0  0  0  0  0  0  0  0  0  0  0  0
    8.9910   11.3950   23.4560 C   0  0  0  0  0  0  0  0  0  0  0  0
    9.1960   10.0360   23.2560 C   0  0  0  0  0  0  0  0  0  0  0  0
    8.3960    9.1250   23.9070 C   0  0  0  0  0  0  0  0  0  0  0  0
    7.4300    9.5600   24.7940 C   0  0  0  0  0  0  0  0  0  0  0  0
    7.2170   10.9240   24.9980 C   0  0  0  0  0  0  0  0  0  0  0  0
    5.9630   11.3090   26.1990 S   0  0  0  0  0  0  0  0  0  0  0  0
    6.0250   13.1050   26.2790 C   0  0  0  0  0  0  0  0  0  0  0  0
    6.3030   13.6740   24.8920 C   0  0  0  0  0  0  0  0  0  0  0  0
 11  9  1  0
 10  9  2  0
  8  9  1  6
  8  6  1  0
  6  5  1  0
  5  4  1  0
  4  3  1  0
  3  2  1  0
  2  1  2  0
 12  2  1  6
 12 21  1  0
 21 20  1  0
 20 19  1  0
 19 18  1  0
 18 17  1  0
 17 16  2  0
 16 15  1  0
 15 14  2  0
 14 13  1  0
 18 13  2  0
 13 12  1  0
  7  3  1  0
  8  7  1  0
M  END
>  <id>  (535) 
535

>  <inchikey>  (535) 
CIPSLIIOJPGGQL-AAEUAGOBSA-N

>  <alias>  (535) 
A4943a

>  <smiles>  (535) 
NC(=O)[C@H]1CCCN(C(=O)[C@H]2CCSc3ccccc32)C1

>  <path>  (535) 
/opt/xchem-fragalysis-2/maxwin/BulkDock/TARGETS/A71EV2A/aligned_files/A4943a/A4943a_hippo.pdb

>  <distance_score>  (535) 
None

>  <energy_score>  (535) 
None

>  <compound>  (535) 
CIPSLIIOJPGGQL-UHFFFAOYSA-N

>  <compound_id>  (535) 
340

>  <target>  (535) 
A71EV2A

>  <tags>  (535) 
['GOOD count', 'MEDIOCRE count', '[Other] S1 site', 'hits', '[Other] S2 site', '[Other] upload_6_2025-02-13', '[Other] P3 compound design', '[Other] upload_1 2025-02-12', 'Main status', '[Series] Piperidine series', 'BAD count']

>  <inspirations>  (535) 
None

>  <subsites>  (535) 
None

>  <reference>  (535) 


>  <observation_longname>  (535) 
A71EV2A-x4943_A_201_v1

>  <ConformerSites alias>  (535) 
1b - A0911/A/147

>  <CanonSites alias>  (535) 
1 - Active Site

>  <CrystalformSites alias>  (535) 
F7q - A4303/A/201

>  <Quatassemblies alias>  (535) 
A1 - monomer

>  <Crystalforms alias>  (535) 
F7 - A712A_x4207_8.1_refmac1_1st_ref

>  <ConformerSites upload name>  (535) 
1b - A71EV2A-x0911/A/147

>  <CanonSites upload name>  (535) 
1 - A71EV2A-x0911/A/147/1

>  <CrystalformSites upload name>  (535) 
F7q - A71EV2A-x4303/A/201/1

>  <Quatassemblies upload name>  (535) 
A1 - monomer

>  <Crystalforms upload name>  (535) 
F7 - A712A_x4207_8.1_refmac1_1st_ref

>  <ConformerSites short tag>  (535) 
1b - A0911/A/147

>  <CanonSites short tag>  (535) 
1 - A0911/A/147/1

>  <CrystalformSites short tag>  (535) 
F7q - A4303/A/201

>  <Quatassemblies short tag>  (535) 
A1 - monomer

>  <Crystalforms short tag>  (535) 
F7 - A712A_x4207_8.1_refmac1_1st_ref

>  <Centroid res>  (535) 
A71EV2A-x0911/A/133/A_v1

>  <Experiment code>  (535) 
A71EV2A-x4943

>  <Pose>  (535) 
A4943a

$$$$
A4943b
     RDKit          3D

 21 23  0  0  0  0  0  0  0  0999 V2000
    7.3440   13.4930   22.3240 O   0  0  0  0  0  0  0  0  0  0  0  0
    8.1280   13.9080   23.1540 C   0  0  0  0  0  0  0  0  0  0  0  0
    9.0140   14.9070   22.8750 N   0  0  0  0  0  0  0  0  0  0  0  0
    9.9670   15.5500   23.7860 C   0  0  0  0  0  0  0  0  0  0  0  0
   11.3900   15.3920   23.2930 C   0  0  0  0  0  0  0  0  0  0  0  0
   11.5410   15.8760   21.8350 C   0  0  0  0  0  0  0  0  0  0  0  0
    9.0950   15.4160   21.5010 C   0  0  0  0  0  0  0  0  0  0  0  0
   10.5050   15.1740   20.9340 C   0  0  1  0  0  0  0  0  0  0  0  0
   10.5910   15.6560   19.4960 C   0  0  0  0  0  0  0  0  0  0  0  0
   10.2310   16.8110   19.1850 O   0  0  0  0  0  0  0  0  0  0  0  0
   10.8920   14.7180   18.5950 N   0  0  0  0  0  0  0  0  0  0  0  0
    8.0810   13.3430   24.5710 C   0  0  2  0  0  0  0  0  0  0  0  0
    8.2610   11.8410   24.4320 C   0  0  0  0  0  0  0  0  0  0  0  0
    9.2490   11.3700   23.5690 C   0  0  0  0  0  0  0  0  0  0  0  0
    9.4130   10.0080   23.3480 C   0  0  0  0  0  0  0  0  0  0  0  0
    8.6200    9.1000   23.9990 C   0  0  0  0  0  0  0  0  0  0  0  0
    7.6670    9.5350   24.8970 C   0  0  0  0  0  0  0  0  0  0  0  0
    7.4780   10.9020   25.1140 C   0  0  0  0  0  0  0  0  0  0  0  0
    6.2490   11.2890   26.3110 S   0  0  0  0  0  0  0  0  0  0  0  0
    6.3050   13.0710   26.4670 C   0  0  0  0  0  0  0  0  0  0  0  0
    6.6620   13.7090   25.1340 C   0  0  0  0  0  0  0  0  0  0  0  0
 11  9  1  0
 10  9  2  0
  8  9  1  6
  8  6  1  0
  6  5  1  0
  5  4  1  0
  4  3  1  0
  3  2  1  0
  2  1  2  0
 12  2  1  6
 12 21  1  0
 21 20  1  0
 20 19  1  0
 19 18  1  0
 18 17  1  0
 17 16  2  0
 16 15  1  0
 15 14  2  0
 14 13  1  0
 18 13  2  0
 13 12  1  0
  7  3  1  0
  8  7  1  0
M  END
>  <id>  (536) 
536

>  <inchikey>  (536) 
CIPSLIIOJPGGQL-AAEUAGOBSA-N

>  <alias>  (536) 
A4943b

>  <smiles>  (536) 
NC(=O)[C@H]1CCCN(C(=O)[C@H]2CCSc3ccccc32)C1

>  <path>  (536) 
/opt/xchem-fragalysis-2/maxwin/BulkDock/TARGETS/A71EV2A/aligned_files/A4943b/A4943b_hippo.pdb

>  <distance_score>  (536) 
None

>  <energy_score>  (536) 
None

>  <compound>  (536) 
CIPSLIIOJPGGQL-UHFFFAOYSA-N

>  <compound_id>  (536) 
340

>  <target>  (536) 
A71EV2A

>  <tags>  (536) 
['GOOD count', 'MEDIOCRE count', '[Other] S1 site', 'hits', '[Other] S2 site', '[Other] upload_6_2025-02-13', '[Other] P3 compound design', '[Other] upload_1 2025-02-12', 'Main status', '[Series] Piperidine series', 'BAD count']

>  <inspirations>  (536) 
None

>  <subsites>  (536) 
None

>  <reference>  (536) 


>  <observation_longname>  (536) 
A71EV2A-x4943_C_201_v1

>  <ConformerSites alias>  (536) 
1b - A0911/A/147

>  <CanonSites alias>  (536) 
1 - Active Site

>  <CrystalformSites alias>  (536) 
F7r - A4303/C/201

>  <Quatassemblies alias>  (536) 
A1 - monomer

>  <Crystalforms alias>  (536) 
F7 - A712A_x4207_8.1_refmac1_1st_ref

>  <ConformerSites upload name>  (536) 
1b - A71EV2A-x0911/A/147

>  <CanonSites upload name>  (536) 
1 - A71EV2A-x0911/A/147/1

>  <CrystalformSites upload name>  (536) 
F7r - A71EV2A-x4303/C/201/1

>  <Quatassemblies upload name>  (536) 
A1 - monomer

>  <Crystalforms upload name>  (536) 
F7 - A712A_x4207_8.1_refmac1_1st_ref

>  <ConformerSites short tag>  (536) 
1b - A0911/A/147

>  <CanonSites short tag>  (536) 
1 - A0911/A/147/1

>  <CrystalformSites short tag>  (536) 
F7r - A4303/C/201

>  <Quatassemblies short tag>  (536) 
A1 - monomer

>  <Crystalforms short tag>  (536) 
F7 - A712A_x4207_8.1_refmac1_1st_ref

>  <Centroid res>  (536) 
A71EV2A-x0911/A/133/A_v1

>  <Experiment code>  (536) 
A71EV2A-x4943

>  <Pose>  (536) 
A4943a

$$$$
A4947a
     RDKit          3D

 20 22  0  0  0  0  0  0  0  0999 V2000
    9.9880   16.5460   18.8740 O   0  0  0  0  0  0  0  0  0  0  0  0
   10.5480   15.5410   19.3020 C   0  0  0  0  0  0  0  0  0  0  0  0
   11.0560   14.6170   18.4960 N   0  0  0  0  0  0  0  0  0  0  0  0
   10.6030   15.2850   20.8010 C   0  0  2  0  0  0  0  0  0  0  0  0
   11.6360   15.9950   21.6420 C   0  0  0  0  0  0  0  0  0  0  0  0
   11.6440   14.4920   21.5690 C   0  0  1  0  0  0  0  0  0  0  0  0
   10.9350   13.7660   22.7070 C   0  0  0  0  0  0  0  0  0  0  0  0
    9.2560   15.0660   21.4830 C   0  0  0  0  0  0  0  0  0  0  0  0
    9.5650   14.2910   22.6850 N   0  0  0  0  0  0  0  0  0  0  0  0
    8.5970   14.1040   23.6140 C   0  0  0  0  0  0  0  0  0  0  0  0
    7.4430   14.4970   23.4500 O   0  0  0  0  0  0  0  0  0  0  0  0
    8.9840   13.3390   24.8650 C   0  0  0  0  0  0  0  0  0  0  0  0
    7.9220   12.3130   25.2030 C   0  0  0  0  0  0  0  0  0  0  0  0
    7.9710   11.0030   24.7100 C   0  0  0  0  0  0  0  0  0  0  0  0
    9.1440   10.6710   23.4230 S   0  0  0  0  0  0  0  0  0  0  0  0
    9.1680    8.8760   23.3480 C   0  0  0  0  0  0  0  0  0  0  0  0
    6.9210   12.6370   26.1210 C   0  0  0  0  0  0  0  0  0  0  0  0
    6.0410   11.6740   26.5860 C   0  0  0  0  0  0  0  0  0  0  0  0
    6.1310   10.3770   26.1290 C   0  0  0  0  0  0  0  0  0  0  0  0
    7.0880   10.0350   25.1860 C   0  0  0  0  0  0  0  0  0  0  0  0
 16 15  1  0
 15 14  1  0
 14 20  2  0
 20 19  1  0
 19 18  2  0
 18 17  1  0
 17 13  2  0
 14 13  1  0
 13 12  1  0
 12 10  1  0
 11 10  2  0
 10  9  1  0
  9  7  1  0
  6  7  1  1
  6  5  1  0
  5  4  1  0
  6  4  1  0
  4  2  1  6
  3  2  1  0
  2  1  2  0
  8  4  1  0
  9  8  1  0
M  END
>  <id>  (537) 
537

>  <inchikey>  (537) 
AOZJVCFGWITQNR-NHYWBVRUSA-N

>  <alias>  (537) 
A4947a

>  <smiles>  (537) 
CSc1ccccc1CC(=O)N1C[C@@H]2C[C@]2(C(N)=O)C1

>  <path>  (537) 
/opt/xchem-fragalysis-2/maxwin/BulkDock/TARGETS/A71EV2A/aligned_files/A4947a/A4947a.pdb

>  <distance_score>  (537) 
None

>  <energy_score>  (537) 
None

>  <compound>  (537) 
AOZJVCFGWITQNR-UHFFFAOYSA-N

>  <compound_id>  (537) 
393

>  <target>  (537) 
A71EV2A

>  <tags>  (537) 
['GOOD count', 'MEDIOCRE count', '[Other] S1 site', 'hits', '[Other] S2 site', '[Other] upload_6_2025-02-13', '[Other] P3 compound design', '[Other] upload_1 2025-02-12', 'Main status', '[Series] Piperidine series', 'BAD count']

>  <inspirations>  (537) 
None

>  <subsites>  (537) 
None

>  <reference>  (537) 


>  <observation_longname>  (537) 
A71EV2A-x4947_A_201_v1

>  <ConformerSites alias>  (537) 
1b - A0911/A/147

>  <CanonSites alias>  (537) 
1 - Active Site

>  <CrystalformSites alias>  (537) 
F5i - A3175/A/201

>  <Quatassemblies alias>  (537) 
A1 - monomer

>  <Crystalforms alias>  (537) 
F5 - A71EV2A_x3178_new_long_dials_041024

>  <ConformerSites upload name>  (537) 
1b - A71EV2A-x0911/A/147

>  <CanonSites upload name>  (537) 
1 - A71EV2A-x0911/A/147/1

>  <CrystalformSites upload name>  (537) 
F5i - A71EV2A-x3175/A/201/1

>  <Quatassemblies upload name>  (537) 
A1 - monomer

>  <Crystalforms upload name>  (537) 
F5 - A71EV2A_x3178_new_long_dials_041024

>  <ConformerSites short tag>  (537) 
1b - A0911/A/147

>  <CanonSites short tag>  (537) 
1 - A0911/A/147/1

>  <CrystalformSites short tag>  (537) 
F5i - A3175/A/201

>  <Quatassemblies short tag>  (537) 
A1 - monomer

>  <Crystalforms short tag>  (537) 
F5 - A71EV2A_x3178_new_long_dials_041024

>  <Centroid res>  (537) 
A71EV2A-x0911/A/133/A_v1

>  <Experiment code>  (537) 
A71EV2A-x4947

>  <Pose>  (537) 
A4947a

$$$$
A4949a
     RDKit          3D

 25 27  0  0  0  0  0  0  0  0999 V2000
    3.6850    8.8950   28.0860 O   0  0  0  0  0  0  0  0  0  0  0  0
    4.6090    9.6570   27.8320 C   0  0  0  0  0  0  0  0  0  0  0  0
    5.4370    9.4330   26.7890 N   0  0  0  0  0  0  0  0  0  0  0  0
    6.3540   10.3670   26.3110 C   0  0  0  0  0  0  0  0  0  0  0  0
    7.3550    9.9730   25.4210 C   0  0  0  0  0  0  0  0  0  0  0  0
    4.8050   10.9460   28.5790 C   0  0  0  0  0  0  0  0  0  0  0  0
    5.1470   12.1070   27.6670 C   0  0  0  0  0  0  0  0  0  0  0  0
    6.1800   11.7170   26.6390 C   0  0  0  0  0  0  0  0  0  0  0  0
    6.9740   12.6670   26.0130 C   0  0  0  0  0  0  0  0  0  0  0  0
    7.9580   12.2970   25.0980 C   0  0  0  0  0  0  0  0  0  0  0  0
    8.1610   10.9340   24.8140 C   0  0  0  0  0  0  0  0  0  0  0  0
    9.4820   10.5130   23.7150 S   0  0  0  0  0  0  0  0  0  0  0  0
    9.2530    8.7560   23.4270 C   0  0  0  0  0  0  0  0  0  0  0  0
    8.7590   13.2830   24.4960 N   0  0  0  0  0  0  0  0  0  0  0  0
    8.6340   13.7390   23.2250 C   0  0  0  0  0  0  0  0  0  0  0  0
    7.7720   13.3300   22.4620 O   0  0  0  0  0  0  0  0  0  0  0  0
    9.5140   14.7130   22.8510 N   0  0  0  0  0  0  0  0  0  0  0  0
    9.4870   15.2580   21.4910 C   0  0  0  0  0  0  0  0  0  0  0  0
   10.8090   14.9430   20.7810 C   0  0  1  0  0  0  0  0  0  0  0  0
   10.8020   15.4840   19.3610 C   0  0  0  0  0  0  0  0  0  0  0  0
   10.6290   16.6820   19.1330 O   0  0  0  0  0  0  0  0  0  0  0  0
   10.9340   14.5950   18.4010 N   0  0  0  0  0  0  0  0  0  0  0  0
   11.9620   15.5350   21.6120 C   0  0  0  0  0  0  0  0  0  0  0  0
   11.9340   15.0410   23.0750 C   0  0  0  0  0  0  0  0  0  0  0  0
   10.5720   15.2790   23.7010 C   0  0  0  0  0  0  0  0  0  0  0  0
 13 12  1  0
 12 11  1  0
 11  5  1  0
  5  4  2  0
  4  8  1  0
  9  8  2  0
 10  9  1  0
 11 10  2  0
 14 10  1  0
 15 14  1  0
 16 15  2  0
 17 15  1  0
 17 25  1  0
 25 24  1  0
 24 23  1  0
 23 19  1  0
 19 20  1  6
 22 20  1  0
 21 20  2  0
 19 18  1  0
 18 17  1  0
  8  7  1  0
  7  6  1  0
  6  2  1  0
  2  1  2  0
  3  2  1  0
  4  3  1  0
M  END
>  <id>  (538) 
538

>  <inchikey>  (538) 
HCSAFLQJXYLSLY-NSHDSACASA-N

>  <alias>  (538) 
A4949a

>  <smiles>  (538) 
CSc1cc2c(cc1NC(=O)N1CCC[C@H](C(N)=O)C1)CCC(=O)N2

>  <path>  (538) 
/opt/xchem-fragalysis-2/maxwin/BulkDock/TARGETS/A71EV2A/aligned_files/A4949a/A4949a.pdb

>  <distance_score>  (538) 
None

>  <energy_score>  (538) 
None

>  <compound>  (538) 
HCSAFLQJXYLSLY-UHFFFAOYSA-N

>  <compound_id>  (538) 
394

>  <target>  (538) 
A71EV2A

>  <tags>  (538) 
['GOOD count', 'MEDIOCRE count', '[Other] S1 site', 'hits', '[Other] S2 site', '[Other] upload_6_2025-02-13', '[Other] P3 compound design', '[Other] upload_1 2025-02-12', 'Main status', '[Series] Piperidine series', 'BAD count']

>  <inspirations>  (538) 
None

>  <subsites>  (538) 
None

>  <reference>  (538) 


>  <observation_longname>  (538) 
A71EV2A-x4949_A_201_v1

>  <ConformerSites alias>  (538) 
1b - A0911/A/147

>  <CanonSites alias>  (538) 
1 - Active Site

>  <CrystalformSites alias>  (538) 
F8h - A0884/A/147

>  <Quatassemblies alias>  (538) 
A1 - monomer

>  <Crystalforms alias>  (538) 
F8 - A712A_x4271_2.1_refmac1_1st_ref

>  <ConformerSites upload name>  (538) 
1b - A71EV2A-x0911/A/147

>  <CanonSites upload name>  (538) 
1 - A71EV2A-x0911/A/147/1

>  <CrystalformSites upload name>  (538) 
F8h - A71EV2A-x0884/A/147/1

>  <Quatassemblies upload name>  (538) 
A1 - monomer

>  <Crystalforms upload name>  (538) 
F8 - A712A_x4271_2.1_refmac1_1st_ref

>  <ConformerSites short tag>  (538) 
1b - A0911/A/147

>  <CanonSites short tag>  (538) 
1 - A0911/A/147/1

>  <CrystalformSites short tag>  (538) 
F8h - A0884/A/147

>  <Quatassemblies short tag>  (538) 
A1 - monomer

>  <Crystalforms short tag>  (538) 
F8 - A712A_x4271_2.1_refmac1_1st_ref

>  <Centroid res>  (538) 
A71EV2A-x0911/A/133/A_v1

>  <Experiment code>  (538) 
A71EV2A-x4949

>  <Pose>  (538) 
A4949a

$$$$
A4954a
     RDKit          3D

 18 19  0  0  0  0  0  0  0  0999 V2000
   11.2410   14.6450   25.0230 O   0  0  0  0  0  0  0  0  0  0  0  0
   11.1550   14.7090   23.8040 C   0  0  0  0  0  0  0  0  0  0  0  0
   12.3800   14.9550   22.9630 C   0  0  0  0  0  0  0  0  0  0  0  0
   12.1180   15.4870   21.5480 C   0  0  0  0  0  0  0  0  0  0  0  0
   10.9630   14.7290   20.8910 C   0  0  2  0  0  0  0  0  0  0  0  0
   10.6860   15.2330   19.4840 C   0  0  0  0  0  0  0  0  0  0  0  0
   10.1760   16.3450   19.2920 O   0  0  0  0  0  0  0  0  0  0  0  0
   11.0710   14.4380   18.5000 N   0  0  0  0  0  0  0  0  0  0  0  0
    9.7030   14.9040   21.7480 C   0  0  0  0  0  0  0  0  0  0  0  0
    9.9700   14.5860   23.1570 N   0  0  0  0  0  0  0  0  0  0  0  0
    8.7680   14.3430   23.9290 C   0  0  0  0  0  0  0  0  0  0  0  0
    8.5070   12.8810   24.1600 C   0  0  0  0  0  0  0  0  0  0  0  0
    9.5320   11.6700   23.4890 S   0  0  0  0  0  0  0  0  0  0  0  0
    8.6380   10.4160   24.2440 C   0  0  0  0  0  0  0  0  0  0  0  0
    7.6020   10.9040   24.9700 C   0  0  0  0  0  0  0  0  0  0  0  0
    7.5230   12.3270   24.9150 C   0  0  0  0  0  0  0  0  0  0  0  0
    6.4650   13.1620   25.5840 C   0  0  0  0  0  0  0  0  0  0  0  0
    5.9990   12.6390   26.9180 C   0  0  0  0  0  0  0  0  0  0  0  0
 18 17  1  0
 17 16  1  0
 16 15  1  0
 15 14  2  0
 14 13  1  0
 13 12  1  0
 16 12  2  0
 12 11  1  0
 11 10  1  0
 10  9  1  0
  9  5  1  0
  5  6  1  6
  8  6  1  0
  7  6  2  0
  5  4  1  0
  4  3  1  0
  3  2  1  0
 10  2  1  0
  2  1  2  0
M  END
>  <id>  (539) 
539

>  <inchikey>  (539) 
HYQKQMFDHNHXPW-JTQLQIEISA-N

>  <alias>  (539) 
A4954a

>  <smiles>  (539) 
CCc1ccsc1CN1C[C@@H](C(N)=O)CCC1=O

>  <path>  (539) 
/opt/xchem-fragalysis-2/maxwin/BulkDock/TARGETS/A71EV2A/aligned_files/A4954a/A4954a.pdb

>  <distance_score>  (539) 
None

>  <energy_score>  (539) 
None

>  <compound>  (539) 
HYQKQMFDHNHXPW-UHFFFAOYSA-N

>  <compound_id>  (539) 
395

>  <target>  (539) 
A71EV2A

>  <tags>  (539) 
['GOOD count', 'MEDIOCRE count', '[Other] S1 site', 'hits', '[Other] S2 site', '[Other] upload_6_2025-02-13', '[Other] P3 compound design', '[Other] upload_1 2025-02-12', 'Main status', '[Series] Piperidine series', 'BAD count']

>  <inspirations>  (539) 
None

>  <subsites>  (539) 
None

>  <reference>  (539) 


>  <observation_longname>  (539) 
A71EV2A-x4954_A_201_v1

>  <ConformerSites alias>  (539) 
1b - A0911/A/147

>  <CanonSites alias>  (539) 
1 - Active Site

>  <CrystalformSites alias>  (539) 
F1a - A0375/A/201

>  <Quatassemblies alias>  (539) 
A1 - monomer

>  <Crystalforms alias>  (539) 
F1 - A71_2A_open

>  <ConformerSites upload name>  (539) 
1b - A71EV2A-x0911/A/147

>  <CanonSites upload name>  (539) 
1 - A71EV2A-x0911/A/147/1

>  <CrystalformSites upload name>  (539) 
F1a - A71EV2A-x0375/A/201/1

>  <Quatassemblies upload name>  (539) 
A1 - monomer

>  <Crystalforms upload name>  (539) 
F1 - A71_2A_open

>  <ConformerSites short tag>  (539) 
1b - A0911/A/147

>  <CanonSites short tag>  (539) 
1 - A0911/A/147/1

>  <CrystalformSites short tag>  (539) 
F1a - A0375/A/201

>  <Quatassemblies short tag>  (539) 
A1 - monomer

>  <Crystalforms short tag>  (539) 
F1 - A71_2A_open

>  <Centroid res>  (539) 
A71EV2A-x0911/A/133/A_v1

>  <Experiment code>  (539) 
A71EV2A-x4954

>  <Pose>  (539) 
A4954a

$$$$
A4959a
     RDKit          3D

 22 24  0  0  0  0  0  0  0  0999 V2000
    7.6190   13.5470   22.4760 O   0  0  0  0  0  0  0  0  0  0  0  0
    8.6100   13.8510   23.1180 C   0  0  0  0  0  0  0  0  0  0  0  0
    9.2850   15.0000   22.8670 N   0  0  0  0  0  0  0  0  0  0  0  0
   10.4170   15.4310   23.6990 C   0  0  0  0  0  0  0  0  0  0  0  0
   11.7440   15.1830   23.0110 C   0  0  0  0  0  0  0  0  0  0  0  0
   11.7290   15.7330   21.5920 C   0  0  0  0  0  0  0  0  0  0  0  0
    9.2890   15.5400   21.5090 C   0  0  0  0  0  0  0  0  0  0  0  0
   10.5750   15.1270   20.7950 C   0  0  1  0  0  0  0  0  0  0  0  0
   10.5730   15.6180   19.3570 C   0  0  0  0  0  0  0  0  0  0  0  0
   10.2990   16.7810   19.0810 O   0  0  0  0  0  0  0  0  0  0  0  0
   10.8660   14.7060   18.4510 N   0  0  0  0  0  0  0  0  0  0  0  0
    9.0990   13.0900   24.1310 N   0  0  0  0  0  0  0  0  0  0  0  0
    8.5600   11.8520   24.5250 C   0  0  0  0  0  0  0  0  0  0  0  0
    7.4170   11.8310   25.3340 C   0  0  0  0  0  0  0  0  0  0  0  0
    6.8390   13.3940   25.9420 S   0  0  0  0  0  0  0  0  0  0  0  0
    5.5670   13.1130   27.2300 C   0  0  0  0  0  0  0  0  0  0  0  0
    4.4900   12.0990   27.0030 C   0  0  0  0  0  0  0  0  0  0  0  0
    5.4930   11.8870   28.0860 C   0  0  0  0  0  0  0  0  0  0  0  0
    6.8010   10.6170   25.6200 C   0  0  0  0  0  0  0  0  0  0  0  0
    7.3320    9.4400   25.1220 C   0  0  0  0  0  0  0  0  0  0  0  0
    8.4730    9.4580   24.3530 C   0  0  0  0  0  0  0  0  0  0  0  0
    9.0930   10.6570   24.0520 C   0  0  0  0  0  0  0  0  0  0  0  0
 11  9  1  0
 10  9  2  0
  8  9  1  6
  8  6  1  0
  6  5  1  0
  5  4  1  0
  4  3  1  0
  3  2  1  0
  2  1  2  0
 12  2  1  0
 13 12  1  0
 13 22  1  0
 22 21  2  0
 21 20  1  0
 20 19  2  0
 19 14  1  0
 14 13  2  0
 15 14  1  0
 16 15  1  0
 16 18  1  0
 18 17  1  0
 17 16  1  0
  7  3  1  0
  8  7  1  0
M  END
>  <id>  (540) 
540

>  <inchikey>  (540) 
NRHXRDKTQQQCFH-NSHDSACASA-N

>  <alias>  (540) 
A4959a

>  <smiles>  (540) 
NC(=O)[C@H]1CCCN(C(=O)Nc2ccccc2SC2CC2)C1

>  <path>  (540) 
/opt/xchem-fragalysis-2/maxwin/BulkDock/TARGETS/A71EV2A/aligned_files/A4959a/A4959a_hippo.pdb

>  <distance_score>  (540) 
None

>  <energy_score>  (540) 
None

>  <compound>  (540) 
NRHXRDKTQQQCFH-UHFFFAOYSA-N

>  <compound_id>  (540) 
396

>  <target>  (540) 
A71EV2A

>  <tags>  (540) 
['GOOD count', 'MEDIOCRE count', '[Other] S1 site', 'hits', '[Other] S2 site', '[Other] upload_6_2025-02-13', '[Other] P3 compound design', '[Other] upload_1 2025-02-12', 'Main status', '[Series] Piperidine series', 'BAD count']

>  <inspirations>  (540) 
None

>  <subsites>  (540) 
None

>  <reference>  (540) 


>  <observation_longname>  (540) 
A71EV2A-x4959_A_201_v1

>  <ConformerSites alias>  (540) 
1b - A0911/A/147

>  <CanonSites alias>  (540) 
1 - Active Site

>  <CrystalformSites alias>  (540) 
F7q - A4303/A/201

>  <Quatassemblies alias>  (540) 
A1 - monomer

>  <Crystalforms alias>  (540) 
F7 - A712A_x4207_8.1_refmac1_1st_ref

>  <ConformerSites upload name>  (540) 
1b - A71EV2A-x0911/A/147

>  <CanonSites upload name>  (540) 
1 - A71EV2A-x0911/A/147/1

>  <CrystalformSites upload name>  (540) 
F7q - A71EV2A-x4303/A/201/1

>  <Quatassemblies upload name>  (540) 
A1 - monomer

>  <Crystalforms upload name>  (540) 
F7 - A712A_x4207_8.1_refmac1_1st_ref

>  <ConformerSites short tag>  (540) 
1b - A0911/A/147

>  <CanonSites short tag>  (540) 
1 - A0911/A/147/1

>  <CrystalformSites short tag>  (540) 
F7q - A4303/A/201

>  <Quatassemblies short tag>  (540) 
A1 - monomer

>  <Crystalforms short tag>  (540) 
F7 - A712A_x4207_8.1_refmac1_1st_ref

>  <Centroid res>  (540) 
A71EV2A-x0911/A/133/A_v1

>  <Experiment code>  (540) 
A71EV2A-x4959

>  <Pose>  (540) 
A4959a

$$$$
A4959b
     RDKit          3D

 22 24  0  0  0  0  0  0  0  0999 V2000
    7.9380   13.4640   22.6080 O   0  0  0  0  0  0  0  0  0  0  0  0
    8.9290   13.8460   23.2370 C   0  0  0  0  0  0  0  0  0  0  0  0
    9.5730   15.0140   22.9340 N   0  0  0  0  0  0  0  0  0  0  0  0
   10.6630   15.6120   23.7260 C   0  0  0  0  0  0  0  0  0  0  0  0
   12.0090   15.3530   23.0650 C   0  0  0  0  0  0  0  0  0  0  0  0
   11.9840   15.7830   21.5860 C   0  0  0  0  0  0  0  0  0  0  0  0
    9.5260   15.4360   21.5340 C   0  0  0  0  0  0  0  0  0  0  0  0
   10.8420   15.0920   20.8290 C   0  0  1  0  0  0  0  0  0  0  0  0
   10.7160   15.6210   19.4110 C   0  0  0  0  0  0  0  0  0  0  0  0
   10.3650   16.7890   19.1910 O   0  0  0  0  0  0  0  0  0  0  0  0
   10.9690   14.7460   18.4510 N   0  0  0  0  0  0  0  0  0  0  0  0
    9.4180   13.1570   24.2960 N   0  0  0  0  0  0  0  0  0  0  0  0
    8.8530   11.9240   24.6730 C   0  0  0  0  0  0  0  0  0  0  0  0
    7.7390   11.9170   25.5210 C   0  0  0  0  0  0  0  0  0  0  0  0
    7.1540   13.4620   26.1610 S   0  0  0  0  0  0  0  0  0  0  0  0
    5.8550   12.9600   27.3480 C   0  0  0  0  0  0  0  0  0  0  0  0
    4.8350   14.0200   27.6370 C   0  0  0  0  0  0  0  0  0  0  0  0
    4.4630   12.8410   26.8030 C   0  0  0  0  0  0  0  0  0  0  0  0
    7.0960   10.7160   25.8080 C   0  0  0  0  0  0  0  0  0  0  0  0
    7.5530    9.5380   25.2360 C   0  0  0  0  0  0  0  0  0  0  0  0
    8.6620    9.5430   24.4110 C   0  0  0  0  0  0  0  0  0  0  0  0
    9.3170   10.7270   24.1270 C   0  0  0  0  0  0  0  0  0  0  0  0
 11  9  1  0
 10  9  2  0
  8  9  1  6
  8  6  1  0
  6  5  1  0
  5  4  1  0
  4  3  1  0
  3  2  1  0
  2  1  2  0
 12  2  1  0
 13 12  1  0
 13 22  1  0
 22 21  2  0
 21 20  1  0
 20 19  2  0
 19 14  1  0
 14 13  2  0
 15 14  1  0
 16 15  1  0
 16 18  1  0
 18 17  1  0
 17 16  1  0
  7  3  1  0
  8  7  1  0
M  END
>  <id>  (541) 
541

>  <inchikey>  (541) 
NRHXRDKTQQQCFH-NSHDSACASA-N

>  <alias>  (541) 
A4959b

>  <smiles>  (541) 
NC(=O)[C@H]1CCCN(C(=O)Nc2ccccc2SC2CC2)C1

>  <path>  (541) 
/opt/xchem-fragalysis-2/maxwin/BulkDock/TARGETS/A71EV2A/aligned_files/A4959b/A4959b_hippo.pdb

>  <distance_score>  (541) 
None

>  <energy_score>  (541) 
None

>  <compound>  (541) 
NRHXRDKTQQQCFH-UHFFFAOYSA-N

>  <compound_id>  (541) 
396

>  <target>  (541) 
A71EV2A

>  <tags>  (541) 
['GOOD count', 'MEDIOCRE count', '[Other] S1 site', 'hits', '[Other] S2 site', '[Other] upload_6_2025-02-13', '[Other] P3 compound design', '[Other] upload_1 2025-02-12', 'Main status', '[Series] Piperidine series', 'BAD count']

>  <inspirations>  (541) 
None

>  <subsites>  (541) 
None

>  <reference>  (541) 


>  <observation_longname>  (541) 
A71EV2A-x4959_C_201_v1

>  <ConformerSites alias>  (541) 
1b - A0911/A/147

>  <CanonSites alias>  (541) 
1 - Active Site

>  <CrystalformSites alias>  (541) 
F7r - A4303/C/201

>  <Quatassemblies alias>  (541) 
A1 - monomer

>  <Crystalforms alias>  (541) 
F7 - A712A_x4207_8.1_refmac1_1st_ref

>  <ConformerSites upload name>  (541) 
1b - A71EV2A-x0911/A/147

>  <CanonSites upload name>  (541) 
1 - A71EV2A-x0911/A/147/1

>  <CrystalformSites upload name>  (541) 
F7r - A71EV2A-x4303/C/201/1

>  <Quatassemblies upload name>  (541) 
A1 - monomer

>  <Crystalforms upload name>  (541) 
F7 - A712A_x4207_8.1_refmac1_1st_ref

>  <ConformerSites short tag>  (541) 
1b - A0911/A/147

>  <CanonSites short tag>  (541) 
1 - A0911/A/147/1

>  <CrystalformSites short tag>  (541) 
F7r - A4303/C/201

>  <Quatassemblies short tag>  (541) 
A1 - monomer

>  <Crystalforms short tag>  (541) 
F7 - A712A_x4207_8.1_refmac1_1st_ref

>  <Centroid res>  (541) 
A71EV2A-x0911/A/133/A_v1

>  <Experiment code>  (541) 
A71EV2A-x4959

>  <Pose>  (541) 
A4959a

$$$$
A4992a
     RDKit          3D

 19 21  0  0  0  0  0  0  0  0999 V2000
   10.3920   16.7080   19.2270 O   0  0  0  0  0  0  0  0  0  0  0  0
   10.7460   15.5440   19.4730 C   0  0  0  0  0  0  0  0  0  0  0  0
   11.1030   14.6750   18.5320 N   0  0  0  0  0  0  0  0  0  0  0  0
   10.7860   15.0210   20.8990 C   0  0  2  0  0  0  0  0  0  0  0  0
    9.3690   14.9670   21.4590 C   0  0  0  0  0  0  0  0  0  0  0  0
   11.6900   15.8260   21.8460 C   0  0  0  0  0  0  0  0  0  0  0  0
   11.7210   15.1630   23.2310 C   0  0  2  0  0  0  0  0  0  0  0  0
   10.5170   14.3770   23.6400 C   0  0  1  0  0  0  0  0  0  0  0  0
   10.8360   15.6670   24.3320 C   0  0  0  0  0  0  0  0  0  0  0  0
    9.3300   14.2780   22.7540 N   0  0  0  0  0  0  0  0  0  0  0  0
    8.1980   13.6090   23.0850 C   0  0  0  0  0  0  0  0  0  0  0  0
    7.2800   13.4600   22.2820 O   0  0  0  0  0  0  0  0  0  0  0  0
    8.0920   13.0380   24.4810 C   0  0  0  0  0  0  0  0  0  0  0  0
    8.3300   11.5530   24.4150 C   0  0  0  0  0  0  0  0  0  0  0  0
    9.2320   10.9240   23.5620 C   0  0  0  0  0  0  0  0  0  0  0  0
    7.7050   10.5020   25.0790 C   0  0  0  0  0  0  0  0  0  0  0  0
    8.1550    9.3200   24.6850 N   0  0  0  0  0  0  0  0  0  0  0  0
    9.0880    9.6070   23.7480 N   0  0  0  0  0  0  0  0  0  0  0  0
    9.7700    8.5280   23.0450 C   0  0  0  0  0  0  0  0  0  0  0  0
 19 18  1  0
 18 15  1  0
 15 14  2  0
 14 13  1  0
 13 11  1  0
 12 11  2  0
 11 10  1  0
 10  5  1  0
  5  4  1  0
  4  2  1  6
  3  2  1  0
  2  1  2  0
  6  4  1  0
  7  6  1  6
  7  9  1  0
  8  9  1  1
  8  7  1  0
 10  8  1  0
 16 14  1  0
 17 16  2  0
 18 17  1  0
M  END
>  <id>  (542) 
542

>  <inchikey>  (542) 
RWVQDFULFQCOIU-GARJFASQSA-N

>  <alias>  (542) 
A4992a

>  <smiles>  (542) 
Cn1cc(CC(=O)N2C[C@@H](C(N)=O)C[C@H]3C[C@H]32)cn1

>  <path>  (542) 
/opt/xchem-fragalysis-2/maxwin/BulkDock/TARGETS/A71EV2A/aligned_files/A4992a/A4992a.pdb

>  <distance_score>  (542) 
None

>  <energy_score>  (542) 
None

>  <compound>  (542) 
RWVQDFULFQCOIU-UHFFFAOYSA-N

>  <compound_id>  (542) 
397

>  <target>  (542) 
A71EV2A

>  <tags>  (542) 
['GOOD count', 'MEDIOCRE count', '[Other] S1 site', 'hits', '[Other] S2 site', '[Other] P3 compound design', '[Series] Piperidine series', 'Main status', '[Other] upload_2 2025-02-28', 'BAD count']

>  <inspirations>  (542) 
None

>  <subsites>  (542) 
None

>  <reference>  (542) 


>  <observation_longname>  (542) 
A71EV2A-x4992_A_201_v2

>  <ConformerSites alias>  (542) 
1b - A0911/A/147

>  <CanonSites alias>  (542) 
1 - Active Site

>  <CrystalformSites alias>  (542) 
F8h - A0884/A/147

>  <Quatassemblies alias>  (542) 
A1 - monomer

>  <Crystalforms alias>  (542) 
F8 - A712A_x4271_2.1_refmac1_1st_ref

>  <ConformerSites upload name>  (542) 
1b - A71EV2A-x0911/A/147

>  <CanonSites upload name>  (542) 
1 - A71EV2A-x0911/A/147/1

>  <CrystalformSites upload name>  (542) 
F8h - A71EV2A-x0884/A/147/1

>  <Quatassemblies upload name>  (542) 
A1 - monomer

>  <Crystalforms upload name>  (542) 
F8 - A712A_x4271_2.1_refmac1_1st_ref

>  <ConformerSites short tag>  (542) 
1b - A0911/A/147

>  <CanonSites short tag>  (542) 
1 - A0911/A/147/1

>  <CrystalformSites short tag>  (542) 
F8h - A0884/A/147

>  <Quatassemblies short tag>  (542) 
A1 - monomer

>  <Crystalforms short tag>  (542) 
F8 - A712A_x4271_2.1_refmac1_1st_ref

>  <Centroid res>  (542) 
A71EV2A-x0911/A/133/A_v1

>  <Experiment code>  (542) 
A71EV2A-x4992

>  <Pose>  (542) 
A4992a

$$$$
A4994a
     RDKit          3D

 20 22  0  0  0  0  0  0  0  0999 V2000
   10.2920   16.1340   19.1370 O   0  0  0  0  0  0  0  0  0  0  0  0
   10.8020   15.0320   19.3420 C   0  0  0  0  0  0  0  0  0  0  0  0
   11.4080   14.3370   18.4010 N   0  0  0  0  0  0  0  0  0  0  0  0
   10.7490   14.3840   20.7140 C   0  0  0  0  0  0  0  0  0  0  0  0
    9.4540   14.6560   21.5110 C   0  0  0  0  0  0  0  0  0  0  0  0
   11.5370   15.0240   21.8830 C   0  0  0  0  0  0  0  0  0  0  0  0
   10.3080   14.9140   22.6730 N   0  0  0  0  0  0  0  0  0  0  0  0
   10.1250   14.5220   23.9390 C   0  0  0  0  0  0  0  0  0  0  0  0
   11.0390   14.4430   24.7250 O   0  0  0  0  0  0  0  0  0  0  0  0
    8.6930   14.2310   24.3350 C   0  0  0  0  0  0  0  0  0  0  0  0
    8.3940   12.7640   24.3790 C   0  0  0  0  0  0  0  0  0  0  0  0
    9.0410   11.9360   23.6150 N   0  0  0  0  0  0  0  0  0  0  0  0
    7.4660   12.0670   25.2280 C   0  0  0  0  0  0  0  0  0  0  0  0
    7.6430   10.7230   24.9040 C   0  0  0  0  0  0  0  0  0  0  0  0
    8.6140   10.6810   23.9530 N   0  0  0  0  0  0  0  0  0  0  0  0
    9.4510    9.5510   23.5830 C   0  0  0  0  0  0  0  0  0  0  0  0
    6.9010    9.7270   25.5210 C   0  0  0  0  0  0  0  0  0  0  0  0
    5.9650   10.0950   26.4740 C   0  0  0  0  0  0  0  0  0  0  0  0
    5.7830   11.4260   26.8110 C   0  0  0  0  0  0  0  0  0  0  0  0
    6.5290   12.4170   26.1940 C   0  0  0  0  0  0  0  0  0  0  0  0
 16 15  1  0
 15 12  1  0
 12 11  2  0
 11 10  1  0
 10  8  1  0
  9  8  2  0
  8  7  1  0
  7  5  1  0
  5  4  1  0
  4  2  1  0
  3  2  1  0
  2  1  2  0
  6  4  1  0
  7  6  1  0
 13 11  1  0
 13 20  2  0
 20 19  1  0
 19 18  2  0
 18 17  1  0
 17 14  2  0
 14 13  1  0
 15 14  1  0
M  END
>  <id>  (543) 
543

>  <inchikey>  (543) 
IHURMLZWIOZVMJ-UHFFFAOYSA-N

>  <alias>  (543) 
A4994a

>  <smiles>  (543) 
Cn1nc(CC(=O)N2CC(C(N)=O)C2)c2ccccc21

>  <path>  (543) 
/opt/xchem-fragalysis-2/maxwin/BulkDock/TARGETS/A71EV2A/aligned_files/A4994a/A4994a.pdb

>  <distance_score>  (543) 
None

>  <energy_score>  (543) 
None

>  <compound>  (543) 
IHURMLZWIOZVMJ-UHFFFAOYSA-N

>  <compound_id>  (543) 
398

>  <target>  (543) 
A71EV2A

>  <tags>  (543) 
['GOOD count', 'MEDIOCRE count', '[Other] S1 site', 'hits', '[Other] upload_3 2025-03-06', '[Other] S2 site', '[Other] P3 compound design', '[Series] Piperidine series', 'Main status', 'BAD count']

>  <inspirations>  (543) 
None

>  <subsites>  (543) 
None

>  <reference>  (543) 


>  <observation_longname>  (543) 
A71EV2A-x4994_A_201_v3

>  <ConformerSites alias>  (543) 
1b - A0911/A/147

>  <CanonSites alias>  (543) 
1 - Active Site

>  <CrystalformSites alias>  (543) 
F5i - A3175/A/201

>  <Quatassemblies alias>  (543) 
A1 - monomer

>  <Crystalforms alias>  (543) 
F5 - A71EV2A_x3178_new_long_dials_041024

>  <ConformerSites upload name>  (543) 
1b - A71EV2A-x0911/A/147

>  <CanonSites upload name>  (543) 
1 - A71EV2A-x0911/A/147/1

>  <CrystalformSites upload name>  (543) 
F5i - A71EV2A-x3175/A/201/1

>  <Quatassemblies upload name>  (543) 
A1 - monomer

>  <Crystalforms upload name>  (543) 
F5 - A71EV2A_x3178_new_long_dials_041024

>  <ConformerSites short tag>  (543) 
1b - A0911/A/147

>  <CanonSites short tag>  (543) 
1 - A0911/A/147/1

>  <CrystalformSites short tag>  (543) 
F5i - A3175/A/201

>  <Quatassemblies short tag>  (543) 
A1 - monomer

>  <Crystalforms short tag>  (543) 
F5 - A71EV2A_x3178_new_long_dials_041024

>  <Centroid res>  (543) 
A71EV2A-x0911/A/133/A_v1

>  <Experiment code>  (543) 
A71EV2A-x4994

>  <Pose>  (543) 
A4994a

$$$$
A4998a
     RDKit          3D

 17 18  0  0  0  0  0  0  0  0999 V2000
   12.2620   16.0610   21.3340 O   0  0  0  0  0  0  0  0  0  0  0  0
   11.9070   14.9120   21.0650 C   0  0  0  0  0  0  0  0  0  0  0  0
   11.9380   14.4300   19.8350 N   0  0  0  0  0  0  0  0  0  0  0  0
   11.3740   13.9850   22.1470 C   0  0  0  0  0  0  0  0  0  0  0  0
    9.8440   13.9120   22.3620 C   0  0  0  0  0  0  0  0  0  0  0  0
   11.4940   14.5470   23.5900 C   0  0  0  0  0  0  0  0  0  0  0  0
   10.0640   14.2640   23.7720 N   0  0  0  0  0  0  0  0  0  0  0  0
    9.1810   13.9270   24.7260 C   0  0  0  0  0  0  0  0  0  0  0  0
    9.4470   13.9950   25.8670 O   0  0  0  0  0  0  0  0  0  0  0  0
    7.8370   13.4060   24.3170 C   0  0  0  0  0  0  0  0  0  0  0  0
    7.4430   12.1360   25.0350 C   0  0  0  0  0  0  0  0  0  0  0  0
    6.5290   12.0890   26.0390 C   0  0  0  0  0  0  0  0  0  0  0  0
    6.0490   10.4910   26.3740 S   0  0  0  0  0  0  0  0  0  0  0  0
    7.1030    9.8560   25.1620 C   0  0  0  0  0  0  0  0  0  0  0  0
    7.7960   10.8310   24.5750 C   0  0  0  0  0  0  0  0  0  0  0  0
    9.0940   10.6080   23.4030 S   0  0  0  0  0  0  0  0  0  0  0  0
    8.9990    8.7450   22.9800 C   0  0  0  0  0  0  0  0  0  0  0  0
 17 16  1  0
 16 15  1  0
 15 14  2  0
 14 13  1  0
 13 12  1  0
 12 11  2  0
 15 11  1  0
 11 10  1  0
 10  8  1  0
  9  8  2  0
  8  7  1  0
  7  5  1  0
  5  4  1  0
  4  2  1  0
  3  2  1  0
  2  1  2  0
  6  4  1  0
  7  6  1  0
M  END
>  <id>  (544) 
544

>  <inchikey>  (544) 
BRDCNNNQSVGRBN-UHFFFAOYSA-N

>  <alias>  (544) 
A4998a

>  <smiles>  (544) 
CSc1cscc1CC(=O)N1CC(C(N)=O)C1

>  <path>  (544) 
/opt/xchem-fragalysis-2/maxwin/BulkDock/TARGETS/A71EV2A/aligned_files/A4998a/A4998a_hippo.pdb

>  <distance_score>  (544) 
None

>  <energy_score>  (544) 
None

>  <compound>  (544) 
BRDCNNNQSVGRBN-UHFFFAOYSA-N

>  <compound_id>  (544) 
399

>  <target>  (544) 
A71EV2A

>  <tags>  (544) 
['GOOD count', 'MEDIOCRE count', '[Other] S1 site', 'hits', '[Other] upload_3 2025-03-06', '[Other] S2 site', '[Other] P3 compound design', '[Series] Piperidine series', 'Main status', 'BAD count']

>  <inspirations>  (544) 
None

>  <subsites>  (544) 
None

>  <reference>  (544) 


>  <observation_longname>  (544) 
A71EV2A-x4998_A_201_v3

>  <ConformerSites alias>  (544) 
1b - A0911/A/147

>  <CanonSites alias>  (544) 
1 - Active Site

>  <CrystalformSites alias>  (544) 
F5i - A3175/A/201

>  <Quatassemblies alias>  (544) 
A1 - monomer

>  <Crystalforms alias>  (544) 
F5 - A71EV2A_x3178_new_long_dials_041024

>  <ConformerSites upload name>  (544) 
1b - A71EV2A-x0911/A/147

>  <CanonSites upload name>  (544) 
1 - A71EV2A-x0911/A/147/1

>  <CrystalformSites upload name>  (544) 
F5i - A71EV2A-x3175/A/201/1

>  <Quatassemblies upload name>  (544) 
A1 - monomer

>  <Crystalforms upload name>  (544) 
F5 - A71EV2A_x3178_new_long_dials_041024

>  <ConformerSites short tag>  (544) 
1b - A0911/A/147

>  <CanonSites short tag>  (544) 
1 - A0911/A/147/1

>  <CrystalformSites short tag>  (544) 
F5i - A3175/A/201

>  <Quatassemblies short tag>  (544) 
A1 - monomer

>  <Crystalforms short tag>  (544) 
F5 - A71EV2A_x3178_new_long_dials_041024

>  <Centroid res>  (544) 
A71EV2A-x0911/A/133/A_v1

>  <Experiment code>  (544) 
A71EV2A-x4998

>  <Pose>  (544) 
A4998a

$$$$
A5015a
     RDKit          3D

 20 21  0  0  0  0  0  0  0  0999 V2000
   10.3120   16.7810   19.0700 O   0  0  0  0  0  0  0  0  0  0  0  0
   10.6570   15.6230   19.3330 C   0  0  0  0  0  0  0  0  0  0  0  0
   10.9320   14.7160   18.4010 N   0  0  0  0  0  0  0  0  0  0  0  0
   10.7410   15.1340   20.7680 C   0  0  1  0  0  0  0  0  0  0  0  0
   11.9390   15.7420   21.5230 C   0  0  0  0  0  0  0  0  0  0  0  0
   11.9780   15.2620   22.9860 C   0  0  0  0  0  0  0  0  0  0  0  0
   10.6350   15.5110   23.6670 C   0  0  0  0  0  0  0  0  0  0  0  0
    9.4440   15.4680   21.5090 C   0  0  0  0  0  0  0  0  0  0  0  0
    9.5430   14.9330   22.8670 N   0  0  0  0  0  0  0  0  0  0  0  0
    8.7990   13.8770   23.2380 C   0  0  0  0  0  0  0  0  0  0  0  0
    7.8930   13.4360   22.5410 O   0  0  0  0  0  0  0  0  0  0  0  0
    9.1820   13.2100   24.5390 C   0  0  0  0  0  0  0  0  0  0  0  0
    8.5160   11.8680   24.6800 C   0  0  0  0  0  0  0  0  0  0  0  0
    8.9940   10.7440   24.0160 C   0  0  0  0  0  0  0  0  0  0  0  0
    8.3420    9.5430   24.2070 C   0  0  0  0  0  0  0  0  0  0  0  0
    7.2400    9.5000   25.0390 C   0  0  0  0  0  0  0  0  0  0  0  0
    7.4510   11.8390   25.4900 N   0  0  0  0  0  0  0  0  0  0  0  0
    6.8220   10.6620   25.6720 C   0  0  0  0  0  0  0  0  0  0  0  0
    5.6730   10.6570   26.5820 C   0  0  0  0  0  0  0  0  0  0  0  0
    5.3220   11.6940   27.3270 C   0  0  0  0  0  0  0  0  0  0  0  0
 20 19  2  0
 19 18  1  0
 18 16  2  0
 16 15  1  0
 15 14  2  0
 14 13  1  0
 13 12  1  0
 12 10  1  0
 11 10  2  0
 10  9  1  0
  9  7  1  0
  7  6  1  0
  6  5  1  0
  5  4  1  0
  4  2  1  6
  3  2  1  0
  2  1  2  0
  8  4  1  0
  9  8  1  0
 17 13  2  0
 18 17  1  0
M  END
>  <id>  (545) 
545

>  <inchikey>  (545) 
BMEGHVOHSIRYBH-NSHDSACASA-N

>  <alias>  (545) 
A5015a

>  <smiles>  (545) 
C=Cc1cccc(CC(=O)N2CCC[C@H](C(N)=O)C2)n1

>  <path>  (545) 
/opt/xchem-fragalysis-2/maxwin/BulkDock/TARGETS/A71EV2A/aligned_files/A5015a/A5015a_hippo.pdb

>  <distance_score>  (545) 
None

>  <energy_score>  (545) 
None

>  <compound>  (545) 
BMEGHVOHSIRYBH-UHFFFAOYSA-N

>  <compound_id>  (545) 
400

>  <target>  (545) 
A71EV2A

>  <tags>  (545) 
['GOOD count', 'MEDIOCRE count', '[Other] S1 site', 'hits', '[Other] upload_3 2025-03-06', '[Other] S2 site', '[Other] P3 compound design', '[Series] Piperidine series', 'Main status', 'BAD count']

>  <inspirations>  (545) 
None

>  <subsites>  (545) 
None

>  <reference>  (545) 


>  <observation_longname>  (545) 
A71EV2A-x5015_A_201_v3

>  <ConformerSites alias>  (545) 
1b - A0911/A/147

>  <CanonSites alias>  (545) 
1 - Active Site

>  <CrystalformSites alias>  (545) 
F7q - A4303/A/201

>  <Quatassemblies alias>  (545) 
A1 - monomer

>  <Crystalforms alias>  (545) 
F7 - A712A_x4207_8.1_refmac1_1st_ref

>  <ConformerSites upload name>  (545) 
1b - A71EV2A-x0911/A/147

>  <CanonSites upload name>  (545) 
1 - A71EV2A-x0911/A/147/1

>  <CrystalformSites upload name>  (545) 
F7q - A71EV2A-x4303/A/201/1

>  <Quatassemblies upload name>  (545) 
A1 - monomer

>  <Crystalforms upload name>  (545) 
F7 - A712A_x4207_8.1_refmac1_1st_ref

>  <ConformerSites short tag>  (545) 
1b - A0911/A/147

>  <CanonSites short tag>  (545) 
1 - A0911/A/147/1

>  <CrystalformSites short tag>  (545) 
F7q - A4303/A/201

>  <Quatassemblies short tag>  (545) 
A1 - monomer

>  <Crystalforms short tag>  (545) 
F7 - A712A_x4207_8.1_refmac1_1st_ref

>  <Centroid res>  (545) 
A71EV2A-x0911/A/133/A_v1

>  <Experiment code>  (545) 
A71EV2A-x5015

>  <Pose>  (545) 
A5015a

$$$$
A5015b
     RDKit          3D

 20 21  0  0  0  0  0  0  0  0999 V2000
   10.3910   16.7980   19.1080 O   0  0  0  0  0  0  0  0  0  0  0  0
   10.7600   15.6410   19.3500 C   0  0  0  0  0  0  0  0  0  0  0  0
   11.0120   14.7410   18.4080 N   0  0  0  0  0  0  0  0  0  0  0  0
   10.8870   15.1460   20.7810 C   0  0  1  0  0  0  0  0  0  0  0  0
   12.0890   15.8040   21.4910 C   0  0  0  0  0  0  0  0  0  0  0  0
   12.1770   15.3640   22.9670 C   0  0  0  0  0  0  0  0  0  0  0  0
   10.8390   15.5770   23.6810 C   0  0  0  0  0  0  0  0  0  0  0  0
    9.6030   15.4430   21.5660 C   0  0  0  0  0  0  0  0  0  0  0  0
    9.7540   14.9290   22.9280 N   0  0  0  0  0  0  0  0  0  0  0  0
    9.0530   13.8410   23.3210 C   0  0  0  0  0  0  0  0  0  0  0  0
    8.1290   13.3800   22.6510 O   0  0  0  0  0  0  0  0  0  0  0  0
    9.4860   13.1700   24.6120 C   0  0  0  0  0  0  0  0  0  0  0  0
    8.8450   11.8080   24.7680 C   0  0  0  0  0  0  0  0  0  0  0  0
    9.3130   10.6980   24.0690 C   0  0  0  0  0  0  0  0  0  0  0  0
    8.6600    9.4880   24.2380 C   0  0  0  0  0  0  0  0  0  0  0  0
    7.5660    9.4210   25.0830 C   0  0  0  0  0  0  0  0  0  0  0  0
    7.7780   11.7530   25.5870 N   0  0  0  0  0  0  0  0  0  0  0  0
    7.1530   10.5680   25.7470 C   0  0  0  0  0  0  0  0  0  0  0  0
    6.0000   10.5450   26.6480 C   0  0  0  0  0  0  0  0  0  0  0  0
    5.4790    9.4630   27.1490 C   0  0  0  0  0  0  0  0  0  0  0  0
 20 19  2  0
 19 18  1  0
 18 16  2  0
 16 15  1  0
 15 14  2  0
 14 13  1  0
 13 12  1  0
 12 10  1  0
 11 10  2  0
 10  9  1  0
  9  7  1  0
  7  6  1  0
  6  5  1  0
  5  4  1  0
  4  2  1  6
  3  2  1  0
  2  1  2  0
  8  4  1  0
  9  8  1  0
 17 13  2  0
 18 17  1  0
M  END
>  <id>  (546) 
546

>  <inchikey>  (546) 
BMEGHVOHSIRYBH-NSHDSACASA-N

>  <alias>  (546) 
A5015b

>  <smiles>  (546) 
C=Cc1cccc(CC(=O)N2CCC[C@H](C(N)=O)C2)n1

>  <path>  (546) 
/opt/xchem-fragalysis-2/maxwin/BulkDock/TARGETS/A71EV2A/aligned_files/A5015b/A5015b.pdb

>  <distance_score>  (546) 
None

>  <energy_score>  (546) 
None

>  <compound>  (546) 
BMEGHVOHSIRYBH-UHFFFAOYSA-N

>  <compound_id>  (546) 
400

>  <target>  (546) 
A71EV2A

>  <tags>  (546) 
['GOOD count', 'MEDIOCRE count', '[Other] S1 site', 'hits', '[Other] upload_3 2025-03-06', '[Other] S2 site', '[Other] P3 compound design', '[Series] Piperidine series', 'Main status', 'BAD count']

>  <inspirations>  (546) 
None

>  <subsites>  (546) 
None

>  <reference>  (546) 


>  <observation_longname>  (546) 
A71EV2A-x5015_C_201_v3

>  <ConformerSites alias>  (546) 
1b - A0911/A/147

>  <CanonSites alias>  (546) 
1 - Active Site

>  <CrystalformSites alias>  (546) 
F7r - A4303/C/201

>  <Quatassemblies alias>  (546) 
A1 - monomer

>  <Crystalforms alias>  (546) 
F7 - A712A_x4207_8.1_refmac1_1st_ref

>  <ConformerSites upload name>  (546) 
1b - A71EV2A-x0911/A/147

>  <CanonSites upload name>  (546) 
1 - A71EV2A-x0911/A/147/1

>  <CrystalformSites upload name>  (546) 
F7r - A71EV2A-x4303/C/201/1

>  <Quatassemblies upload name>  (546) 
A1 - monomer

>  <Crystalforms upload name>  (546) 
F7 - A712A_x4207_8.1_refmac1_1st_ref

>  <ConformerSites short tag>  (546) 
1b - A0911/A/147

>  <CanonSites short tag>  (546) 
1 - A0911/A/147/1

>  <CrystalformSites short tag>  (546) 
F7r - A4303/C/201

>  <Quatassemblies short tag>  (546) 
A1 - monomer

>  <Crystalforms short tag>  (546) 
F7 - A712A_x4207_8.1_refmac1_1st_ref

>  <Centroid res>  (546) 
A71EV2A-x0911/A/133/A_v1

>  <Experiment code>  (546) 
A71EV2A-x5015

>  <Pose>  (546) 
A5015a

$$$$
A5016a
     RDKit          3D

 20 21  0  0  0  0  0  0  0  0999 V2000
   10.3340   16.6290   19.3380 O   0  0  0  0  0  0  0  0  0  0  0  0
   10.7580   15.4770   19.4900 C   0  0  0  0  0  0  0  0  0  0  0  0
   11.1570   14.7290   18.4770 N   0  0  0  0  0  0  0  0  0  0  0  0
   10.8780   14.8620   20.8740 C   0  0  1  0  0  0  0  0  0  0  0  0
   11.9930   15.5550   21.6740 C   0  0  0  0  0  0  0  0  0  0  0  0
   12.1170   14.9760   23.0880 C   0  0  0  0  0  0  0  0  0  0  0  0
   10.7860   15.0530   23.8130 C   0  0  0  0  0  0  0  0  0  0  0  0
    9.5630   14.9270   21.6640 C   0  0  0  0  0  0  0  0  0  0  0  0
    9.7250   14.4050   23.0270 N   0  0  0  0  0  0  0  0  0  0  0  0
    8.8760   13.4680   23.5120 C   0  0  0  0  0  0  0  0  0  0  0  0
    8.0150   12.9530   22.8130 O   0  0  0  0  0  0  0  0  0  0  0  0
    9.0110   13.1050   24.9830 C   0  0  0  0  0  0  0  0  0  0  0  0
    8.1790   11.8980   25.3670 C   0  0  0  0  0  0  0  0  0  0  0  0
    8.4090   10.6130   24.8560 C   0  0  0  0  0  0  0  0  0  0  0  0
    9.5960   10.2370   24.1170 C   0  0  0  0  0  0  0  0  0  0  0  0
    9.5900   10.2000   22.8430 C   0  0  0  0  0  0  0  0  0  0  0  0
    7.1130   12.0550   26.2480 C   0  0  0  0  0  0  0  0  0  0  0  0
    6.3100   10.9750   26.5690 C   0  0  0  0  0  0  0  0  0  0  0  0
    6.5810    9.7600   25.9810 C   0  0  0  0  0  0  0  0  0  0  0  0
    7.6000    9.5590   25.1290 N   0  0  0  0  0  0  0  0  0  0  0  0
 16 15  2  0
 15 14  1  0
 14 20  2  0
 20 19  1  0
 19 18  2  0
 18 17  1  0
 17 13  2  0
 14 13  1  0
 13 12  1  0
 12 10  1  0
 11 10  2  0
 10  9  1  0
  9  7  1  0
  7  6  1  0
  6  5  1  0
  5  4  1  0
  4  2  1  6
  3  2  1  0
  2  1  2  0
  8  4  1  0
  9  8  1  0
M  END
>  <id>  (547) 
547

>  <inchikey>  (547) 
LWVTYFMYDOBVLG-LBPRGKRZSA-N

>  <alias>  (547) 
A5016a

>  <smiles>  (547) 
C=Cc1ncccc1CC(=O)N1CCC[C@H](C(N)=O)C1

>  <path>  (547) 
/opt/xchem-fragalysis-2/maxwin/BulkDock/TARGETS/A71EV2A/aligned_files/A5016a/A5016a.pdb

>  <distance_score>  (547) 
None

>  <energy_score>  (547) 
None

>  <compound>  (547) 
LWVTYFMYDOBVLG-UHFFFAOYSA-N

>  <compound_id>  (547) 
401

>  <target>  (547) 
A71EV2A

>  <tags>  (547) 
['GOOD count', 'MEDIOCRE count', '[Other] S1 site', 'hits', '[Other] S2 site', '[Other] upload_6_2025-02-13', '[Other] P3 compound design', '[Series] Piperidine series', 'Main status', 'BAD count']

>  <inspirations>  (547) 
None

>  <subsites>  (547) 
None

>  <reference>  (547) 


>  <observation_longname>  (547) 
A71EV2A-x5016_A_201_v1

>  <ConformerSites alias>  (547) 
1b - A0911/A/147

>  <CanonSites alias>  (547) 
1 - Active Site

>  <CrystalformSites alias>  (547) 
F8h - A0884/A/147

>  <Quatassemblies alias>  (547) 
A1 - monomer

>  <Crystalforms alias>  (547) 
F8 - A712A_x4271_2.1_refmac1_1st_ref

>  <ConformerSites upload name>  (547) 
1b - A71EV2A-x0911/A/147

>  <CanonSites upload name>  (547) 
1 - A71EV2A-x0911/A/147/1

>  <CrystalformSites upload name>  (547) 
F8h - A71EV2A-x0884/A/147/1

>  <Quatassemblies upload name>  (547) 
A1 - monomer

>  <Crystalforms upload name>  (547) 
F8 - A712A_x4271_2.1_refmac1_1st_ref

>  <ConformerSites short tag>  (547) 
1b - A0911/A/147

>  <CanonSites short tag>  (547) 
1 - A0911/A/147/1

>  <CrystalformSites short tag>  (547) 
F8h - A0884/A/147

>  <Quatassemblies short tag>  (547) 
A1 - monomer

>  <Crystalforms short tag>  (547) 
F8 - A712A_x4271_2.1_refmac1_1st_ref

>  <Centroid res>  (547) 
A71EV2A-x0911/A/133/A_v1

>  <Experiment code>  (547) 
A71EV2A-x5016

>  <Pose>  (547) 
A5016a

$$$$
A5022a
     RDKit          3D

 24 26  0  0  0  0  0  0  0  0999 V2000
   10.3950   16.6830   19.0430 O   0  0  0  0  0  0  0  0  0  0  0  0
   10.7390   15.5200   19.2900 C   0  0  0  0  0  0  0  0  0  0  0  0
   10.9670   14.6090   18.3460 N   0  0  0  0  0  0  0  0  0  0  0  0
   10.8600   15.0190   20.7200 C   0  0  1  0  0  0  0  0  0  0  0  0
   11.9910   15.7190   21.4920 C   0  0  0  0  0  0  0  0  0  0  0  0
   12.0440   15.2110   22.9460 C   0  0  0  0  0  0  0  0  0  0  0  0
   10.6910   15.3990   23.6180 C   0  0  0  0  0  0  0  0  0  0  0  0
    9.5300   15.2550   21.4380 C   0  0  0  0  0  0  0  0  0  0  0  0
    9.6190   14.7830   22.8220 N   0  0  0  0  0  0  0  0  0  0  0  0
    8.7190   13.8700   23.2910 C   0  0  0  0  0  0  0  0  0  0  0  0
    7.8100   13.4630   22.5930 O   0  0  0  0  0  0  0  0  0  0  0  0
    8.8710   13.4830   24.5880 N   0  0  0  0  0  0  0  0  0  0  0  0
    7.9810   12.5790   25.2120 C   0  0  0  0  0  0  0  0  0  0  0  0
    8.0970   11.1910   25.0290 C   0  0  0  0  0  0  0  0  0  0  0  0
    9.4950   10.6320   24.1300 S   0  0  0  0  0  0  0  0  0  0  0  0
    9.1980    8.8520   24.0010 C   0  0  0  0  0  0  0  0  0  0  0  0
    6.9250   13.0700   25.9700 C   0  0  0  0  0  0  0  0  0  0  0  0
    6.0110   12.1780   26.5210 C   0  0  0  0  0  0  0  0  0  0  0  0
    4.8680   12.6930   27.3570 C   0  0  0  0  0  0  0  0  0  0  0  0
    4.0820   11.6180   28.0940 C   0  0  0  0  0  0  0  0  0  0  0  0
    3.9180   10.3540   27.2650 C   0  0  0  0  0  0  0  0  0  0  0  0
    5.2440    9.7620   26.8100 C   0  0  0  0  0  0  0  0  0  0  0  0
    6.2000   10.7940   26.2650 C   0  0  0  0  0  0  0  0  0  0  0  0
    7.2210   10.3230   25.5360 N   0  0  0  0  0  0  0  0  0  0  0  0
 16 15  1  0
 15 14  1  0
 14 24  2  0
 24 23  1  0
 23 18  2  0
 18 17  1  0
 17 13  2  0
 14 13  1  0
 13 12  1  0
 12 10  1  0
 11 10  2  0
 10  9  1  0
  9  7  1  0
  7  6  1  0
  6  5  1  0
  5  4  1  0
  4  2  1  6
  3  2  1  0
  2  1  2  0
  8  4  1  0
  9  8  1  0
 19 18  1  0
 20 19  1  0
 21 20  1  0
 22 21  1  0
 23 22  1  0
M  END
>  <id>  (548) 
548

>  <inchikey>  (548) 
CTFZKMLNMWYZII-LBPRGKRZSA-N

>  <alias>  (548) 
A5022a

>  <smiles>  (548) 
CSc1nc2c(cc1NC(=O)N1CCC[C@H](C(N)=O)C1)CCCC2

>  <path>  (548) 
/opt/xchem-fragalysis-2/maxwin/BulkDock/TARGETS/A71EV2A/aligned_files/A5022a/A5022a_hippo.pdb

>  <distance_score>  (548) 
None

>  <energy_score>  (548) 
None

>  <compound>  (548) 
CTFZKMLNMWYZII-UHFFFAOYSA-N

>  <compound_id>  (548) 
402

>  <target>  (548) 
A71EV2A

>  <tags>  (548) 
['GOOD count', 'MEDIOCRE count', '[Other] S1 site', 'hits', '[Other] S2 site', '[Other] upload_6_2025-02-13', '[Other] P3 compound design', '[Series] Piperidine series', 'Main status', 'BAD count']

>  <inspirations>  (548) 
None

>  <subsites>  (548) 
None

>  <reference>  (548) 


>  <observation_longname>  (548) 
A71EV2A-x5022_A_201_v1

>  <ConformerSites alias>  (548) 
1b - A0911/A/147

>  <CanonSites alias>  (548) 
1 - Active Site

>  <CrystalformSites alias>  (548) 
F7q - A4303/A/201

>  <Quatassemblies alias>  (548) 
A1 - monomer

>  <Crystalforms alias>  (548) 
F7 - A712A_x4207_8.1_refmac1_1st_ref

>  <ConformerSites upload name>  (548) 
1b - A71EV2A-x0911/A/147

>  <CanonSites upload name>  (548) 
1 - A71EV2A-x0911/A/147/1

>  <CrystalformSites upload name>  (548) 
F7q - A71EV2A-x4303/A/201/1

>  <Quatassemblies upload name>  (548) 
A1 - monomer

>  <Crystalforms upload name>  (548) 
F7 - A712A_x4207_8.1_refmac1_1st_ref

>  <ConformerSites short tag>  (548) 
1b - A0911/A/147

>  <CanonSites short tag>  (548) 
1 - A0911/A/147/1

>  <CrystalformSites short tag>  (548) 
F7q - A4303/A/201

>  <Quatassemblies short tag>  (548) 
A1 - monomer

>  <Crystalforms short tag>  (548) 
F7 - A712A_x4207_8.1_refmac1_1st_ref

>  <Centroid res>  (548) 
A71EV2A-x0911/A/133/A_v1

>  <Experiment code>  (548) 
A71EV2A-x5022

>  <Pose>  (548) 
A5022a

$$$$
A5022b
     RDKit          3D

 24 26  0  0  0  0  0  0  0  0999 V2000
   10.3920   16.7050   19.0810 O   0  0  0  0  0  0  0  0  0  0  0  0
   10.7490   15.5370   19.3170 C   0  0  0  0  0  0  0  0  0  0  0  0
   10.9430   14.6240   18.3680 N   0  0  0  0  0  0  0  0  0  0  0  0
   10.9320   15.0460   20.7420 C   0  0  1  0  0  0  0  0  0  0  0  0
   12.0620   15.8050   21.4660 C   0  0  0  0  0  0  0  0  0  0  0  0
   12.1790   15.3500   22.9360 C   0  0  0  0  0  0  0  0  0  0  0  0
   10.8400   15.4900   23.6460 C   0  0  0  0  0  0  0  0  0  0  0  0
    9.6240   15.2350   21.5150 C   0  0  0  0  0  0  0  0  0  0  0  0
    9.7890   14.7800   22.8970 N   0  0  0  0  0  0  0  0  0  0  0  0
    8.9320   13.8370   23.3980 C   0  0  0  0  0  0  0  0  0  0  0  0
    7.9910   13.3950   22.7360 O   0  0  0  0  0  0  0  0  0  0  0  0
    9.1660   13.4420   24.6860 N   0  0  0  0  0  0  0  0  0  0  0  0
    8.3180   12.5100   25.3350 C   0  0  0  0  0  0  0  0  0  0  0  0
    8.4350   11.1310   25.0840 C   0  0  0  0  0  0  0  0  0  0  0  0
    9.7540   10.5900   24.0550 S   0  0  0  0  0  0  0  0  0  0  0  0
    9.4740    8.7980   23.9790 C   0  0  0  0  0  0  0  0  0  0  0  0
    7.3160   12.9730   26.1830 C   0  0  0  0  0  0  0  0  0  0  0  0
    6.4420   12.0570   26.7680 C   0  0  0  0  0  0  0  0  0  0  0  0
    5.4640   12.5030   27.8300 C   0  0  0  0  0  0  0  0  0  0  0  0
    4.5090   11.4050   28.3130 C   0  0  0  0  0  0  0  0  0  0  0  0
    5.1120   10.0100   28.3270 C   0  0  0  0  0  0  0  0  0  0  0  0
    5.6620    9.6440   26.9620 C   0  0  0  0  0  0  0  0  0  0  0  0
    6.6040   10.6910   26.4280 C   0  0  0  0  0  0  0  0  0  0  0  0
    7.5810   10.2510   25.6170 N   0  0  0  0  0  0  0  0  0  0  0  0
 16 15  1  0
 15 14  1  0
 14 24  2  0
 24 23  1  0
 23 18  2  0
 18 17  1  0
 17 13  2  0
 14 13  1  0
 13 12  1  0
 12 10  1  0
 11 10  2  0
 10  9  1  0
  9  7  1  0
  7  6  1  0
  6  5  1  0
  5  4  1  0
  4  2  1  6
  3  2  1  0
  2  1  2  0
  8  4  1  0
  9  8  1  0
 19 18  1  0
 20 19  1  0
 21 20  1  0
 22 21  1  0
 23 22  1  0
M  END
>  <id>  (549) 
549

>  <inchikey>  (549) 
CTFZKMLNMWYZII-LBPRGKRZSA-N

>  <alias>  (549) 
A5022b

>  <smiles>  (549) 
CSc1nc2c(cc1NC(=O)N1CCC[C@H](C(N)=O)C1)CCCC2

>  <path>  (549) 
/opt/xchem-fragalysis-2/maxwin/BulkDock/TARGETS/A71EV2A/aligned_files/A5022b/A5022b.pdb

>  <distance_score>  (549) 
None

>  <energy_score>  (549) 
None

>  <compound>  (549) 
CTFZKMLNMWYZII-UHFFFAOYSA-N

>  <compound_id>  (549) 
402

>  <target>  (549) 
A71EV2A

>  <tags>  (549) 
['GOOD count', 'MEDIOCRE count', '[Other] S1 site', 'hits', '[Other] S2 site', '[Other] upload_6_2025-02-13', '[Other] P3 compound design', '[Series] Piperidine series', 'Main status', 'BAD count']

>  <inspirations>  (549) 
None

>  <subsites>  (549) 
None

>  <reference>  (549) 


>  <observation_longname>  (549) 
A71EV2A-x5022_C_201_v1

>  <ConformerSites alias>  (549) 
1b - A0911/A/147

>  <CanonSites alias>  (549) 
1 - Active Site

>  <CrystalformSites alias>  (549) 
F7r - A4303/C/201

>  <Quatassemblies alias>  (549) 
A1 - monomer

>  <Crystalforms alias>  (549) 
F7 - A712A_x4207_8.1_refmac1_1st_ref

>  <ConformerSites upload name>  (549) 
1b - A71EV2A-x0911/A/147

>  <CanonSites upload name>  (549) 
1 - A71EV2A-x0911/A/147/1

>  <CrystalformSites upload name>  (549) 
F7r - A71EV2A-x4303/C/201/1

>  <Quatassemblies upload name>  (549) 
A1 - monomer

>  <Crystalforms upload name>  (549) 
F7 - A712A_x4207_8.1_refmac1_1st_ref

>  <ConformerSites short tag>  (549) 
1b - A0911/A/147

>  <CanonSites short tag>  (549) 
1 - A0911/A/147/1

>  <CrystalformSites short tag>  (549) 
F7r - A4303/C/201

>  <Quatassemblies short tag>  (549) 
A1 - monomer

>  <Crystalforms short tag>  (549) 
F7 - A712A_x4207_8.1_refmac1_1st_ref

>  <Centroid res>  (549) 
A71EV2A-x0911/A/133/A_v1

>  <Experiment code>  (549) 
A71EV2A-x5022

>  <Pose>  (549) 
A5022a

$$$$
A5036a
     RDKit          3D

 19 20  0  0  0  0  0  0  0  0999 V2000
   10.9160   14.7620   25.1440 O   0  0  0  0  0  0  0  0  0  0  0  0
   10.8830   14.8970   23.9310 C   0  0  0  0  0  0  0  0  0  0  0  0
   12.1550   15.1670   23.1640 C   0  0  0  0  0  0  0  0  0  0  0  0
   11.9390   15.6590   21.7290 C   0  0  0  0  0  0  0  0  0  0  0  0
   10.8380   14.8690   21.0040 C   0  0  2  0  0  0  0  0  0  0  0  0
   10.6480   15.3880   19.5880 C   0  0  0  0  0  0  0  0  0  0  0  0
   10.2410   16.5340   19.3790 O   0  0  0  0  0  0  0  0  0  0  0  0
   10.9520   14.5510   18.6080 N   0  0  0  0  0  0  0  0  0  0  0  0
    9.5340   15.0410   21.8000 C   0  0  0  0  0  0  0  0  0  0  0  0
    9.7270   14.8140   23.2390 N   0  0  0  0  0  0  0  0  0  0  0  0
    8.4660   14.5840   23.9550 C   0  0  0  0  0  0  0  0  0  0  0  0
    8.2010   13.1310   24.2680 C   0  0  0  0  0  0  0  0  0  0  0  0
    7.1800   12.7660   25.1390 C   0  0  0  0  0  0  0  0  0  0  0  0
    6.9100   11.4310   25.3970 C   0  0  0  0  0  0  0  0  0  0  0  0
    7.6490   10.4360   24.7820 C   0  0  0  0  0  0  0  0  0  0  0  0
    8.9510   12.1310   23.6600 C   0  0  0  0  0  0  0  0  0  0  0  0
    8.6620   10.7960   23.9050 C   0  0  0  0  0  0  0  0  0  0  0  0
    9.4710    9.9870   23.1570 O   0  0  0  0  0  0  0  0  0  0  0  0
    9.2600    8.5790   23.2280 C   0  0  0  0  0  0  0  0  0  0  0  0
 19 18  1  0
 18 17  1  0
 17 15  2  0
 15 14  1  0
 14 13  2  0
 13 12  1  0
 12 11  1  0
 11 10  1  0
 10  9  1  0
  9  5  1  0
  5  6  1  6
  8  6  1  0
  7  6  2  0
  5  4  1  0
  4  3  1  0
  3  2  1  0
 10  2  1  0
  2  1  2  0
 16 12  2  0
 17 16  1  0
M  END
>  <id>  (550) 
550

>  <inchikey>  (550) 
XEGDUXBUYNOVQA-NSHDSACASA-N

>  <alias>  (550) 
A5036a

>  <smiles>  (550) 
COc1cccc(CN2C[C@@H](C(N)=O)CCC2=O)c1

>  <path>  (550) 
/opt/xchem-fragalysis-2/maxwin/BulkDock/TARGETS/A71EV2A/aligned_files/A5036a/A5036a_hippo.pdb

>  <distance_score>  (550) 
None

>  <energy_score>  (550) 
None

>  <compound>  (550) 
XEGDUXBUYNOVQA-UHFFFAOYSA-N

>  <compound_id>  (550) 
403

>  <target>  (550) 
A71EV2A

>  <tags>  (550) 
['GOOD count', 'MEDIOCRE count', '[Other] S1 site', 'hits', '[Other] S2 site', '[Other] P3 compound design', '[Series] Piperidine series', 'Main status', '[Other] upload_2 2025-02-28', 'BAD count']

>  <inspirations>  (550) 
None

>  <subsites>  (550) 
None

>  <reference>  (550) 


>  <observation_longname>  (550) 
A71EV2A-x5036_A_201_v2

>  <ConformerSites alias>  (550) 
1b - A0911/A/147

>  <CanonSites alias>  (550) 
1 - Active Site

>  <CrystalformSites alias>  (550) 
F6o - A4214/A/201

>  <Quatassemblies alias>  (550) 
A1 - monomer

>  <Crystalforms alias>  (550) 
F6 - short_long_x4018

>  <ConformerSites upload name>  (550) 
1b - A71EV2A-x0911/A/147

>  <CanonSites upload name>  (550) 
1 - A71EV2A-x0911/A/147/1

>  <CrystalformSites upload name>  (550) 
F6o - A71EV2A-x4214/A/201/1

>  <Quatassemblies upload name>  (550) 
A1 - monomer

>  <Crystalforms upload name>  (550) 
F6 - short_long_x4018

>  <ConformerSites short tag>  (550) 
1b - A0911/A/147

>  <CanonSites short tag>  (550) 
1 - A0911/A/147/1

>  <CrystalformSites short tag>  (550) 
F6o - A4214/A/201

>  <Quatassemblies short tag>  (550) 
A1 - monomer

>  <Crystalforms short tag>  (550) 
F6 - short_long_x4018

>  <Centroid res>  (550) 
A71EV2A-x0911/A/133/A_v1

>  <Experiment code>  (550) 
A71EV2A-x5036

>  <Pose>  (550) 
A5036a

$$$$
A5036b
     RDKit          3D

 19 20  0  0  0  0  0  0  0  0999 V2000
   11.3970   14.8490   25.0710 O   0  0  0  0  0  0  0  0  0  0  0  0
   11.2920   14.9550   23.8590 C   0  0  0  0  0  0  0  0  0  0  0  0
   12.5150   15.2140   23.0160 C   0  0  0  0  0  0  0  0  0  0  0  0
   12.2220   15.7510   21.6140 C   0  0  0  0  0  0  0  0  0  0  0  0
   11.0750   14.9740   20.9460 C   0  0  2  0  0  0  0  0  0  0  0  0
   10.8260   15.4780   19.5340 C   0  0  0  0  0  0  0  0  0  0  0  0
   10.4620   16.6390   19.3250 O   0  0  0  0  0  0  0  0  0  0  0  0
   10.9980   14.5960   18.5610 N   0  0  0  0  0  0  0  0  0  0  0  0
    9.8270   15.1610   21.8200 C   0  0  0  0  0  0  0  0  0  0  0  0
   10.0990   14.8460   23.2270 N   0  0  0  0  0  0  0  0  0  0  0  0
    8.9100   14.4440   23.9790 C   0  0  0  0  0  0  0  0  0  0  0  0
    8.7200   12.9480   24.0750 C   0  0  0  0  0  0  0  0  0  0  0  0
    9.5550   12.0630   23.4040 C   0  0  0  0  0  0  0  0  0  0  0  0
    9.4330   10.6940   23.5860 C   0  0  0  0  0  0  0  0  0  0  0  0
    8.4700   10.1890   24.4380 C   0  0  0  0  0  0  0  0  0  0  0  0
    7.7380   12.4370   24.9140 C   0  0  0  0  0  0  0  0  0  0  0  0
    7.6180   11.0670   25.0950 C   0  0  0  0  0  0  0  0  0  0  0  0
    6.6470   10.5270   25.9010 O   0  0  0  0  0  0  0  0  0  0  0  0
    5.7850   11.4260   26.6090 C   0  0  0  0  0  0  0  0  0  0  0  0
 19 18  1  0
 18 17  1  0
 17 15  2  0
 15 14  1  0
 14 13  2  0
 13 12  1  0
 12 11  1  0
 11 10  1  0
 10  9  1  0
  9  5  1  0
  5  6  1  6
  8  6  1  0
  7  6  2  0
  5  4  1  0
  4  3  1  0
  3  2  1  0
 10  2  1  0
  2  1  2  0
 16 12  2  0
 17 16  1  0
M  END
>  <id>  (551) 
551

>  <inchikey>  (551) 
XEGDUXBUYNOVQA-NSHDSACASA-N

>  <alias>  (551) 
A5036b

>  <smiles>  (551) 
COc1cccc(CN2C[C@@H](C(N)=O)CCC2=O)c1

>  <path>  (551) 
/opt/xchem-fragalysis-2/maxwin/BulkDock/TARGETS/A71EV2A/aligned_files/A5036b/A5036b.pdb

>  <distance_score>  (551) 
None

>  <energy_score>  (551) 
None

>  <compound>  (551) 
XEGDUXBUYNOVQA-UHFFFAOYSA-N

>  <compound_id>  (551) 
403

>  <target>  (551) 
A71EV2A

>  <tags>  (551) 
['GOOD count', 'MEDIOCRE count', '[Other] S1 site', 'hits', '[Other] S2 site', '[Other] P3 compound design', '[Series] Piperidine series', 'Main status', '[Other] upload_2 2025-02-28', 'BAD count']

>  <inspirations>  (551) 
None

>  <subsites>  (551) 
None

>  <reference>  (551) 


>  <observation_longname>  (551) 
A71EV2A-x5036_C_201_v2

>  <ConformerSites alias>  (551) 
1b - A0911/A/147

>  <CanonSites alias>  (551) 
1 - Active Site

>  <CrystalformSites alias>  (551) 
F6p - A4214/C/201

>  <Quatassemblies alias>  (551) 
A1 - monomer

>  <Crystalforms alias>  (551) 
F6 - short_long_x4018

>  <ConformerSites upload name>  (551) 
1b - A71EV2A-x0911/A/147

>  <CanonSites upload name>  (551) 
1 - A71EV2A-x0911/A/147/1

>  <CrystalformSites upload name>  (551) 
F6p - A71EV2A-x4214/C/201/1

>  <Quatassemblies upload name>  (551) 
A1 - monomer

>  <Crystalforms upload name>  (551) 
F6 - short_long_x4018

>  <ConformerSites short tag>  (551) 
1b - A0911/A/147

>  <CanonSites short tag>  (551) 
1 - A0911/A/147/1

>  <CrystalformSites short tag>  (551) 
F6p - A4214/C/201

>  <Quatassemblies short tag>  (551) 
A1 - monomer

>  <Crystalforms short tag>  (551) 
F6 - short_long_x4018

>  <Centroid res>  (551) 
A71EV2A-x0911/A/133/A_v1

>  <Experiment code>  (551) 
A71EV2A-x5036

>  <Pose>  (551) 
A5036a

$$$$
A5039a
     RDKit          3D

 20 21  0  0  0  0  0  0  0  0999 V2000
   10.2690   16.6650   19.2090 O   0  0  0  0  0  0  0  0  0  0  0  0
   10.6400   15.5140   19.4450 C   0  0  0  0  0  0  0  0  0  0  0  0
   11.0020   14.6690   18.4900 N   0  0  0  0  0  0  0  0  0  0  0  0
   10.6750   14.9750   20.8640 C   0  0  1  0  0  0  0  0  0  0  0  0
   11.7250   15.7190   21.7120 C   0  0  0  0  0  0  0  0  0  0  0  0
   11.7410   15.1990   23.1550 C   0  0  0  0  0  0  0  0  0  0  0  0
   10.3640   15.3230   23.7670 C   0  0  0  0  0  0  0  0  0  0  0  0
    9.3030   15.1510   21.5260 C   0  0  0  0  0  0  0  0  0  0  0  0
    9.3440   14.6890   22.9160 N   0  0  0  0  0  0  0  0  0  0  0  0
    8.4850   13.7380   23.3480 C   0  0  0  0  0  0  0  0  0  0  0  0
    7.6260   13.2670   22.6210 O   0  0  0  0  0  0  0  0  0  0  0  0
    8.5870   13.3350   24.8080 C   0  0  0  0  0  0  0  0  0  0  0  0
    7.7350   12.1300   25.1410 C   0  0  0  0  0  0  0  0  0  0  0  0
    8.0120   10.8060   24.7270 C   0  0  0  0  0  0  0  0  0  0  0  0
    9.4500   10.5480   23.7580 S   0  0  0  0  0  0  0  0  0  0  0  0
    9.4460    8.7570   23.5340 C   0  0  0  0  0  0  0  0  0  0  0  0
    6.6240   12.2400   25.9610 C   0  0  0  0  0  0  0  0  0  0  0  0
    5.8570   11.2130   26.3280 N   0  0  0  0  0  0  0  0  0  0  0  0
    6.2160   10.0360   25.8440 C   0  0  0  0  0  0  0  0  0  0  0  0
    7.2580    9.7640   25.0560 N   0  0  0  0  0  0  0  0  0  0  0  0
 16 15  1  0
 15 14  1  0
 14 20  2  0
 20 19  1  0
 19 18  2  0
 18 17  1  0
 17 13  2  0
 14 13  1  0
 13 12  1  0
 12 10  1  0
 11 10  2  0
 10  9  1  0
  9  7  1  0
  7  6  1  0
  6  5  1  0
  5  4  1  0
  4  2  1  6
  3  2  1  0
  2  1  2  0
  8  4  1  0
  9  8  1  0
M  END
>  <id>  (552) 
552

>  <inchikey>  (552) 
VHSVZDNSBFAAEB-VIFPVBQESA-N

>  <alias>  (552) 
A5039a

>  <smiles>  (552) 
CSc1ncncc1CC(=O)N1CCC[C@H](C(N)=O)C1

>  <path>  (552) 
/opt/xchem-fragalysis-2/maxwin/BulkDock/TARGETS/A71EV2A/aligned_files/A5039a/A5039a_hippo.pdb

>  <distance_score>  (552) 
None

>  <energy_score>  (552) 
None

>  <compound>  (552) 
VHSVZDNSBFAAEB-UHFFFAOYSA-N

>  <compound_id>  (552) 
404

>  <target>  (552) 
A71EV2A

>  <tags>  (552) 
['GOOD count', 'MEDIOCRE count', '[Other] S1 site', 'hits', '[Other] S2 site', '[Other] P3 compound design', '[Series] Piperidine series', 'Main status', '[Other] upload_2 2025-02-28', 'BAD count']

>  <inspirations>  (552) 
None

>  <subsites>  (552) 
None

>  <reference>  (552) 


>  <observation_longname>  (552) 
A71EV2A-x5039_A_201_v2

>  <ConformerSites alias>  (552) 
1b - A0911/A/147

>  <CanonSites alias>  (552) 
1 - Active Site

>  <CrystalformSites alias>  (552) 
F7q - A4303/A/201

>  <Quatassemblies alias>  (552) 
A1 - monomer

>  <Crystalforms alias>  (552) 
F7 - A712A_x4207_8.1_refmac1_1st_ref

>  <ConformerSites upload name>  (552) 
1b - A71EV2A-x0911/A/147

>  <CanonSites upload name>  (552) 
1 - A71EV2A-x0911/A/147/1

>  <CrystalformSites upload name>  (552) 
F7q - A71EV2A-x4303/A/201/1

>  <Quatassemblies upload name>  (552) 
A1 - monomer

>  <Crystalforms upload name>  (552) 
F7 - A712A_x4207_8.1_refmac1_1st_ref

>  <ConformerSites short tag>  (552) 
1b - A0911/A/147

>  <CanonSites short tag>  (552) 
1 - A0911/A/147/1

>  <CrystalformSites short tag>  (552) 
F7q - A4303/A/201

>  <Quatassemblies short tag>  (552) 
A1 - monomer

>  <Crystalforms short tag>  (552) 
F7 - A712A_x4207_8.1_refmac1_1st_ref

>  <Centroid res>  (552) 
A71EV2A-x0911/A/133/A_v1

>  <Experiment code>  (552) 
A71EV2A-x5039

>  <Pose>  (552) 
A5039a

$$$$
A5039b
     RDKit          3D

 20 21  0  0  0  0  0  0  0  0999 V2000
   10.3300   16.6570   19.2430 O   0  0  0  0  0  0  0  0  0  0  0  0
   10.7370   15.5050   19.4530 C   0  0  0  0  0  0  0  0  0  0  0  0
   11.0910   14.6710   18.4840 N   0  0  0  0  0  0  0  0  0  0  0  0
   10.8380   14.9590   20.8670 C   0  0  1  0  0  0  0  0  0  0  0  0
   11.9230   15.7120   21.6600 C   0  0  0  0  0  0  0  0  0  0  0  0
   11.9910   15.2180   23.1110 C   0  0  0  0  0  0  0  0  0  0  0  0
   10.6220   15.3210   23.7820 C   0  0  0  0  0  0  0  0  0  0  0  0
    9.4860   15.1180   21.5840 C   0  0  0  0  0  0  0  0  0  0  0  0
    9.5950   14.6430   22.9670 N   0  0  0  0  0  0  0  0  0  0  0  0
    8.7760   13.6540   23.4120 C   0  0  0  0  0  0  0  0  0  0  0  0
    7.8690   13.1950   22.7150 O   0  0  0  0  0  0  0  0  0  0  0  0
    8.9710   13.2070   24.8500 C   0  0  0  0  0  0  0  0  0  0  0  0
    8.1140   12.0130   25.2140 C   0  0  0  0  0  0  0  0  0  0  0  0
    8.3380   10.6910   24.7630 C   0  0  0  0  0  0  0  0  0  0  0  0
    9.7040   10.4490   23.6920 S   0  0  0  0  0  0  0  0  0  0  0  0
    9.6940    8.6670   23.4620 C   0  0  0  0  0  0  0  0  0  0  0  0
    7.0490   12.1310   26.0910 C   0  0  0  0  0  0  0  0  0  0  0  0
    6.2810   11.1110   26.4870 N   0  0  0  0  0  0  0  0  0  0  0  0
    6.5930    9.9290   25.9730 C   0  0  0  0  0  0  0  0  0  0  0  0
    7.5780    9.6490   25.1130 N   0  0  0  0  0  0  0  0  0  0  0  0
 16 15  1  0
 15 14  1  0
 14 20  2  0
 20 19  1  0
 19 18  2  0
 18 17  1  0
 17 13  2  0
 14 13  1  0
 13 12  1  0
 12 10  1  0
 11 10  2  0
 10  9  1  0
  9  7  1  0
  7  6  1  0
  6  5  1  0
  5  4  1  0
  4  2  1  6
  3  2  1  0
  2  1  2  0
  8  4  1  0
  9  8  1  0
M  END
>  <id>  (553) 
553

>  <inchikey>  (553) 
VHSVZDNSBFAAEB-VIFPVBQESA-N

>  <alias>  (553) 
A5039b

>  <smiles>  (553) 
CSc1ncncc1CC(=O)N1CCC[C@H](C(N)=O)C1

>  <path>  (553) 
/opt/xchem-fragalysis-2/maxwin/BulkDock/TARGETS/A71EV2A/aligned_files/A5039b/A5039b.pdb

>  <distance_score>  (553) 
None

>  <energy_score>  (553) 
None

>  <compound>  (553) 
VHSVZDNSBFAAEB-UHFFFAOYSA-N

>  <compound_id>  (553) 
404

>  <target>  (553) 
A71EV2A

>  <tags>  (553) 
['GOOD count', 'MEDIOCRE count', '[Other] S1 site', 'hits', '[Other] S2 site', '[Other] P3 compound design', '[Series] Piperidine series', 'Main status', '[Other] upload_2 2025-02-28', 'BAD count']

>  <inspirations>  (553) 
None

>  <subsites>  (553) 
None

>  <reference>  (553) 


>  <observation_longname>  (553) 
A71EV2A-x5039_C_201_v2

>  <ConformerSites alias>  (553) 
1b - A0911/A/147

>  <CanonSites alias>  (553) 
1 - Active Site

>  <CrystalformSites alias>  (553) 
F7r - A4303/C/201

>  <Quatassemblies alias>  (553) 
A1 - monomer

>  <Crystalforms alias>  (553) 
F7 - A712A_x4207_8.1_refmac1_1st_ref

>  <ConformerSites upload name>  (553) 
1b - A71EV2A-x0911/A/147

>  <CanonSites upload name>  (553) 
1 - A71EV2A-x0911/A/147/1

>  <CrystalformSites upload name>  (553) 
F7r - A71EV2A-x4303/C/201/1

>  <Quatassemblies upload name>  (553) 
A1 - monomer

>  <Crystalforms upload name>  (553) 
F7 - A712A_x4207_8.1_refmac1_1st_ref

>  <ConformerSites short tag>  (553) 
1b - A0911/A/147

>  <CanonSites short tag>  (553) 
1 - A0911/A/147/1

>  <CrystalformSites short tag>  (553) 
F7r - A4303/C/201

>  <Quatassemblies short tag>  (553) 
A1 - monomer

>  <Crystalforms short tag>  (553) 
F7 - A712A_x4207_8.1_refmac1_1st_ref

>  <Centroid res>  (553) 
A71EV2A-x0911/A/133/A_v1

>  <Experiment code>  (553) 
A71EV2A-x5039

>  <Pose>  (553) 
A5039a

$$$$
A5052a
     RDKit          3D

 20 22  0  0  0  0  0  0  0  0999 V2000
   10.5270   13.8950   24.7670 O   0  0  0  0  0  0  0  0  0  0  0  0
   10.5110   14.1410   23.5690 C   0  0  0  0  0  0  0  0  0  0  0  0
   11.8050   14.4810   22.8720 C   0  0  0  0  0  0  0  0  0  0  0  0
   11.7310   14.6690   21.3560 C   0  0  0  0  0  0  0  0  0  0  0  0
    9.3600   14.1070   22.8360 N   0  0  0  0  0  0  0  0  0  0  0  0
    9.2040   14.5890   21.4520 C   0  0  0  0  0  0  0  0  0  0  0  0
   10.4250   15.3490   20.9120 C   0  0  2  0  0  0  0  0  0  0  0  0
   10.3560   15.4980   19.4010 C   0  0  0  0  0  0  0  0  0  0  0  0
    9.7850   16.4640   18.8830 O   0  0  0  0  0  0  0  0  0  0  0  0
   10.9410   14.5480   18.6770 N   0  0  0  0  0  0  0  0  0  0  0  0
    8.1560   13.5100   23.4350 C   0  0  1  0  0  0  0  0  0  0  0  0
    8.3390   12.0650   23.8580 C   0  0  0  0  0  0  0  0  0  0  0  0
    9.3140   11.2880   23.2320 C   0  0  0  0  0  0  0  0  0  0  0  0
    9.3520    9.9170   23.4140 C   0  0  0  0  0  0  0  0  0  0  0  0
    8.4160    9.3060   24.2170 C   0  0  0  0  0  0  0  0  0  0  0  0
    7.4890   10.0710   24.9070 C   0  0  0  0  0  0  0  0  0  0  0  0
    7.4460   11.4540   24.7520 C   0  0  0  0  0  0  0  0  0  0  0  0
    6.4890   12.2690   25.5890 C   0  0  0  0  0  0  0  0  0  0  0  0
    6.2370   13.6800   25.0410 C   0  0  0  0  0  0  0  0  0  0  0  0
    7.5470   14.3220   24.5810 C   0  0  0  0  0  0  0  0  0  0  0  0
 10  8  1  0
  9  8  2  0
  7  8  1  6
  7  4  1  0
  4  3  1  0
  3  2  1  0
  2  1  2  0
  5  2  1  0
 11  5  1  1
 11 20  1  0
 20 19  1  0
 19 18  1  0
 18 17  1  0
 17 16  1  0
 16 15  2  0
 15 14  1  0
 14 13  2  0
 13 12  1  0
 17 12  2  0
 12 11  1  0
  6  5  1  0
  7  6  1  0
M  END
>  <id>  (554) 
554

>  <inchikey>  (554) 
OUROYAJWZKVYSV-TZMCWYRMSA-N

>  <alias>  (554) 
A5052a

>  <smiles>  (554) 
NC(=O)[C@@H]1CCC(=O)N([C@@H]2CCCc3ccccc32)C1

>  <path>  (554) 
/opt/xchem-fragalysis-2/maxwin/BulkDock/TARGETS/A71EV2A/aligned_files/A5052a/A5052a.pdb

>  <distance_score>  (554) 
None

>  <energy_score>  (554) 
None

>  <compound>  (554) 
OUROYAJWZKVYSV-UHFFFAOYSA-N

>  <compound_id>  (554) 
405

>  <target>  (554) 
A71EV2A

>  <tags>  (554) 
['GOOD count', 'MEDIOCRE count', '[Other] S1 site', 'hits', '[Other] S2 site', '[Other] P3 compound design', '[Series] Piperidine series', 'Main status', '[Other] upload_2 2025-02-28', 'BAD count']

>  <inspirations>  (554) 
None

>  <subsites>  (554) 
None

>  <reference>  (554) 


>  <observation_longname>  (554) 
A71EV2A-x5052_A_201_v2

>  <ConformerSites alias>  (554) 
1b - A0911/A/147

>  <CanonSites alias>  (554) 
1 - Active Site

>  <CrystalformSites alias>  (554) 
F5i - A3175/A/201

>  <Quatassemblies alias>  (554) 
A1 - monomer

>  <Crystalforms alias>  (554) 
F5 - A71EV2A_x3178_new_long_dials_041024

>  <ConformerSites upload name>  (554) 
1b - A71EV2A-x0911/A/147

>  <CanonSites upload name>  (554) 
1 - A71EV2A-x0911/A/147/1

>  <CrystalformSites upload name>  (554) 
F5i - A71EV2A-x3175/A/201/1

>  <Quatassemblies upload name>  (554) 
A1 - monomer

>  <Crystalforms upload name>  (554) 
F5 - A71EV2A_x3178_new_long_dials_041024

>  <ConformerSites short tag>  (554) 
1b - A0911/A/147

>  <CanonSites short tag>  (554) 
1 - A0911/A/147/1

>  <CrystalformSites short tag>  (554) 
F5i - A3175/A/201

>  <Quatassemblies short tag>  (554) 
A1 - monomer

>  <Crystalforms short tag>  (554) 
F5 - A71EV2A_x3178_new_long_dials_041024

>  <Centroid res>  (554) 
A71EV2A-x0911/A/133/A_v1

>  <Experiment code>  (554) 
A71EV2A-x5052

>  <Pose>  (554) 
A5052a

$$$$
A5065a
     RDKit          3D

 19 20  0  0  0  0  0  0  0  0999 V2000
   11.8150   15.7140   24.1780 O   0  0  0  0  0  0  0  0  0  0  0  0
   11.3820   15.3260   23.1010 C   0  0  0  0  0  0  0  0  0  0  0  0
   11.8660   15.7140   21.7320 C   0  0  0  0  0  0  0  0  0  0  0  0
   11.2430   14.6570   20.8100 C   0  0  2  0  0  0  0  0  0  0  0  0
   10.9270   15.2060   19.4280 C   0  0  0  0  0  0  0  0  0  0  0  0
   10.3110   16.2720   19.2860 O   0  0  0  0  0  0  0  0  0  0  0  0
   11.3050   14.4570   18.4050 N   0  0  0  0  0  0  0  0  0  0  0  0
    9.9800   14.2430   21.5570 C   0  0  0  0  0  0  0  0  0  0  0  0
   10.3390   14.4970   22.9580 N   0  0  0  0  0  0  0  0  0  0  0  0
    9.5810   13.9470   24.0870 C   0  0  0  0  0  0  0  0  0  0  0  0
    8.1830   13.4710   23.7070 C   0  0  0  0  0  0  0  0  0  0  0  0
    7.6430   12.4230   24.6560 C   0  0  0  0  0  0  0  0  0  0  0  0
    7.8630   11.0550   24.4560 C   0  0  0  0  0  0  0  0  0  0  0  0
    9.0370   10.5910   23.2180 S   0  0  0  0  0  0  0  0  0  0  0  0
    9.1570    8.8130   23.3960 C   0  0  0  0  0  0  0  0  0  0  0  0
    6.7760   12.8160   25.6720 C   0  0  0  0  0  0  0  0  0  0  0  0
    6.1060   11.8780   26.4390 C   0  0  0  0  0  0  0  0  0  0  0  0
    6.2950   10.5350   26.2090 C   0  0  0  0  0  0  0  0  0  0  0  0
    7.1740   10.1130   25.2230 C   0  0  0  0  0  0  0  0  0  0  0  0
 15 14  1  0
 14 13  1  0
 13 19  2  0
 19 18  1  0
 18 17  2  0
 17 16  1  0
 16 12  2  0
 13 12  1  0
 12 11  1  0
 11 10  1  0
 10  9  1  0
  9  8  1  0
  8  4  1  0
  4  5  1  6
  7  5  1  0
  6  5  2  0
  4  3  1  0
  3  2  1  0
  9  2  1  0
  2  1  2  0
M  END
>  <id>  (555) 
555

>  <inchikey>  (555) 
IVNOXRPABJYKCG-NSHDSACASA-N

>  <alias>  (555) 
A5065a

>  <smiles>  (555) 
CSc1ccccc1CCN1C[C@@H](C(N)=O)CC1=O

>  <path>  (555) 
/opt/xchem-fragalysis-2/maxwin/BulkDock/TARGETS/A71EV2A/aligned_files/A5065a/A5065a.pdb

>  <distance_score>  (555) 
None

>  <energy_score>  (555) 
None

>  <compound>  (555) 
IVNOXRPABJYKCG-UHFFFAOYSA-N

>  <compound_id>  (555) 
406

>  <target>  (555) 
A71EV2A

>  <tags>  (555) 
['GOOD count', 'MEDIOCRE count', '[Other] S1 site', 'hits', '[Other] upload_3 2025-03-06', '[Other] S2 site', '[Other] P3 compound design', '[Series] Piperidine series', 'Main status', 'BAD count']

>  <inspirations>  (555) 
None

>  <subsites>  (555) 
None

>  <reference>  (555) 


>  <observation_longname>  (555) 
A71EV2A-x5065_A_201_v3

>  <ConformerSites alias>  (555) 
1b - A0911/A/147

>  <CanonSites alias>  (555) 
1 - Active Site

>  <CrystalformSites alias>  (555) 
F5i - A3175/A/201

>  <Quatassemblies alias>  (555) 
A1 - monomer

>  <Crystalforms alias>  (555) 
F5 - A71EV2A_x3178_new_long_dials_041024

>  <ConformerSites upload name>  (555) 
1b - A71EV2A-x0911/A/147

>  <CanonSites upload name>  (555) 
1 - A71EV2A-x0911/A/147/1

>  <CrystalformSites upload name>  (555) 
F5i - A71EV2A-x3175/A/201/1

>  <Quatassemblies upload name>  (555) 
A1 - monomer

>  <Crystalforms upload name>  (555) 
F5 - A71EV2A_x3178_new_long_dials_041024

>  <ConformerSites short tag>  (555) 
1b - A0911/A/147

>  <CanonSites short tag>  (555) 
1 - A0911/A/147/1

>  <CrystalformSites short tag>  (555) 
F5i - A3175/A/201

>  <Quatassemblies short tag>  (555) 
A1 - monomer

>  <Crystalforms short tag>  (555) 
F5 - A71EV2A_x3178_new_long_dials_041024

>  <Centroid res>  (555) 
A71EV2A-x0911/A/133/A_v1

>  <Experiment code>  (555) 
A71EV2A-x5065

>  <Pose>  (555) 
A5065a

$$$$
A5073a
     RDKit          3D

 20 22  0  0  0  0  0  0  0  0999 V2000
   10.6740   14.2740   25.0260 O   0  0  0  0  0  0  0  0  0  0  0  0
   10.6530   14.5930   23.8510 C   0  0  0  0  0  0  0  0  0  0  0  0
   11.9180   15.0890   23.1930 C   0  0  0  0  0  0  0  0  0  0  0  0
   11.7520   15.6900   21.7960 C   0  0  0  0  0  0  0  0  0  0  0  0
    9.5300   14.4920   23.0950 N   0  0  0  0  0  0  0  0  0  0  0  0
    9.4150   14.9480   21.7030 C   0  0  0  0  0  0  0  0  0  0  0  0
   10.7560   14.8770   20.9600 C   0  0  1  0  0  0  0  0  0  0  0  0
   10.6390   15.4280   19.5490 C   0  0  0  0  0  0  0  0  0  0  0  0
   10.2010   16.5640   19.3410 O   0  0  0  0  0  0  0  0  0  0  0  0
   11.0100   14.6110   18.5770 N   0  0  0  0  0  0  0  0  0  0  0  0
    8.3010   13.9520   23.6980 C   0  0  1  0  0  0  0  0  0  0  0  0
    8.3650   12.4680   24.0210 C   0  0  0  0  0  0  0  0  0  0  0  0
    9.2620   11.6530   23.3320 C   0  0  0  0  0  0  0  0  0  0  0  0
    9.2710   10.2860   23.5280 C   0  0  0  0  0  0  0  0  0  0  0  0
    8.3880    9.7130   24.4110 C   0  0  0  0  0  0  0  0  0  0  0  0
    7.5130   10.5070   25.1310 C   0  0  0  0  0  0  0  0  0  0  0  0
    7.4880   11.8890   24.9510 C   0  0  0  0  0  0  0  0  0  0  0  0
    6.5510   12.7290   25.7880 C   0  0  0  0  0  0  0  0  0  0  0  0
    6.4250   14.1840   25.3150 C   0  0  0  0  0  0  0  0  0  0  0  0
    7.7890   14.7370   24.9080 C   0  0  0  0  0  0  0  0  0  0  0  0
 10  8  1  0
  9  8  2  0
  7  8  1  6
  7  4  1  0
  4  3  1  0
  3  2  1  0
  2  1  2  0
  5  2  1  0
 11  5  1  1
 11 20  1  0
 20 19  1  0
 19 18  1  0
 18 17  1  0
 17 16  1  0
 16 15  2  0
 15 14  1  0
 14 13  2  0
 13 12  1  0
 17 12  2  0
 12 11  1  0
  6  5  1  0
  7  6  1  0
M  END
>  <id>  (556) 
556

>  <inchikey>  (556) 
OUROYAJWZKVYSV-GXTWGEPZSA-N

>  <alias>  (556) 
A5073a

>  <smiles>  (556) 
NC(=O)[C@H]1CCC(=O)N([C@@H]2CCCc3ccccc32)C1

>  <path>  (556) 
/opt/xchem-fragalysis-2/maxwin/BulkDock/TARGETS/A71EV2A/aligned_files/A5073a/A5073a.pdb

>  <distance_score>  (556) 
None

>  <energy_score>  (556) 
None

>  <compound>  (556) 
OUROYAJWZKVYSV-UHFFFAOYSA-N

>  <compound_id>  (556) 
405

>  <target>  (556) 
A71EV2A

>  <tags>  (556) 
['GOOD count', 'MEDIOCRE count', '[Other] S1 site', 'hits', '[Other] S2 site', '[Other] upload_6_2025-02-13', '[Other] P3 compound design', '[Series] Piperidine series', 'Main status', 'BAD count']

>  <inspirations>  (556) 
None

>  <subsites>  (556) 
None

>  <reference>  (556) 


>  <observation_longname>  (556) 
A71EV2A-x5073_A_201_v1

>  <ConformerSites alias>  (556) 
1b - A0911/A/147

>  <CanonSites alias>  (556) 
1 - Active Site

>  <CrystalformSites alias>  (556) 
F1a - A0375/A/201

>  <Quatassemblies alias>  (556) 
A1 - monomer

>  <Crystalforms alias>  (556) 
F1 - A71_2A_open

>  <ConformerSites upload name>  (556) 
1b - A71EV2A-x0911/A/147

>  <CanonSites upload name>  (556) 
1 - A71EV2A-x0911/A/147/1

>  <CrystalformSites upload name>  (556) 
F1a - A71EV2A-x0375/A/201/1

>  <Quatassemblies upload name>  (556) 
A1 - monomer

>  <Crystalforms upload name>  (556) 
F1 - A71_2A_open

>  <ConformerSites short tag>  (556) 
1b - A0911/A/147

>  <CanonSites short tag>  (556) 
1 - A0911/A/147/1

>  <CrystalformSites short tag>  (556) 
F1a - A0375/A/201

>  <Quatassemblies short tag>  (556) 
A1 - monomer

>  <Crystalforms short tag>  (556) 
F1 - A71_2A_open

>  <Centroid res>  (556) 
A71EV2A-x0911/A/133/A_v1

>  <Experiment code>  (556) 
A71EV2A-x5073

>  <Pose>  (556) 
A5073a

$$$$
A5079a
     RDKit          3D

 19 20  0  0  0  0  0  0  0  0999 V2000
    9.4090   10.0190   23.5440 Cl  0  0  0  0  0  0  0  0  0  0  0  0
    8.1180   10.4460   24.6300 C   0  0  0  0  0  0  0  0  0  0  0  0
    7.3120    9.4720   24.9900 N   0  0  0  0  0  0  0  0  0  0  0  0
    6.3670    9.7830   25.8970 C   0  0  0  0  0  0  0  0  0  0  0  0
    6.2090   11.0500   26.4390 C   0  0  0  0  0  0  0  0  0  0  0  0
    7.0630   12.0590   26.0200 C   0  0  0  0  0  0  0  0  0  0  0  0
    8.0620   11.7850   25.0930 C   0  0  0  0  0  0  0  0  0  0  0  0
    9.0760   12.8400   24.7170 C   0  0  0  0  0  0  0  0  0  0  0  0
    8.7600   13.4970   23.3850 C   0  0  0  0  0  0  0  0  0  0  0  0
    7.8380   13.1050   22.6870 O   0  0  0  0  0  0  0  0  0  0  0  0
    9.5600   14.5190   23.0070 N   0  0  0  0  0  0  0  0  0  0  0  0
   10.6160   15.1270   23.8350 C   0  0  0  0  0  0  0  0  0  0  0  0
   11.9670   15.0080   23.1480 C   0  0  0  0  0  0  0  0  0  0  0  0
   11.9050   15.5770   21.7170 C   0  0  0  0  0  0  0  0  0  0  0  0
    9.4510   15.0960   21.6640 C   0  0  0  0  0  0  0  0  0  0  0  0
   10.7770   14.9140   20.9090 C   0  0  1  0  0  0  0  0  0  0  0  0
   10.7130   15.4520   19.4890 C   0  0  0  0  0  0  0  0  0  0  0  0
   10.3340   16.6070   19.2600 O   0  0  0  0  0  0  0  0  0  0  0  0
   11.0270   14.5910   18.5250 N   0  0  0  0  0  0  0  0  0  0  0  0
 19 17  1  0
 18 17  2  0
 16 17  1  6
 16 14  1  0
 14 13  1  0
 13 12  1  0
 12 11  1  0
 11  9  1  0
 10  9  2  0
  9  8  1  0
  8  7  1  0
  7  6  2  0
  6  5  1  0
  5  4  2  0
  4  3  1  0
  3  2  2  0
  7  2  1  0
  2  1  1  0
 15 11  1  0
 16 15  1  0
M  END
>  <id>  (557) 
557

>  <inchikey>  (557) 
MVRLSGDTKPBMCQ-JTQLQIEISA-N

>  <alias>  (557) 
A5079a

>  <smiles>  (557) 
NC(=O)[C@H]1CCCN(C(=O)Cc2cccnc2Cl)C1

>  <path>  (557) 
/opt/xchem-fragalysis-2/maxwin/BulkDock/TARGETS/A71EV2A/aligned_files/A5079a/A5079a_hippo.pdb

>  <distance_score>  (557) 
None

>  <energy_score>  (557) 
None

>  <compound>  (557) 
MVRLSGDTKPBMCQ-UHFFFAOYSA-N

>  <compound_id>  (557) 
407

>  <target>  (557) 
A71EV2A

>  <tags>  (557) 
['GOOD count', 'MEDIOCRE count', '[Other] S1 site', 'hits', '[Other] S2 site', '[Other] P3 compound design', '[Series] Piperidine series', 'Main status', '[Other] upload_2 2025-02-28', 'BAD count']

>  <inspirations>  (557) 
None

>  <subsites>  (557) 
None

>  <reference>  (557) 


>  <observation_longname>  (557) 
A71EV2A-x5079_A_201_v2

>  <ConformerSites alias>  (557) 
1b - A0911/A/147

>  <CanonSites alias>  (557) 
1 - Active Site

>  <CrystalformSites alias>  (557) 
F6o - A4214/A/201

>  <Quatassemblies alias>  (557) 
A1 - monomer

>  <Crystalforms alias>  (557) 
F6 - short_long_x4018

>  <ConformerSites upload name>  (557) 
1b - A71EV2A-x0911/A/147

>  <CanonSites upload name>  (557) 
1 - A71EV2A-x0911/A/147/1

>  <CrystalformSites upload name>  (557) 
F6o - A71EV2A-x4214/A/201/1

>  <Quatassemblies upload name>  (557) 
A1 - monomer

>  <Crystalforms upload name>  (557) 
F6 - short_long_x4018

>  <ConformerSites short tag>  (557) 
1b - A0911/A/147

>  <CanonSites short tag>  (557) 
1 - A0911/A/147/1

>  <CrystalformSites short tag>  (557) 
F6o - A4214/A/201

>  <Quatassemblies short tag>  (557) 
A1 - monomer

>  <Crystalforms short tag>  (557) 
F6 - short_long_x4018

>  <Centroid res>  (557) 
A71EV2A-x0911/A/133/A_v1

>  <Experiment code>  (557) 
A71EV2A-x5079

>  <Pose>  (557) 
A5079a

$$$$
A5079b
     RDKit          3D

 19 20  0  0  0  0  0  0  0  0999 V2000
    9.5240   10.0260   23.5290 Cl  0  0  0  0  0  0  0  0  0  0  0  0
    8.2610   10.4730   24.6380 C   0  0  0  0  0  0  0  0  0  0  0  0
    7.4220    9.5160   24.9960 N   0  0  0  0  0  0  0  0  0  0  0  0
    6.4930    9.8440   25.9110 C   0  0  0  0  0  0  0  0  0  0  0  0
    6.3720   11.1070   26.4570 C   0  0  0  0  0  0  0  0  0  0  0  0
    7.2540   12.1000   26.0450 C   0  0  0  0  0  0  0  0  0  0  0  0
    8.2460   11.8090   25.1110 C   0  0  0  0  0  0  0  0  0  0  0  0
    9.2660   12.8580   24.7210 C   0  0  0  0  0  0  0  0  0  0  0  0
    8.9360   13.5250   23.3990 C   0  0  0  0  0  0  0  0  0  0  0  0
    7.9960   13.1310   22.7120 O   0  0  0  0  0  0  0  0  0  0  0  0
    9.7290   14.5580   23.0150 N   0  0  0  0  0  0  0  0  0  0  0  0
   10.7730   15.2120   23.8250 C   0  0  0  0  0  0  0  0  0  0  0  0
   12.1260   15.1170   23.1140 C   0  0  0  0  0  0  0  0  0  0  0  0
   12.0330   15.6500   21.6710 C   0  0  0  0  0  0  0  0  0  0  0  0
    9.6020   15.1160   21.6640 C   0  0  0  0  0  0  0  0  0  0  0  0
   10.9130   14.9300   20.8880 C   0  0  1  0  0  0  0  0  0  0  0  0
   10.7990   15.4680   19.4710 C   0  0  0  0  0  0  0  0  0  0  0  0
   10.4040   16.6250   19.2560 O   0  0  0  0  0  0  0  0  0  0  0  0
   11.0940   14.6030   18.4980 N   0  0  0  0  0  0  0  0  0  0  0  0
 19 17  1  0
 18 17  2  0
 16 17  1  6
 16 14  1  0
 14 13  1  0
 13 12  1  0
 12 11  1  0
 11  9  1  0
 10  9  2  0
  9  8  1  0
  8  7  1  0
  7  6  2  0
  6  5  1  0
  5  4  2  0
  4  3  1  0
  3  2  2  0
  7  2  1  0
  2  1  1  0
 15 11  1  0
 16 15  1  0
M  END
>  <id>  (558) 
558

>  <inchikey>  (558) 
MVRLSGDTKPBMCQ-JTQLQIEISA-N

>  <alias>  (558) 
A5079b

>  <smiles>  (558) 
NC(=O)[C@H]1CCCN(C(=O)Cc2cccnc2Cl)C1

>  <path>  (558) 
/opt/xchem-fragalysis-2/maxwin/BulkDock/TARGETS/A71EV2A/aligned_files/A5079b/A5079b_hippo.pdb

>  <distance_score>  (558) 
None

>  <energy_score>  (558) 
None

>  <compound>  (558) 
MVRLSGDTKPBMCQ-UHFFFAOYSA-N

>  <compound_id>  (558) 
407

>  <target>  (558) 
A71EV2A

>  <tags>  (558) 
['GOOD count', 'MEDIOCRE count', '[Other] S1 site', 'hits', '[Other] S2 site', '[Other] P3 compound design', '[Series] Piperidine series', 'Main status', '[Other] upload_2 2025-02-28', 'BAD count']

>  <inspirations>  (558) 
None

>  <subsites>  (558) 
None

>  <reference>  (558) 


>  <observation_longname>  (558) 
A71EV2A-x5079_C_201_v2

>  <ConformerSites alias>  (558) 
1b - A0911/A/147

>  <CanonSites alias>  (558) 
1 - Active Site

>  <CrystalformSites alias>  (558) 
F6p - A4214/C/201

>  <Quatassemblies alias>  (558) 
A1 - monomer

>  <Crystalforms alias>  (558) 
F6 - short_long_x4018

>  <ConformerSites upload name>  (558) 
1b - A71EV2A-x0911/A/147

>  <CanonSites upload name>  (558) 
1 - A71EV2A-x0911/A/147/1

>  <CrystalformSites upload name>  (558) 
F6p - A71EV2A-x4214/C/201/1

>  <Quatassemblies upload name>  (558) 
A1 - monomer

>  <Crystalforms upload name>  (558) 
F6 - short_long_x4018

>  <ConformerSites short tag>  (558) 
1b - A0911/A/147

>  <CanonSites short tag>  (558) 
1 - A0911/A/147/1

>  <CrystalformSites short tag>  (558) 
F6p - A4214/C/201

>  <Quatassemblies short tag>  (558) 
A1 - monomer

>  <Crystalforms short tag>  (558) 
F6 - short_long_x4018

>  <Centroid res>  (558) 
A71EV2A-x0911/A/133/A_v1

>  <Experiment code>  (558) 
A71EV2A-x5079

>  <Pose>  (558) 
A5079a

$$$$
A5081a
     RDKit          3D

 19 20  0  0  0  0  0  0  0  0999 V2000
    9.4350   10.1260   23.5340 Cl  0  0  0  0  0  0  0  0  0  0  0  0
    8.1270   10.5170   24.6100 C   0  0  0  0  0  0  0  0  0  0  0  0
    7.3320    9.5290   24.9540 N   0  0  0  0  0  0  0  0  0  0  0  0
    6.3760    9.8670   25.8220 C   0  0  0  0  0  0  0  0  0  0  0  0
    6.1510   11.0690   26.3500 N   0  0  0  0  0  0  0  0  0  0  0  0
    6.9900   12.0340   25.9570 C   0  0  0  0  0  0  0  0  0  0  0  0
    8.0330   11.8550   25.0720 C   0  0  0  0  0  0  0  0  0  0  0  0
    8.9860   12.9690   24.7220 C   0  0  0  0  0  0  0  0  0  0  0  0
    8.7250   13.5510   23.3450 C   0  0  0  0  0  0  0  0  0  0  0  0
    7.8010   13.1560   22.6460 O   0  0  0  0  0  0  0  0  0  0  0  0
    9.5340   14.5620   22.9580 N   0  0  0  0  0  0  0  0  0  0  0  0
   10.5790   15.1750   23.7980 C   0  0  0  0  0  0  0  0  0  0  0  0
   11.9430   15.0470   23.1410 C   0  0  0  0  0  0  0  0  0  0  0  0
   11.9070   15.5980   21.7050 C   0  0  0  0  0  0  0  0  0  0  0  0
    9.4480   15.1100   21.6030 C   0  0  0  0  0  0  0  0  0  0  0  0
   10.7890   14.9310   20.8860 C   0  0  1  0  0  0  0  0  0  0  0  0
   10.7130   15.4790   19.4710 C   0  0  0  0  0  0  0  0  0  0  0  0
   10.3440   16.6390   19.2510 O   0  0  0  0  0  0  0  0  0  0  0  0
   11.0250   14.6240   18.5070 N   0  0  0  0  0  0  0  0  0  0  0  0
 19 17  1  0
 18 17  2  0
 16 17  1  6
 16 14  1  0
 14 13  1  0
 13 12  1  0
 12 11  1  0
 11  9  1  0
 10  9  2  0
  9  8  1  0
  8  7  1  0
  7  6  2  0
  6  5  1  0
  5  4  2  0
  4  3  1  0
  3  2  2  0
  7  2  1  0
  2  1  1  0
 15 11  1  0
 16 15  1  0
M  END
>  <id>  (559) 
559

>  <inchikey>  (559) 
XPAHSYNCKBEQTK-QMMMGPOBSA-N

>  <alias>  (559) 
A5081a

>  <smiles>  (559) 
NC(=O)[C@H]1CCCN(C(=O)Cc2cncnc2Cl)C1

>  <path>  (559) 
/opt/xchem-fragalysis-2/maxwin/BulkDock/TARGETS/A71EV2A/aligned_files/A5081a/A5081a_hippo.pdb

>  <distance_score>  (559) 
None

>  <energy_score>  (559) 
None

>  <compound>  (559) 
XPAHSYNCKBEQTK-UHFFFAOYSA-N

>  <compound_id>  (559) 
408

>  <target>  (559) 
A71EV2A

>  <tags>  (559) 
['GOOD count', 'MEDIOCRE count', '[Other] S1 site', 'hits', '[Other] S2 site', '[Other] P3 compound design', '[Series] Piperidine series', 'Main status', '[Other] upload_2 2025-02-28', 'BAD count']

>  <inspirations>  (559) 
None

>  <subsites>  (559) 
None

>  <reference>  (559) 


>  <observation_longname>  (559) 
A71EV2A-x5081_A_201_v2

>  <ConformerSites alias>  (559) 
1b - A0911/A/147

>  <CanonSites alias>  (559) 
1 - Active Site

>  <CrystalformSites alias>  (559) 
F6o - A4214/A/201

>  <Quatassemblies alias>  (559) 
A1 - monomer

>  <Crystalforms alias>  (559) 
F6 - short_long_x4018

>  <ConformerSites upload name>  (559) 
1b - A71EV2A-x0911/A/147

>  <CanonSites upload name>  (559) 
1 - A71EV2A-x0911/A/147/1

>  <CrystalformSites upload name>  (559) 
F6o - A71EV2A-x4214/A/201/1

>  <Quatassemblies upload name>  (559) 
A1 - monomer

>  <Crystalforms upload name>  (559) 
F6 - short_long_x4018

>  <ConformerSites short tag>  (559) 
1b - A0911/A/147

>  <CanonSites short tag>  (559) 
1 - A0911/A/147/1

>  <CrystalformSites short tag>  (559) 
F6o - A4214/A/201

>  <Quatassemblies short tag>  (559) 
A1 - monomer

>  <Crystalforms short tag>  (559) 
F6 - short_long_x4018

>  <Centroid res>  (559) 
A71EV2A-x0911/A/133/A_v1

>  <Experiment code>  (559) 
A71EV2A-x5081

>  <Pose>  (559) 
A5081a

$$$$
A5081b
     RDKit          3D

 19 20  0  0  0  0  0  0  0  0999 V2000
    9.5830   10.1010   23.5570 Cl  0  0  0  0  0  0  0  0  0  0  0  0
    8.2960   10.5190   24.6440 C   0  0  0  0  0  0  0  0  0  0  0  0
    7.4750    9.5420   24.9880 N   0  0  0  0  0  0  0  0  0  0  0  0
    6.5380    9.8930   25.8720 C   0  0  0  0  0  0  0  0  0  0  0  0
    6.3450   11.0960   26.4030 N   0  0  0  0  0  0  0  0  0  0  0  0
    7.2020   12.0460   26.0090 C   0  0  0  0  0  0  0  0  0  0  0  0
    8.2460   11.8550   25.1160 C   0  0  0  0  0  0  0  0  0  0  0  0
    9.2090   12.9660   24.7550 C   0  0  0  0  0  0  0  0  0  0  0  0
    8.9230   13.5500   23.3830 C   0  0  0  0  0  0  0  0  0  0  0  0
    7.9920   13.1360   22.6950 O   0  0  0  0  0  0  0  0  0  0  0  0
    9.7080   14.5770   22.9820 N   0  0  0  0  0  0  0  0  0  0  0  0
   10.7410   15.2370   23.7980 C   0  0  0  0  0  0  0  0  0  0  0  0
   12.1050   15.1400   23.1120 C   0  0  0  0  0  0  0  0  0  0  0  0
   12.0260   15.6700   21.6680 C   0  0  0  0  0  0  0  0  0  0  0  0
    9.5810   15.1230   21.6290 C   0  0  0  0  0  0  0  0  0  0  0  0
   10.9070   14.9610   20.8780 C   0  0  1  0  0  0  0  0  0  0  0  0
   10.7990   15.5090   19.4650 C   0  0  0  0  0  0  0  0  0  0  0  0
   10.4220   16.6740   19.2590 O   0  0  0  0  0  0  0  0  0  0  0  0
   11.0930   14.6510   18.4950 N   0  0  0  0  0  0  0  0  0  0  0  0
 19 17  1  0
 18 17  2  0
 16 17  1  6
 16 14  1  0
 14 13  1  0
 13 12  1  0
 12 11  1  0
 11  9  1  0
 10  9  2  0
  9  8  1  0
  8  7  1  0
  7  6  2  0
  6  5  1  0
  5  4  2  0
  4  3  1  0
  3  2  2  0
  7  2  1  0
  2  1  1  0
 15 11  1  0
 16 15  1  0
M  END
>  <id>  (560) 
560

>  <inchikey>  (560) 
XPAHSYNCKBEQTK-QMMMGPOBSA-N

>  <alias>  (560) 
A5081b

>  <smiles>  (560) 
NC(=O)[C@H]1CCCN(C(=O)Cc2cncnc2Cl)C1

>  <path>  (560) 
/opt/xchem-fragalysis-2/maxwin/BulkDock/TARGETS/A71EV2A/aligned_files/A5081b/A5081b_hippo.pdb

>  <distance_score>  (560) 
None

>  <energy_score>  (560) 
None

>  <compound>  (560) 
XPAHSYNCKBEQTK-UHFFFAOYSA-N

>  <compound_id>  (560) 
408

>  <target>  (560) 
A71EV2A

>  <tags>  (560) 
['GOOD count', 'MEDIOCRE count', '[Other] S1 site', 'hits', '[Other] S2 site', '[Other] P3 compound design', '[Series] Piperidine series', 'Main status', '[Other] upload_2 2025-02-28', 'BAD count']

>  <inspirations>  (560) 
None

>  <subsites>  (560) 
None

>  <reference>  (560) 


>  <observation_longname>  (560) 
A71EV2A-x5081_C_201_v2

>  <ConformerSites alias>  (560) 
1b - A0911/A/147

>  <CanonSites alias>  (560) 
1 - Active Site

>  <CrystalformSites alias>  (560) 
F6p - A4214/C/201

>  <Quatassemblies alias>  (560) 
A1 - monomer

>  <Crystalforms alias>  (560) 
F6 - short_long_x4018

>  <ConformerSites upload name>  (560) 
1b - A71EV2A-x0911/A/147

>  <CanonSites upload name>  (560) 
1 - A71EV2A-x0911/A/147/1

>  <CrystalformSites upload name>  (560) 
F6p - A71EV2A-x4214/C/201/1

>  <Quatassemblies upload name>  (560) 
A1 - monomer

>  <Crystalforms upload name>  (560) 
F6 - short_long_x4018

>  <ConformerSites short tag>  (560) 
1b - A0911/A/147

>  <CanonSites short tag>  (560) 
1 - A0911/A/147/1

>  <CrystalformSites short tag>  (560) 
F6p - A4214/C/201

>  <Quatassemblies short tag>  (560) 
A1 - monomer

>  <Crystalforms short tag>  (560) 
F6 - short_long_x4018

>  <Centroid res>  (560) 
A71EV2A-x0911/A/133/A_v1

>  <Experiment code>  (560) 
A71EV2A-x5081

>  <Pose>  (560) 
A5081a

$$$$
A5082a
     RDKit          3D

 20 21  0  0  0  0  0  0  0  0999 V2000
   10.2930   16.7920   19.0760 O   0  0  0  0  0  0  0  0  0  0  0  0
   10.6150   15.6280   19.3580 C   0  0  0  0  0  0  0  0  0  0  0  0
   10.8940   14.7080   18.4400 N   0  0  0  0  0  0  0  0  0  0  0  0
   10.6880   15.1580   20.7990 C   0  0  1  0  0  0  0  0  0  0  0  0
   11.8630   15.8080   21.5500 C   0  0  0  0  0  0  0  0  0  0  0  0
   11.9210   15.3250   23.0040 C   0  0  0  0  0  0  0  0  0  0  0  0
   10.5870   15.5290   23.6940 C   0  0  0  0  0  0  0  0  0  0  0  0
    9.3840   15.4590   21.5300 C   0  0  0  0  0  0  0  0  0  0  0  0
    9.4930   14.9540   22.8990 N   0  0  0  0  0  0  0  0  0  0  0  0
    8.7310   13.9190   23.2970 C   0  0  0  0  0  0  0  0  0  0  0  0
    7.8630   13.4470   22.5860 O   0  0  0  0  0  0  0  0  0  0  0  0
    8.9640   13.4140   24.7090 C   0  0  0  0  0  0  0  0  0  0  0  0
    8.3390   12.0610   24.9230 C   0  0  0  0  0  0  0  0  0  0  0  0
    7.2250   11.8770   25.7200 C   0  0  0  0  0  0  0  0  0  0  0  0
    6.6780   10.6090   25.8130 C   0  0  0  0  0  0  0  0  0  0  0  0
    7.2690    9.5690   25.1180 C   0  0  0  0  0  0  0  0  0  0  0  0
    8.9470   11.0630   24.2700 N   0  0  0  0  0  0  0  0  0  0  0  0
    8.4230    9.8360   24.3970 C   0  0  0  0  0  0  0  0  0  0  0  0
    9.2280    8.7630   23.8570 C   0  0  0  0  0  0  0  0  0  0  0  0
    9.8860    7.9420   23.4140 N   0  0  0  0  0  0  0  0  0  0  0  0
 20 19  3  0
 19 18  1  0
 18 16  2  0
 16 15  1  0
 15 14  2  0
 14 13  1  0
 13 12  1  0
 12 10  1  0
 11 10  2  0
 10  9  1  0
  9  7  1  0
  7  6  1  0
  6  5  1  0
  5  4  1  0
  4  2  1  6
  3  2  1  0
  2  1  2  0
  8  4  1  0
  9  8  1  0
 17 13  2  0
 18 17  1  0
M  END
>  <id>  (561) 
561

>  <inchikey>  (561) 
SLDWUJQMGFUKGI-JTQLQIEISA-N

>  <alias>  (561) 
A5082a

>  <smiles>  (561) 
N#Cc1cccc(CC(=O)N2CCC[C@H](C(N)=O)C2)n1

>  <path>  (561) 
/opt/xchem-fragalysis-2/maxwin/BulkDock/TARGETS/A71EV2A/aligned_files/A5082a/A5082a_hippo.pdb

>  <distance_score>  (561) 
None

>  <energy_score>  (561) 
None

>  <compound>  (561) 
SLDWUJQMGFUKGI-UHFFFAOYSA-N

>  <compound_id>  (561) 
409

>  <target>  (561) 
A71EV2A

>  <tags>  (561) 
['GOOD count', 'MEDIOCRE count', '[Other] S1 site', 'hits', '[Other] S2 site', '[Other] P3 compound design', '[Series] Piperidine series', 'Main status', '[Other] upload_2 2025-02-28', 'BAD count']

>  <inspirations>  (561) 
None

>  <subsites>  (561) 
None

>  <reference>  (561) 


>  <observation_longname>  (561) 
A71EV2A-x5082_A_201_v2

>  <ConformerSites alias>  (561) 
1b - A0911/A/147

>  <CanonSites alias>  (561) 
1 - Active Site

>  <CrystalformSites alias>  (561) 
F7q - A4303/A/201

>  <Quatassemblies alias>  (561) 
A1 - monomer

>  <Crystalforms alias>  (561) 
F7 - A712A_x4207_8.1_refmac1_1st_ref

>  <ConformerSites upload name>  (561) 
1b - A71EV2A-x0911/A/147

>  <CanonSites upload name>  (561) 
1 - A71EV2A-x0911/A/147/1

>  <CrystalformSites upload name>  (561) 
F7q - A71EV2A-x4303/A/201/1

>  <Quatassemblies upload name>  (561) 
A1 - monomer

>  <Crystalforms upload name>  (561) 
F7 - A712A_x4207_8.1_refmac1_1st_ref

>  <ConformerSites short tag>  (561) 
1b - A0911/A/147

>  <CanonSites short tag>  (561) 
1 - A0911/A/147/1

>  <CrystalformSites short tag>  (561) 
F7q - A4303/A/201

>  <Quatassemblies short tag>  (561) 
A1 - monomer

>  <Crystalforms short tag>  (561) 
F7 - A712A_x4207_8.1_refmac1_1st_ref

>  <Centroid res>  (561) 
A71EV2A-x0911/A/133/A_v1

>  <Experiment code>  (561) 
A71EV2A-x5082

>  <Pose>  (561) 
A5082a

$$$$
A5082b
     RDKit          3D

 20 21  0  0  0  0  0  0  0  0999 V2000
   10.3510   16.7770   19.1220 O   0  0  0  0  0  0  0  0  0  0  0  0
   10.7070   15.6160   19.3930 C   0  0  0  0  0  0  0  0  0  0  0  0
   10.9580   14.6940   18.4720 N   0  0  0  0  0  0  0  0  0  0  0  0
   10.8220   15.1590   20.8360 C   0  0  1  0  0  0  0  0  0  0  0  0
   11.9820   15.8790   21.5520 C   0  0  0  0  0  0  0  0  0  0  0  0
   12.0700   15.4250   23.0170 C   0  0  0  0  0  0  0  0  0  0  0  0
   10.7280   15.5990   23.7180 C   0  0  0  0  0  0  0  0  0  0  0  0
    9.5030   15.4020   21.5810 C   0  0  0  0  0  0  0  0  0  0  0  0
    9.6460   14.9360   22.9630 N   0  0  0  0  0  0  0  0  0  0  0  0
    8.9330   13.8630   23.3810 C   0  0  0  0  0  0  0  0  0  0  0  0
    8.0590   13.3450   22.6820 O   0  0  0  0  0  0  0  0  0  0  0  0
    9.2190   13.3540   24.7830 C   0  0  0  0  0  0  0  0  0  0  0  0
    8.6100   11.9900   25.0130 C   0  0  0  0  0  0  0  0  0  0  0  0
    7.4980   11.7960   25.8300 C   0  0  0  0  0  0  0  0  0  0  0  0
    6.9710   10.5170   25.9450 C   0  0  0  0  0  0  0  0  0  0  0  0
    7.5570    9.4780   25.2410 C   0  0  0  0  0  0  0  0  0  0  0  0
    9.2040   10.9900   24.3440 N   0  0  0  0  0  0  0  0  0  0  0  0
    8.6840    9.7560   24.4730 C   0  0  0  0  0  0  0  0  0  0  0  0
    9.4720    8.6860   23.8950 C   0  0  0  0  0  0  0  0  0  0  0  0
   10.1250    7.8650   23.4350 N   0  0  0  0  0  0  0  0  0  0  0  0
 20 19  3  0
 19 18  1  0
 18 16  2  0
 16 15  1  0
 15 14  2  0
 14 13  1  0
 13 12  1  0
 12 10  1  0
 11 10  2  0
 10  9  1  0
  9  7  1  0
  7  6  1  0
  6  5  1  0
  5  4  1  0
  4  2  1  6
  3  2  1  0
  2  1  2  0
  8  4  1  0
  9  8  1  0
 17 13  2  0
 18 17  1  0
M  END
>  <id>  (562) 
562

>  <inchikey>  (562) 
SLDWUJQMGFUKGI-JTQLQIEISA-N

>  <alias>  (562) 
A5082b

>  <smiles>  (562) 
N#Cc1cccc(CC(=O)N2CCC[C@H](C(N)=O)C2)n1

>  <path>  (562) 
/opt/xchem-fragalysis-2/maxwin/BulkDock/TARGETS/A71EV2A/aligned_files/A5082b/A5082b.pdb

>  <distance_score>  (562) 
None

>  <energy_score>  (562) 
None

>  <compound>  (562) 
SLDWUJQMGFUKGI-UHFFFAOYSA-N

>  <compound_id>  (562) 
409

>  <target>  (562) 
A71EV2A

>  <tags>  (562) 
['GOOD count', 'MEDIOCRE count', '[Other] S1 site', 'hits', '[Other] S2 site', '[Other] P3 compound design', '[Series] Piperidine series', 'Main status', '[Other] upload_2 2025-02-28', 'BAD count']

>  <inspirations>  (562) 
None

>  <subsites>  (562) 
None

>  <reference>  (562) 


>  <observation_longname>  (562) 
A71EV2A-x5082_C_201_v2

>  <ConformerSites alias>  (562) 
1b - A0911/A/147

>  <CanonSites alias>  (562) 
1 - Active Site

>  <CrystalformSites alias>  (562) 
F7r - A4303/C/201

>  <Quatassemblies alias>  (562) 
A1 - monomer

>  <Crystalforms alias>  (562) 
F7 - A712A_x4207_8.1_refmac1_1st_ref

>  <ConformerSites upload name>  (562) 
1b - A71EV2A-x0911/A/147

>  <CanonSites upload name>  (562) 
1 - A71EV2A-x0911/A/147/1

>  <CrystalformSites upload name>  (562) 
F7r - A71EV2A-x4303/C/201/1

>  <Quatassemblies upload name>  (562) 
A1 - monomer

>  <Crystalforms upload name>  (562) 
F7 - A712A_x4207_8.1_refmac1_1st_ref

>  <ConformerSites short tag>  (562) 
1b - A0911/A/147

>  <CanonSites short tag>  (562) 
1 - A0911/A/147/1

>  <CrystalformSites short tag>  (562) 
F7r - A4303/C/201

>  <Quatassemblies short tag>  (562) 
A1 - monomer

>  <Crystalforms short tag>  (562) 
F7 - A712A_x4207_8.1_refmac1_1st_ref

>  <Centroid res>  (562) 
A71EV2A-x0911/A/133/A_v1

>  <Experiment code>  (562) 
A71EV2A-x5082

>  <Pose>  (562) 
A5082a

$$$$
A5090a
     RDKit          3D

 19 20  0  0  0  0  0  0  0  0999 V2000
   10.3500   16.4720   19.4130 O   0  0  0  0  0  0  0  0  0  0  0  0
   10.8080   15.3340   19.5910 C   0  0  0  0  0  0  0  0  0  0  0  0
   11.1700   14.5280   18.5880 N   0  0  0  0  0  0  0  0  0  0  0  0
   10.8830   14.7280   20.9830 C   0  0  1  0  0  0  0  0  0  0  0  0
   11.9170   15.4330   21.8740 C   0  0  0  0  0  0  0  0  0  0  0  0
   11.9560   14.7830   23.2650 C   0  0  0  0  0  0  0  0  0  0  0  0
   10.5740   14.7720   23.8830 C   0  0  0  0  0  0  0  0  0  0  0  0
    9.5050   14.7830   21.6450 C   0  0  0  0  0  0  0  0  0  0  0  0
    9.5690   14.1620   22.9830 N   0  0  0  0  0  0  0  0  0  0  0  0
    8.1290   13.9090   23.6450 S   0  0  0  0  0  0  0  0  0  0  0  0
    7.3060   13.3700   22.6100 O   0  0  0  0  0  0  0  0  0  0  0  0
    7.6940   15.0930   24.3210 O   0  0  0  0  0  0  0  0  0  0  0  0
    8.3020   12.8120   24.8330 N   0  0  0  0  0  0  0  0  0  0  0  0
    8.5070   11.4470   24.5280 C   0  0  0  0  0  0  0  0  0  0  0  0
    9.3460   10.9070   23.5810 C   0  0  0  0  0  0  0  0  0  0  0  0
    7.8710   10.3560   25.1160 C   0  0  0  0  0  0  0  0  0  0  0  0
    8.2720    9.2130   24.5810 N   0  0  0  0  0  0  0  0  0  0  0  0
    9.1840    9.5780   23.6470 N   0  0  0  0  0  0  0  0  0  0  0  0
    9.9110    8.5590   22.9020 C   0  0  0  0  0  0  0  0  0  0  0  0
 19 18  1  0
 18 15  1  0
 15 14  2  0
 14 13  1  0
 13 10  1  0
 11 10  2  0
 12 10  2  0
 10  9  1  0
  9  7  1  0
  7  6  1  0
  6  5  1  0
  5  4  1  0
  4  2  1  6
  3  2  1  0
  2  1  2  0
  8  4  1  0
  9  8  1  0
 16 14  1  0
 17 16  2  0
 18 17  1  0
M  END
>  <id>  (563) 
563

>  <inchikey>  (563) 
LHMBTQSMJAKEKA-QMMMGPOBSA-N

>  <alias>  (563) 
A5090a

>  <smiles>  (563) 
Cn1cc(NS(=O)(=O)N2CCC[C@H](C(N)=O)C2)cn1

>  <path>  (563) 
/opt/xchem-fragalysis-2/maxwin/BulkDock/TARGETS/A71EV2A/aligned_files/A5090a/A5090a.pdb

>  <distance_score>  (563) 
None

>  <energy_score>  (563) 
None

>  <compound>  (563) 
LHMBTQSMJAKEKA-UHFFFAOYSA-N

>  <compound_id>  (563) 
410

>  <target>  (563) 
A71EV2A

>  <tags>  (563) 
['GOOD count', 'MEDIOCRE count', '[Other] S1 site', 'hits', '[Other] S2 site', '[Other] P3 compound design', '[Series] Piperidine series', 'Main status', '[Other] upload_2 2025-02-28', 'BAD count']

>  <inspirations>  (563) 
None

>  <subsites>  (563) 
None

>  <reference>  (563) 


>  <observation_longname>  (563) 
A71EV2A-x5090_A_201_v2

>  <ConformerSites alias>  (563) 
1b - A0911/A/147

>  <CanonSites alias>  (563) 
1 - Active Site

>  <CrystalformSites alias>  (563) 
F8h - A0884/A/147

>  <Quatassemblies alias>  (563) 
A1 - monomer

>  <Crystalforms alias>  (563) 
F8 - A712A_x4271_2.1_refmac1_1st_ref

>  <ConformerSites upload name>  (563) 
1b - A71EV2A-x0911/A/147

>  <CanonSites upload name>  (563) 
1 - A71EV2A-x0911/A/147/1

>  <CrystalformSites upload name>  (563) 
F8h - A71EV2A-x0884/A/147/1

>  <Quatassemblies upload name>  (563) 
A1 - monomer

>  <Crystalforms upload name>  (563) 
F8 - A712A_x4271_2.1_refmac1_1st_ref

>  <ConformerSites short tag>  (563) 
1b - A0911/A/147

>  <CanonSites short tag>  (563) 
1 - A0911/A/147/1

>  <CrystalformSites short tag>  (563) 
F8h - A0884/A/147

>  <Quatassemblies short tag>  (563) 
A1 - monomer

>  <Crystalforms short tag>  (563) 
F8 - A712A_x4271_2.1_refmac1_1st_ref

>  <Centroid res>  (563) 
A71EV2A-x0911/A/133/A_v1

>  <Experiment code>  (563) 
A71EV2A-x5090

>  <Pose>  (563) 
A5090a

$$$$
A5091a
     RDKit          3D

 19 20  0  0  0  0  0  0  0  0999 V2000
   10.2820   16.5050   18.8420 O   0  0  0  0  0  0  0  0  0  0  0  0
   10.7720   15.4120   19.1300 C   0  0  0  0  0  0  0  0  0  0  0  0
   11.1720   14.5420   18.2130 N   0  0  0  0  0  0  0  0  0  0  0  0
   10.9480   14.9820   20.5770 C   0  0  1  0  0  0  0  0  0  0  0  0
   11.8640   15.8860   21.4310 C   0  0  0  0  0  0  0  0  0  0  0  0
   11.5010   15.5300   22.8740 C   0  0  0  0  0  0  0  0  0  0  0  0
    9.6610   15.0410   21.3870 C   0  0  0  0  0  0  0  0  0  0  0  0
   10.1850   14.8800   22.7400 N   0  0  0  0  0  0  0  0  0  0  0  0
    9.6480   14.1220   23.7300 C   0  0  0  0  0  0  0  0  0  0  0  0
   10.2950   13.7900   24.7030 O   0  0  0  0  0  0  0  0  0  0  0  0
    8.3680   13.6500   23.5220 N   0  0  0  0  0  0  0  0  0  0  0  0
    7.2950   14.6350   23.4330 C   0  0  0  0  0  0  0  0  0  0  0  0
    7.9660   12.3580   24.0100 C   0  0  0  0  0  0  0  0  0  0  0  0
    6.9280   12.2520   24.9210 C   0  0  0  0  0  0  0  0  0  0  0  0
    6.5800   11.0120   25.4140 C   0  0  0  0  0  0  0  0  0  0  0  0
    7.2490    9.8820   24.9890 C   0  0  0  0  0  0  0  0  0  0  0  0
    8.6390   11.2150   23.5880 C   0  0  0  0  0  0  0  0  0  0  0  0
    8.2770    9.9630   24.0670 C   0  0  0  0  0  0  0  0  0  0  0  0
    8.9630    8.7170   23.5660 C   0  0  0  0  0  0  0  0  0  0  0  0
 19 18  1  0
 18 16  2  0
 16 15  1  0
 15 14  2  0
 14 13  1  0
 13 11  1  0
 12 11  1  0
 11  9  1  0
 10  9  2  0
  9  8  1  0
  8  6  1  0
  6  5  1  0
  5  4  1  0
  4  2  1  6
  3  2  1  0
  2  1  2  0
  7  4  1  0
  8  7  1  0
 17 13  2  0
 18 17  1  0
M  END
>  <id>  (564) 
564

>  <inchikey>  (564) 
SACRPFIJTOHFAQ-NSHDSACASA-N

>  <alias>  (564) 
A5091a

>  <smiles>  (564) 
Cc1cccc(N(C)C(=O)N2CC[C@H](C(N)=O)C2)c1

>  <path>  (564) 
/opt/xchem-fragalysis-2/maxwin/BulkDock/TARGETS/A71EV2A/aligned_files/A5091a/A5091a.pdb

>  <distance_score>  (564) 
None

>  <energy_score>  (564) 
None

>  <compound>  (564) 
SACRPFIJTOHFAQ-UHFFFAOYSA-N

>  <compound_id>  (564) 
411

>  <target>  (564) 
A71EV2A

>  <tags>  (564) 
['GOOD count', 'MEDIOCRE count', '[Other] S1 site', 'hits', '[Other] upload_3 2025-03-06', '[Other] S2 site', '[Other] P3 compound design', '[Series] Piperidine series', 'Main status', 'BAD count']

>  <inspirations>  (564) 
None

>  <subsites>  (564) 
None

>  <reference>  (564) 


>  <observation_longname>  (564) 
A71EV2A-x5091_A_201_v3

>  <ConformerSites alias>  (564) 
1b - A0911/A/147

>  <CanonSites alias>  (564) 
1 - Active Site

>  <CrystalformSites alias>  (564) 
F5i - A3175/A/201

>  <Quatassemblies alias>  (564) 
A1 - monomer

>  <Crystalforms alias>  (564) 
F5 - A71EV2A_x3178_new_long_dials_041024

>  <ConformerSites upload name>  (564) 
1b - A71EV2A-x0911/A/147

>  <CanonSites upload name>  (564) 
1 - A71EV2A-x0911/A/147/1

>  <CrystalformSites upload name>  (564) 
F5i - A71EV2A-x3175/A/201/1

>  <Quatassemblies upload name>  (564) 
A1 - monomer

>  <Crystalforms upload name>  (564) 
F5 - A71EV2A_x3178_new_long_dials_041024

>  <ConformerSites short tag>  (564) 
1b - A0911/A/147

>  <CanonSites short tag>  (564) 
1 - A0911/A/147/1

>  <CrystalformSites short tag>  (564) 
F5i - A3175/A/201

>  <Quatassemblies short tag>  (564) 
A1 - monomer

>  <Crystalforms short tag>  (564) 
F5 - A71EV2A_x3178_new_long_dials_041024

>  <Centroid res>  (564) 
A71EV2A-x0911/A/133/A_v1

>  <Experiment code>  (564) 
A71EV2A-x5091

>  <Pose>  (564) 
A5091a

$$$$
A5104a
     RDKit          3D

 21 22  0  0  0  0  0  0  0  0999 V2000
   10.1870   16.4300   18.8220 O   0  0  0  0  0  0  0  0  0  0  0  0
   10.6050   15.3300   19.1970 C   0  0  0  0  0  0  0  0  0  0  0  0
   11.2230   14.4780   18.3960 N   0  0  0  0  0  0  0  0  0  0  0  0
   10.4700   14.8930   20.6460 C   0  0  1  0  0  0  0  0  0  0  0  0
   11.5460   15.5130   21.5530 C   0  0  0  0  0  0  0  0  0  0  0  0
   11.4560   14.8920   22.9460 C   0  0  1  0  0  0  0  0  0  0  0  0
   12.5100   15.4630   23.8740 C   0  0  0  0  0  0  0  0  0  0  0  0
   10.0800   15.1650   23.5140 C   0  0  0  0  0  0  0  0  0  0  0  0
    9.0800   15.1040   21.2550 C   0  0  0  0  0  0  0  0  0  0  0  0
    9.0620   14.5940   22.6300 N   0  0  0  0  0  0  0  0  0  0  0  0
    8.1790   13.6800   23.0760 C   0  0  0  0  0  0  0  0  0  0  0  0
    7.2880   13.2640   22.3700 O   0  0  0  0  0  0  0  0  0  0  0  0
    8.2950   13.2770   24.5390 C   0  0  0  0  0  0  0  0  0  0  0  0
    7.4450   12.0960   24.9400 C   0  0  0  0  0  0  0  0  0  0  0  0
    7.8130   10.7720   24.6700 C   0  0  0  0  0  0  0  0  0  0  0  0
    9.1510   10.5090   23.5420 S   0  0  0  0  0  0  0  0  0  0  0  0
    9.3230    8.7300   23.4720 C   0  0  0  0  0  0  0  0  0  0  0  0
    6.3350   12.3210   25.7500 C   0  0  0  0  0  0  0  0  0  0  0  0
    5.6280   11.2710   26.3080 C   0  0  0  0  0  0  0  0  0  0  0  0
    6.0110    9.9760   26.0560 C   0  0  0  0  0  0  0  0  0  0  0  0
    7.0980    9.7170   25.2350 C   0  0  0  0  0  0  0  0  0  0  0  0
 17 16  1  0
 16 15  1  0
 15 21  2  0
 21 20  1  0
 20 19  2  0
 19 18  1  0
 18 14  2  0
 15 14  1  0
 14 13  1  0
 13 11  1  0
 12 11  2  0
 11 10  1  0
 10  8  1  0
  8  6  1  0
  6  7  1  1
  6  5  1  0
  5  4  1  0
  4  2  1  6
  3  2  1  0
  2  1  2  0
  9  4  1  0
 10  9  1  0
M  END
>  <id>  (565) 
565

>  <inchikey>  (565) 
KCUWPJSIVYQWJM-YPMHNXCESA-N

>  <alias>  (565) 
A5104a

>  <smiles>  (565) 
CSc1ccccc1CC(=O)N1C[C@H](C)C[C@H](C(N)=O)C1

>  <path>  (565) 
/opt/xchem-fragalysis-2/maxwin/BulkDock/TARGETS/A71EV2A/aligned_files/A5104a/A5104a.pdb

>  <distance_score>  (565) 
None

>  <energy_score>  (565) 
None

>  <compound>  (565) 
KCUWPJSIVYQWJM-UHFFFAOYSA-N

>  <compound_id>  (565) 
376

>  <target>  (565) 
A71EV2A

>  <tags>  (565) 
['GOOD count', 'MEDIOCRE count', '[Other] S1 site', 'hits', '[Other] upload_3 2025-03-06', '[Other] S2 site', '[Other] P3 compound design', '[Series] Piperidine series', 'Main status', 'BAD count']

>  <inspirations>  (565) 
None

>  <subsites>  (565) 
None

>  <reference>  (565) 


>  <observation_longname>  (565) 
A71EV2A-x5104_A_201_v3

>  <ConformerSites alias>  (565) 
1b - A0911/A/147

>  <CanonSites alias>  (565) 
1 - Active Site

>  <CrystalformSites alias>  (565) 
F5i - A3175/A/201

>  <Quatassemblies alias>  (565) 
A1 - monomer

>  <Crystalforms alias>  (565) 
F5 - A71EV2A_x3178_new_long_dials_041024

>  <ConformerSites upload name>  (565) 
1b - A71EV2A-x0911/A/147

>  <CanonSites upload name>  (565) 
1 - A71EV2A-x0911/A/147/1

>  <CrystalformSites upload name>  (565) 
F5i - A71EV2A-x3175/A/201/1

>  <Quatassemblies upload name>  (565) 
A1 - monomer

>  <Crystalforms upload name>  (565) 
F5 - A71EV2A_x3178_new_long_dials_041024

>  <ConformerSites short tag>  (565) 
1b - A0911/A/147

>  <CanonSites short tag>  (565) 
1 - A0911/A/147/1

>  <CrystalformSites short tag>  (565) 
F5i - A3175/A/201

>  <Quatassemblies short tag>  (565) 
A1 - monomer

>  <Crystalforms short tag>  (565) 
F5 - A71EV2A_x3178_new_long_dials_041024

>  <Centroid res>  (565) 
A71EV2A-x0911/A/133/A_v1

>  <Experiment code>  (565) 
A71EV2A-x5104

>  <Pose>  (565) 
A5104a

$$$$
A5106a
     RDKit          3D

 22 24  0  0  0  0  0  0  0  0999 V2000
   10.6080   15.6610   24.3580 O   0  0  0  0  0  0  0  0  0  0  0  0
   10.3930   15.3540   23.1880 C   0  0  0  0  0  0  0  0  0  0  0  0
   11.1910   15.7730   21.9760 C   0  0  0  0  0  0  0  0  0  0  0  0
   10.7040   14.8220   20.8710 C   0  0  2  0  0  0  0  0  0  0  0  0
   10.7090   15.4700   19.4970 C   0  0  0  0  0  0  0  0  0  0  0  0
   10.3580   16.6460   19.3420 O   0  0  0  0  0  0  0  0  0  0  0  0
   10.9950   14.6650   18.4840 N   0  0  0  0  0  0  0  0  0  0  0  0
    9.2800   14.4810   21.2990 C   0  0  0  0  0  0  0  0  0  0  0  0
    9.3440   14.6160   22.7610 N   0  0  0  0  0  0  0  0  0  0  0  0
    8.2810   14.1190   23.6370 C   0  0  1  0  0  0  0  0  0  0  0  0
    6.9590   14.3160   22.9280 C   0  0  0  0  0  0  0  0  0  0  0  0
    6.2510   13.3440   22.3840 N   0  0  0  0  0  0  0  0  0  0  0  0
    5.1290   13.9610   21.8730 C   0  0  0  0  0  0  0  0  0  0  0  0
    5.1800   15.2940   22.0980 C   0  0  0  0  0  0  0  0  0  0  0  0
    6.3580   15.5240   22.7600 N   0  0  0  0  0  0  0  0  0  0  0  0
    6.8870   16.8440   23.1000 C   0  0  0  0  0  0  0  0  0  0  0  0
    8.4620   12.6560   24.0370 C   0  0  0  0  0  0  0  0  0  0  0  0
    7.6260   12.0790   24.9890 C   0  0  0  0  0  0  0  0  0  0  0  0
    7.7010   10.7200   25.2640 C   0  0  0  0  0  0  0  0  0  0  0  0
    8.6180    9.9280   24.6030 C   0  0  0  0  0  0  0  0  0  0  0  0
    9.4660   10.4930   23.6760 C   0  0  0  0  0  0  0  0  0  0  0  0
    9.4020   11.8490   23.4050 C   0  0  0  0  0  0  0  0  0  0  0  0
 16 15  1  0
 15 14  1  0
 14 13  2  0
 13 12  1  0
 12 11  2  0
 15 11  1  0
 11 10  1  0
 17 10  1  0
 17 22  2  0
 22 21  1  0
 21 20  2  0
 20 19  1  0
 19 18  2  0
 18 17  1  0
 10  9  1  6
  9  8  1  0
  8  4  1  0
  4  5  1  6
  7  5  1  0
  6  5  2  0
  4  3  1  0
  3  2  1  0
  9  2  1  0
  2  1  2  0
M  END
>  <id>  (566) 
566

>  <inchikey>  (566) 
WFFNOQGVJJRMPK-GXTWGEPZSA-N

>  <alias>  (566) 
A5106a

>  <smiles>  (566) 
Cn1ccnc1[C@@H](c1ccccc1)N1C[C@@H](C(N)=O)CC1=O

>  <path>  (566) 
/opt/xchem-fragalysis-2/maxwin/BulkDock/TARGETS/A71EV2A/aligned_files/A5106a/A5106a.pdb

>  <distance_score>  (566) 
None

>  <energy_score>  (566) 
None

>  <compound>  (566) 
WFFNOQGVJJRMPK-UHFFFAOYSA-N

>  <compound_id>  (566) 
412

>  <target>  (566) 
A71EV2A

>  <tags>  (566) 
['GOOD count', 'MEDIOCRE count', '[Other] S1 site', 'hits', '[Other] S2 site', '[Other] P3 compound design', '[Series] Piperidine series', 'Main status', '[Other] upload_2 2025-02-28', 'BAD count']

>  <inspirations>  (566) 
None

>  <subsites>  (566) 
None

>  <reference>  (566) 


>  <observation_longname>  (566) 
A71EV2A-x5106_A_201_v2

>  <ConformerSites alias>  (566) 
1b - A0911/A/147

>  <CanonSites alias>  (566) 
1 - Active Site

>  <CrystalformSites alias>  (566) 
F1a - A0375/A/201

>  <Quatassemblies alias>  (566) 
A1 - monomer

>  <Crystalforms alias>  (566) 
F1 - A71_2A_open

>  <ConformerSites upload name>  (566) 
1b - A71EV2A-x0911/A/147

>  <CanonSites upload name>  (566) 
1 - A71EV2A-x0911/A/147/1

>  <CrystalformSites upload name>  (566) 
F1a - A71EV2A-x0375/A/201/1

>  <Quatassemblies upload name>  (566) 
A1 - monomer

>  <Crystalforms upload name>  (566) 
F1 - A71_2A_open

>  <ConformerSites short tag>  (566) 
1b - A0911/A/147

>  <CanonSites short tag>  (566) 
1 - A0911/A/147/1

>  <CrystalformSites short tag>  (566) 
F1a - A0375/A/201

>  <Quatassemblies short tag>  (566) 
A1 - monomer

>  <Crystalforms short tag>  (566) 
F1 - A71_2A_open

>  <Centroid res>  (566) 
A71EV2A-x0911/A/133/A_v1

>  <Experiment code>  (566) 
A71EV2A-x5106

>  <Pose>  (566) 
A5106a

$$$$
A5131a
     RDKit          3D

 21 23  0  0  0  0  0  0  0  0999 V2000
   10.5560   16.5790   19.1240 O   0  0  0  0  0  0  0  0  0  0  0  0
   10.8910   15.4470   19.4760 C   0  0  0  0  0  0  0  0  0  0  0  0
   11.2270   14.5060   18.6140 N   0  0  0  0  0  0  0  0  0  0  0  0
   10.9430   15.0620   20.9460 C   0  0  2  0  0  0  0  0  0  0  0  0
    9.5420   14.9850   21.5700 C   0  0  0  0  0  0  0  0  0  0  0  0
   11.8140   16.0460   21.7410 C   0  0  0  0  0  0  0  0  0  0  0  0
   11.7770   15.7630   23.2490 C   0  0  1  0  0  0  0  0  0  0  0  0
   10.6390   14.9980   23.8430 C   0  0  2  0  0  0  0  0  0  0  0  0
   11.9980   14.3740   23.7720 C   0  0  0  0  0  0  0  0  0  0  0  0
    9.5750   14.4770   22.9520 N   0  0  0  0  0  0  0  0  0  0  0  0
    8.5820   13.6640   23.4190 C   0  0  0  0  0  0  0  0  0  0  0  0
    7.6680   13.3010   22.6900 O   0  0  0  0  0  0  0  0  0  0  0  0
    8.5970   13.2800   24.8890 C   0  0  0  0  0  0  0  0  0  0  0  0
    7.7690   12.0510   25.2000 C   0  0  0  0  0  0  0  0  0  0  0  0
    8.0460   10.7740   24.6840 C   0  0  0  0  0  0  0  0  0  0  0  0
    9.4010   10.5730   23.5660 S   0  0  0  0  0  0  0  0  0  0  0  0
    9.4600    8.8050   23.2810 C   0  0  0  0  0  0  0  0  0  0  0  0
    6.7150   12.1790   26.1020 C   0  0  0  0  0  0  0  0  0  0  0  0
    5.9680   11.0840   26.4960 C   0  0  0  0  0  0  0  0  0  0  0  0
    6.2430    9.8400   25.9810 C   0  0  0  0  0  0  0  0  0  0  0  0
    7.2740    9.6780   25.0700 C   0  0  0  0  0  0  0  0  0  0  0  0
 17 16  1  0
 16 15  1  0
 15 21  2  0
 21 20  1  0
 20 19  2  0
 19 18  1  0
 18 14  2  0
 15 14  1  0
 14 13  1  0
 13 11  1  0
 12 11  2  0
 11 10  1  0
 10  5  1  0
  5  4  1  0
  4  2  1  6
  3  2  1  0
  2  1  2  0
  6  4  1  0
  7  6  1  6
  7  9  1  0
  8  9  1  6
  8  7  1  0
 10  8  1  0
M  END
>  <id>  (567) 
567

>  <inchikey>  (567) 
POUPHNLBVXGGPW-AGIUHOORSA-N

>  <alias>  (567) 
A5131a

>  <smiles>  (567) 
CSc1ccccc1CC(=O)N1C[C@@H](C(N)=O)C[C@@H]2C[C@@H]21

>  <path>  (567) 
/opt/xchem-fragalysis-2/maxwin/BulkDock/TARGETS/A71EV2A/aligned_files/A5131a/A5131a.pdb

>  <distance_score>  (567) 
None

>  <energy_score>  (567) 
None

>  <compound>  (567) 
POUPHNLBVXGGPW-UHFFFAOYSA-N

>  <compound_id>  (567) 
413

>  <target>  (567) 
A71EV2A

>  <tags>  (567) 
['GOOD count', 'MEDIOCRE count', '[Other] S1 site', 'hits', '[Other] S2 site', '[Other] upload_4 2025-04-02', '[Other] P3 compound design', '[Series] Piperidine series', 'Main status', 'BAD count']

>  <inspirations>  (567) 
None

>  <subsites>  (567) 
None

>  <reference>  (567) 


>  <observation_longname>  (567) 
A71EV2A-x5131_A_201_v4

>  <ConformerSites alias>  (567) 
1b - A0911/A/147

>  <CanonSites alias>  (567) 
1 - Active Site

>  <CrystalformSites alias>  (567) 
F8h - A0884/A/147

>  <Quatassemblies alias>  (567) 
A1 - monomer

>  <Crystalforms alias>  (567) 
F8 - A712A_x4271_2.1_refmac1_1st_ref

>  <ConformerSites upload name>  (567) 
1b - A71EV2A-x0911/A/147

>  <CanonSites upload name>  (567) 
1 - A71EV2A-x0911/A/147/1

>  <CrystalformSites upload name>  (567) 
F8h - A71EV2A-x0884/A/147/1

>  <Quatassemblies upload name>  (567) 
A1 - monomer

>  <Crystalforms upload name>  (567) 
F8 - A712A_x4271_2.1_refmac1_1st_ref

>  <ConformerSites short tag>  (567) 
1b - A0911/A/147

>  <CanonSites short tag>  (567) 
1 - A0911/A/147/1

>  <CrystalformSites short tag>  (567) 
F8h - A0884/A/147

>  <Quatassemblies short tag>  (567) 
A1 - monomer

>  <Crystalforms short tag>  (567) 
F8 - A712A_x4271_2.1_refmac1_1st_ref

>  <Centroid res>  (567) 
A71EV2A-x0911/A/133/A_v1

>  <Experiment code>  (567) 
A71EV2A-x5131

>  <Pose>  (567) 
A5131a

$$$$
A5150a
     RDKit          3D

 19 20  0  0  0  0  0  0  0  0999 V2000
   10.2460   16.4600   19.3450 O   0  0  0  0  0  0  0  0  0  0  0  0
   10.7580   15.3510   19.5350 C   0  0  0  0  0  0  0  0  0  0  0  0
   11.2840   14.6240   18.5620 N   0  0  0  0  0  0  0  0  0  0  0  0
   10.7720   14.7190   20.9170 C   0  0  1  0  0  0  0  0  0  0  0  0
   11.8210   15.3720   21.8330 C   0  0  0  0  0  0  0  0  0  0  0  0
   11.8380   14.7200   23.2250 C   0  0  0  0  0  0  0  0  0  0  0  0
   10.4390   14.6800   23.8290 C   0  0  0  0  0  0  0  0  0  0  0  0
    9.4020   14.8330   21.5950 C   0  0  0  0  0  0  0  0  0  0  0  0
    9.4410   14.1230   22.8900 N   0  0  0  0  0  0  0  0  0  0  0  0
    7.9760   13.8510   23.5190 S   0  0  0  0  0  0  0  0  0  0  0  0
    7.5680   15.0720   24.1390 O   0  0  0  0  0  0  0  0  0  0  0  0
    7.1370   13.2520   22.5320 O   0  0  0  0  0  0  0  0  0  0  0  0
    8.2090   12.7800   24.7360 N   0  0  0  0  0  0  0  0  0  0  0  0
    8.4670   11.4110   24.4690 C   0  0  0  0  0  0  0  0  0  0  0  0
    9.4100   10.8860   23.6130 C   0  0  0  0  0  0  0  0  0  0  0  0
    7.7940   10.3050   24.9880 C   0  0  0  0  0  0  0  0  0  0  0  0
    8.2600    9.1730   24.4870 N   0  0  0  0  0  0  0  0  0  0  0  0
    9.2560    9.5540   23.6500 N   0  0  0  0  0  0  0  0  0  0  0  0
   10.0290    8.5500   22.9330 C   0  0  0  0  0  0  0  0  0  0  0  0
 19 18  1  0
 18 15  1  0
 15 14  2  0
 14 13  1  0
 13 10  1  0
 11 10  2  0
 12 10  2  0
 10  9  1  0
  9  7  1  0
  7  6  1  0
  6  5  1  0
  5  4  1  0
  4  2  1  6
  3  2  1  0
  2  1  2  0
  8  4  1  0
  9  8  1  0
 16 14  1  0
 17 16  2  0
 18 17  1  0
M  END
>  <id>  (568) 
568

>  <inchikey>  (568) 
LHMBTQSMJAKEKA-QMMMGPOBSA-N

>  <alias>  (568) 
A5150a

>  <smiles>  (568) 
Cn1cc(NS(=O)(=O)N2CCC[C@H](C(N)=O)C2)cn1

>  <path>  (568) 
/opt/xchem-fragalysis-2/maxwin/BulkDock/TARGETS/A71EV2A/aligned_files/A5150a/A5150a.pdb

>  <distance_score>  (568) 
None

>  <energy_score>  (568) 
None

>  <compound>  (568) 
LHMBTQSMJAKEKA-UHFFFAOYSA-N

>  <compound_id>  (568) 
410

>  <target>  (568) 
A71EV2A

>  <tags>  (568) 
['GOOD count', 'MEDIOCRE count', '[Other] S1 site', 'hits', '[Other] upload_3 2025-03-06', '[Other] S2 site', '[Other] P3 compound design', '[Series] Piperidine series', 'Main status', 'BAD count']

>  <inspirations>  (568) 
None

>  <subsites>  (568) 
None

>  <reference>  (568) 


>  <observation_longname>  (568) 
A71EV2A-x5150_A_201_v3

>  <ConformerSites alias>  (568) 
1b - A0911/A/147

>  <CanonSites alias>  (568) 
1 - Active Site

>  <CrystalformSites alias>  (568) 
F1a - A0375/A/201

>  <Quatassemblies alias>  (568) 
A1 - monomer

>  <Crystalforms alias>  (568) 
F1 - A71_2A_open

>  <ConformerSites upload name>  (568) 
1b - A71EV2A-x0911/A/147

>  <CanonSites upload name>  (568) 
1 - A71EV2A-x0911/A/147/1

>  <CrystalformSites upload name>  (568) 
F1a - A71EV2A-x0375/A/201/1

>  <Quatassemblies upload name>  (568) 
A1 - monomer

>  <Crystalforms upload name>  (568) 
F1 - A71_2A_open

>  <ConformerSites short tag>  (568) 
1b - A0911/A/147

>  <CanonSites short tag>  (568) 
1 - A0911/A/147/1

>  <CrystalformSites short tag>  (568) 
F1a - A0375/A/201

>  <Quatassemblies short tag>  (568) 
A1 - monomer

>  <Crystalforms short tag>  (568) 
F1 - A71_2A_open

>  <Centroid res>  (568) 
A71EV2A-x0911/A/133/A_v1

>  <Experiment code>  (568) 
A71EV2A-x5150

>  <Pose>  (568) 
A5150a

$$$$
A5171a
     RDKit          3D

 23 24  0  0  0  0  0  0  0  0999 V2000
   10.4680   16.6280   19.1650 O   0  0  0  0  0  0  0  0  0  0  0  0
   10.8170   15.4780   19.4600 C   0  0  0  0  0  0  0  0  0  0  0  0
   11.1290   14.5700   18.5410 N   0  0  0  0  0  0  0  0  0  0  0  0
   10.7890   14.9910   20.8980 C   0  0  1  0  0  0  0  0  0  0  0  0
   11.7600   15.7640   21.8170 C   0  0  0  0  0  0  0  0  0  0  0  0
   11.6600   15.2030   23.2470 C   0  0  1  0  0  0  0  0  0  0  0  0
   12.4990   16.0160   24.2190 C   0  0  0  0  0  0  0  0  0  0  0  0
   12.5190   17.2540   24.1640 O   0  0  0  0  0  0  0  0  0  0  0  0
   13.1780   15.3230   25.1200 N   0  0  0  0  0  0  0  0  0  0  0  0
   10.2120   15.3070   23.7410 C   0  0  0  0  0  0  0  0  0  0  0  0
    9.3470   15.1070   21.4170 C   0  0  0  0  0  0  0  0  0  0  0  0
    9.2830   14.6600   22.8110 N   0  0  0  0  0  0  0  0  0  0  0  0
    8.3890   13.7180   23.2030 C   0  0  0  0  0  0  0  0  0  0  0  0
    7.5440   13.2890   22.4400 O   0  0  0  0  0  0  0  0  0  0  0  0
    8.4710   13.2670   24.6570 C   0  0  0  0  0  0  0  0  0  0  0  0
    7.5710   12.0930   24.9810 C   0  0  0  0  0  0  0  0  0  0  0  0
    7.8400   10.7760   24.5730 C   0  0  0  0  0  0  0  0  0  0  0  0
    9.2500   10.5320   23.5270 S   0  0  0  0  0  0  0  0  0  0  0  0
    9.3190    8.7610   23.2980 C   0  0  0  0  0  0  0  0  0  0  0  0
    6.4780   12.3160   25.8140 C   0  0  0  0  0  0  0  0  0  0  0  0
    5.6840   11.2690   26.2450 C   0  0  0  0  0  0  0  0  0  0  0  0
    5.9560    9.9850   25.8400 C   0  0  0  0  0  0  0  0  0  0  0  0
    7.0370    9.7230   25.0060 C   0  0  0  0  0  0  0  0  0  0  0  0
 19 18  1  0
 18 17  1  0
 17 23  2  0
 23 22  1  0
 22 21  2  0
 21 20  1  0
 20 16  2  0
 17 16  1  0
 16 15  1  0
 15 13  1  0
 14 13  2  0
 13 12  1  0
 12 10  1  0
 10  6  1  0
  6  7  1  1
  9  7  1  0
  8  7  2  0
  6  5  1  0
  5  4  1  0
  4  2  1  6
  3  2  1  0
  2  1  2  0
 11  4  1  0
 12 11  1  0
M  END
>  <id>  (569) 
569

>  <inchikey>  (569) 
QGOOPSUEGGPXHT-TXEJJXNPSA-N

>  <alias>  (569) 
A5171a

>  <smiles>  (569) 
CSc1ccccc1CC(=O)N1C[C@H](C(N)=O)C[C@H](C(N)=O)C1

>  <path>  (569) 
/opt/xchem-fragalysis-2/maxwin/BulkDock/TARGETS/A71EV2A/aligned_files/A5171a/A5171a_hippo.pdb

>  <distance_score>  (569) 
None

>  <energy_score>  (569) 
None

>  <compound>  (569) 
QGOOPSUEGGPXHT-UHFFFAOYSA-N

>  <compound_id>  (569) 
414

>  <target>  (569) 
A71EV2A

>  <tags>  (569) 
['GOOD count', 'MEDIOCRE count', '[Other] S1 site', 'hits', '[Other] S2 site', '[Other] P3 compound design', '[Series] Piperidine series', 'Main status', '[Other] upload_2 2025-02-28', 'BAD count']

>  <inspirations>  (569) 
None

>  <subsites>  (569) 
None

>  <reference>  (569) 


>  <observation_longname>  (569) 
A71EV2A-x5171_A_201_v2

>  <ConformerSites alias>  (569) 
1b - A0911/A/147

>  <CanonSites alias>  (569) 
1 - Active Site

>  <CrystalformSites alias>  (569) 
F7q - A4303/A/201

>  <Quatassemblies alias>  (569) 
A1 - monomer

>  <Crystalforms alias>  (569) 
F7 - A712A_x4207_8.1_refmac1_1st_ref

>  <ConformerSites upload name>  (569) 
1b - A71EV2A-x0911/A/147

>  <CanonSites upload name>  (569) 
1 - A71EV2A-x0911/A/147/1

>  <CrystalformSites upload name>  (569) 
F7q - A71EV2A-x4303/A/201/1

>  <Quatassemblies upload name>  (569) 
A1 - monomer

>  <Crystalforms upload name>  (569) 
F7 - A712A_x4207_8.1_refmac1_1st_ref

>  <ConformerSites short tag>  (569) 
1b - A0911/A/147

>  <CanonSites short tag>  (569) 
1 - A0911/A/147/1

>  <CrystalformSites short tag>  (569) 
F7q - A4303/A/201

>  <Quatassemblies short tag>  (569) 
A1 - monomer

>  <Crystalforms short tag>  (569) 
F7 - A712A_x4207_8.1_refmac1_1st_ref

>  <Centroid res>  (569) 
A71EV2A-x0911/A/133/A_v1

>  <Experiment code>  (569) 
A71EV2A-x5171

>  <Pose>  (569) 
A5171a

$$$$
A5171b
     RDKit          3D

 23 24  0  0  0  0  0  0  0  0999 V2000
   10.5400   16.6960   19.2090 O   0  0  0  0  0  0  0  0  0  0  0  0
   10.8780   15.5250   19.4750 C   0  0  0  0  0  0  0  0  0  0  0  0
   11.1260   14.6130   18.5420 N   0  0  0  0  0  0  0  0  0  0  0  0
   10.9190   15.0290   20.9090 C   0  0  1  0  0  0  0  0  0  0  0  0
   11.9340   15.7950   21.7890 C   0  0  0  0  0  0  0  0  0  0  0  0
   11.8730   15.2620   23.2310 C   0  0  1  0  0  0  0  0  0  0  0  0
   12.7890   16.0210   24.1760 C   0  0  0  0  0  0  0  0  0  0  0  0
   12.7680   17.2540   24.2280 O   0  0  0  0  0  0  0  0  0  0  0  0
   13.5270   15.2840   25.0040 N   0  0  0  0  0  0  0  0  0  0  0  0
   10.4460   15.3990   23.7710 C   0  0  0  0  0  0  0  0  0  0  0  0
    9.5040   15.1570   21.4950 C   0  0  0  0  0  0  0  0  0  0  0  0
    9.4920   14.7070   22.8920 N   0  0  0  0  0  0  0  0  0  0  0  0
    8.6350   13.7300   23.2820 C   0  0  0  0  0  0  0  0  0  0  0  0
    7.7400   13.3170   22.5500 O   0  0  0  0  0  0  0  0  0  0  0  0
    8.7650   13.2560   24.7200 C   0  0  0  0  0  0  0  0  0  0  0  0
    7.8770   12.0800   25.0700 C   0  0  0  0  0  0  0  0  0  0  0  0
    8.1340   10.7790   24.6190 C   0  0  0  0  0  0  0  0  0  0  0  0
    9.5070   10.5610   23.5240 S   0  0  0  0  0  0  0  0  0  0  0  0
    9.5660    8.7850   23.2830 C   0  0  0  0  0  0  0  0  0  0  0  0
    6.8150   12.2750   25.9600 C   0  0  0  0  0  0  0  0  0  0  0  0
    6.0230   11.2180   26.3680 C   0  0  0  0  0  0  0  0  0  0  0  0
    6.2910    9.9400   25.9240 C   0  0  0  0  0  0  0  0  0  0  0  0
    7.3510    9.7090   25.0560 C   0  0  0  0  0  0  0  0  0  0  0  0
 19 18  1  0
 18 17  1  0
 17 23  2  0
 23 22  1  0
 22 21  2  0
 21 20  1  0
 20 16  2  0
 17 16  1  0
 16 15  1  0
 15 13  1  0
 14 13  2  0
 13 12  1  0
 12 10  1  0
 10  6  1  0
  6  7  1  1
  9  7  1  0
  8  7  2  0
  6  5  1  0
  5  4  1  0
  4  2  1  6
  3  2  1  0
  2  1  2  0
 11  4  1  0
 12 11  1  0
M  END
>  <id>  (570) 
570

>  <inchikey>  (570) 
QGOOPSUEGGPXHT-TXEJJXNPSA-N

>  <alias>  (570) 
A5171b

>  <smiles>  (570) 
CSc1ccccc1CC(=O)N1C[C@H](C(N)=O)C[C@H](C(N)=O)C1

>  <path>  (570) 
/opt/xchem-fragalysis-2/maxwin/BulkDock/TARGETS/A71EV2A/aligned_files/A5171b/A5171b.pdb

>  <distance_score>  (570) 
None

>  <energy_score>  (570) 
None

>  <compound>  (570) 
QGOOPSUEGGPXHT-UHFFFAOYSA-N

>  <compound_id>  (570) 
414

>  <target>  (570) 
A71EV2A

>  <tags>  (570) 
['GOOD count', 'MEDIOCRE count', '[Other] S1 site', 'hits', '[Other] S2 site', '[Other] P3 compound design', '[Series] Piperidine series', 'Main status', '[Other] upload_2 2025-02-28', 'BAD count']

>  <inspirations>  (570) 
None

>  <subsites>  (570) 
None

>  <reference>  (570) 


>  <observation_longname>  (570) 
A71EV2A-x5171_C_201_v2

>  <ConformerSites alias>  (570) 
1b - A0911/A/147

>  <CanonSites alias>  (570) 
1 - Active Site

>  <CrystalformSites alias>  (570) 
F7r - A4303/C/201

>  <Quatassemblies alias>  (570) 
A1 - monomer

>  <Crystalforms alias>  (570) 
F7 - A712A_x4207_8.1_refmac1_1st_ref

>  <ConformerSites upload name>  (570) 
1b - A71EV2A-x0911/A/147

>  <CanonSites upload name>  (570) 
1 - A71EV2A-x0911/A/147/1

>  <CrystalformSites upload name>  (570) 
F7r - A71EV2A-x4303/C/201/1

>  <Quatassemblies upload name>  (570) 
A1 - monomer

>  <Crystalforms upload name>  (570) 
F7 - A712A_x4207_8.1_refmac1_1st_ref

>  <ConformerSites short tag>  (570) 
1b - A0911/A/147

>  <CanonSites short tag>  (570) 
1 - A0911/A/147/1

>  <CrystalformSites short tag>  (570) 
F7r - A4303/C/201

>  <Quatassemblies short tag>  (570) 
A1 - monomer

>  <Crystalforms short tag>  (570) 
F7 - A712A_x4207_8.1_refmac1_1st_ref

>  <Centroid res>  (570) 
A71EV2A-x0911/A/133/A_v1

>  <Experiment code>  (570) 
A71EV2A-x5171

>  <Pose>  (570) 
A5171a

$$$$
A5177a
     RDKit          3D

 21 23  0  0  0  0  0  0  0  0999 V2000
   10.4990   16.7920   19.3030 O   0  0  0  0  0  0  0  0  0  0  0  0
   10.7930   15.5990   19.3780 C   0  0  0  0  0  0  0  0  0  0  0  0
   10.9410   14.8300   18.3150 N   0  0  0  0  0  0  0  0  0  0  0  0
   11.0060   14.9270   20.7240 C   0  0  2  0  0  0  0  0  0  0  0  0
    9.6260   14.5640   21.2790 C   0  0  0  0  0  0  0  0  0  0  0  0
   11.7300   15.8570   21.7010 C   0  0  0  0  0  0  0  0  0  0  0  0
   12.0290   15.0440   22.9550 C   0  0  2  0  0  0  0  0  0  0  0  0
   10.9640   14.0870   23.3780 C   0  0  1  0  0  0  0  0  0  0  0  0
   11.2720   15.2790   24.2260 C   0  0  0  0  0  0  0  0  0  0  0  0
    9.6790   14.0460   22.6490 N   0  0  0  0  0  0  0  0  0  0  0  0
    8.5470   13.5900   23.2240 C   0  0  0  0  0  0  0  0  0  0  0  0
    7.6480   13.1240   22.5530 O   0  0  0  0  0  0  0  0  0  0  0  0
    8.4230   13.6620   24.7350 C   0  0  0  0  0  0  0  0  0  0  0  0
    7.6730   12.4650   25.2730 C   0  0  0  0  0  0  0  0  0  0  0  0
    8.1480   11.1640   25.0950 C   0  0  0  0  0  0  0  0  0  0  0  0
    9.6760   10.9830   24.2380 S   0  0  0  0  0  0  0  0  0  0  0  0
    9.3890    9.5320   23.3020 C   0  0  0  0  0  0  0  0  0  0  0  0
    6.4460   12.6360   25.9060 C   0  0  0  0  0  0  0  0  0  0  0  0
    5.7110   11.5460   26.3390 C   0  0  0  0  0  0  0  0  0  0  0  0
    6.1890   10.2710   26.1550 C   0  0  0  0  0  0  0  0  0  0  0  0
    7.4080   10.0700   25.5370 C   0  0  0  0  0  0  0  0  0  0  0  0
 17 16  1  0
 16 15  1  0
 15 21  2  0
 21 20  1  0
 20 19  2  0
 19 18  1  0
 18 14  2  0
 15 14  1  0
 14 13  1  0
 13 11  1  0
 12 11  2  0
 11 10  1  0
 10  5  1  0
  5  4  1  0
  4  2  1  6
  3  2  1  0
  2  1  2  0
  6  4  1  0
  7  6  1  6
  7  9  1  0
  8  9  1  1
  8  7  1  0
 10  8  1  0
M  END
>  <id>  (571) 
571

>  <inchikey>  (571) 
POUPHNLBVXGGPW-RWMBFGLXSA-N

>  <alias>  (571) 
A5177a

>  <smiles>  (571) 
CSc1ccccc1CC(=O)N1C[C@@H](C(N)=O)C[C@H]2C[C@H]21

>  <path>  (571) 
/opt/xchem-fragalysis-2/maxwin/BulkDock/TARGETS/A71EV2A/aligned_files/A5177a/A5177a.pdb

>  <distance_score>  (571) 
None

>  <energy_score>  (571) 
None

>  <compound>  (571) 
POUPHNLBVXGGPW-UHFFFAOYSA-N

>  <compound_id>  (571) 
413

>  <target>  (571) 
A71EV2A

>  <tags>  (571) 
['GOOD count', 'MEDIOCRE count', '[Other] S1 site', 'hits', '[Other] upload_3 2025-03-06', '[Other] S2 site', '[Other] P3 compound design', '[Series] Piperidine series', 'Main status', 'BAD count']

>  <inspirations>  (571) 
None

>  <subsites>  (571) 
None

>  <reference>  (571) 


>  <observation_longname>  (571) 
A71EV2A-x5177_A_201_v3

>  <ConformerSites alias>  (571) 
1b - A0911/A/147

>  <CanonSites alias>  (571) 
1 - Active Site

>  <CrystalformSites alias>  (571) 
F8h - A0884/A/147

>  <Quatassemblies alias>  (571) 
A1 - monomer

>  <Crystalforms alias>  (571) 
F8 - A712A_x4271_2.1_refmac1_1st_ref

>  <ConformerSites upload name>  (571) 
1b - A71EV2A-x0911/A/147

>  <CanonSites upload name>  (571) 
1 - A71EV2A-x0911/A/147/1

>  <CrystalformSites upload name>  (571) 
F8h - A71EV2A-x0884/A/147/1

>  <Quatassemblies upload name>  (571) 
A1 - monomer

>  <Crystalforms upload name>  (571) 
F8 - A712A_x4271_2.1_refmac1_1st_ref

>  <ConformerSites short tag>  (571) 
1b - A0911/A/147

>  <CanonSites short tag>  (571) 
1 - A0911/A/147/1

>  <CrystalformSites short tag>  (571) 
F8h - A0884/A/147

>  <Quatassemblies short tag>  (571) 
A1 - monomer

>  <Crystalforms short tag>  (571) 
F8 - A712A_x4271_2.1_refmac1_1st_ref

>  <Centroid res>  (571) 
A71EV2A-x0911/A/133/A_v1

>  <Experiment code>  (571) 
A71EV2A-x5177

>  <Pose>  (571) 
A5177a

$$$$
A5182a
     RDKit          3D

 21 22  0  0  0  0  0  0  0  0999 V2000
   10.2530   16.5290   19.0810 O   0  0  0  0  0  0  0  0  0  0  0  0
   10.6830   15.3980   19.3300 C   0  0  0  0  0  0  0  0  0  0  0  0
   11.0850   14.5590   18.3890 N   0  0  0  0  0  0  0  0  0  0  0  0
   10.6570   14.8440   20.7410 C   0  0  1  0  0  0  0  0  0  0  0  0
   11.7430   15.4440   21.6530 C   0  0  0  0  0  0  0  0  0  0  0  0
   11.7120   14.7470   23.0210 C   0  0  0  0  0  0  0  0  0  0  0  0
   10.3160   14.8400   23.6290 C   0  0  0  0  0  0  0  0  0  0  0  0
    9.2920   15.0490   21.3980 C   0  0  0  0  0  0  0  0  0  0  0  0
    9.2930   14.3320   22.6880 N   0  0  0  0  0  0  0  0  0  0  0  0
    7.8070   14.1540   23.3090 S   0  0  0  0  0  0  0  0  0  0  0  0
    7.2990   15.4540   23.6390 O   0  0  0  0  0  0  0  0  0  0  0  0
    7.0340   13.3640   22.4060 O   0  0  0  0  0  0  0  0  0  0  0  0
    8.1330   13.3290   24.6790 N   0  0  0  0  0  0  0  0  0  0  0  0
    7.4290   12.1510   25.0400 C   0  0  0  0  0  0  0  0  0  0  0  0
    7.8250   10.8880   24.5870 C   0  0  0  0  0  0  0  0  0  0  0  0
    9.1800   10.7610   23.4600 S   0  0  0  0  0  0  0  0  0  0  0  0
    9.4560    8.9920   23.3400 C   0  0  0  0  0  0  0  0  0  0  0  0
    6.3500   12.2090   25.9190 C   0  0  0  0  0  0  0  0  0  0  0  0
    5.6820   11.1360   26.3470 N   0  0  0  0  0  0  0  0  0  0  0  0
    6.0920    9.9460   25.9120 C   0  0  0  0  0  0  0  0  0  0  0  0
    7.1440    9.7620   25.0340 C   0  0  0  0  0  0  0  0  0  0  0  0
 17 16  1  0
 16 15  1  0
 15 21  2  0
 21 20  1  0
 20 19  2  0
 19 18  1  0
 18 14  2  0
 15 14  1  0
 14 13  1  0
 13 10  1  0
 11 10  2  0
 12 10  2  0
 10  9  1  0
  9  7  1  0
  7  6  1  0
  6  5  1  0
  5  4  1  0
  4  2  1  6
  3  2  1  0
  2  1  2  0
  8  4  1  0
  9  8  1  0
M  END
>  <id>  (572) 
572

>  <inchikey>  (572) 
GMDPEUDWIAGBOI-VIFPVBQESA-N

>  <alias>  (572) 
A5182a

>  <smiles>  (572) 
CSc1ccncc1NS(=O)(=O)N1CCC[C@H](C(N)=O)C1

>  <path>  (572) 
/opt/xchem-fragalysis-2/maxwin/BulkDock/TARGETS/A71EV2A/aligned_files/A5182a/A5182a.pdb

>  <distance_score>  (572) 
None

>  <energy_score>  (572) 
None

>  <compound>  (572) 
GMDPEUDWIAGBOI-UHFFFAOYSA-N

>  <compound_id>  (572) 
415

>  <target>  (572) 
A71EV2A

>  <tags>  (572) 
['GOOD count', 'MEDIOCRE count', '[Other] S1 site', 'hits', '[Other] upload_3 2025-03-06', '[Other] S2 site', '[Other] P3 compound design', '[Series] Piperidine series', 'Main status', 'BAD count']

>  <inspirations>  (572) 
None

>  <subsites>  (572) 
None

>  <reference>  (572) 


>  <observation_longname>  (572) 
A71EV2A-x5182_A_201_v3

>  <ConformerSites alias>  (572) 
1b - A0911/A/147

>  <CanonSites alias>  (572) 
1 - Active Site

>  <CrystalformSites alias>  (572) 
F5i - A3175/A/201

>  <Quatassemblies alias>  (572) 
A1 - monomer

>  <Crystalforms alias>  (572) 
F5 - A71EV2A_x3178_new_long_dials_041024

>  <ConformerSites upload name>  (572) 
1b - A71EV2A-x0911/A/147

>  <CanonSites upload name>  (572) 
1 - A71EV2A-x0911/A/147/1

>  <CrystalformSites upload name>  (572) 
F5i - A71EV2A-x3175/A/201/1

>  <Quatassemblies upload name>  (572) 
A1 - monomer

>  <Crystalforms upload name>  (572) 
F5 - A71EV2A_x3178_new_long_dials_041024

>  <ConformerSites short tag>  (572) 
1b - A0911/A/147

>  <CanonSites short tag>  (572) 
1 - A0911/A/147/1

>  <CrystalformSites short tag>  (572) 
F5i - A3175/A/201

>  <Quatassemblies short tag>  (572) 
A1 - monomer

>  <Crystalforms short tag>  (572) 
F5 - A71EV2A_x3178_new_long_dials_041024

>  <Centroid res>  (572) 
A71EV2A-x0911/A/133/A_v1

>  <Experiment code>  (572) 
A71EV2A-x5182

>  <Pose>  (572) 
A5182a

$$$$
A5200a
     RDKit          3D

 21 22  0  0  0  0  0  0  0  0999 V2000
   10.2110   16.7660   19.1420 O   0  0  0  0  0  0  0  0  0  0  0  0
   10.4940   15.5930   19.4130 C   0  0  0  0  0  0  0  0  0  0  0  0
   11.0950   14.7840   18.5590 N   0  0  0  0  0  0  0  0  0  0  0  0
   10.2750   15.0320   20.8080 C   0  0  1  0  0  0  0  0  0  0  0  0
   11.5210   15.3280   21.6560 C   0  0  0  0  0  0  0  0  0  0  0  0
   11.3160   14.7000   23.0360 C   0  0  1  0  0  0  0  0  0  0  0  0
   12.6000   14.6800   23.8520 C   0  0  0  0  0  0  0  0  0  0  0  0
   10.1680   15.4220   23.7400 C   0  0  0  0  0  0  0  0  0  0  0  0
    9.0020   15.4500   21.5730 C   0  0  0  0  0  0  0  0  0  0  0  0
    9.0380   14.9260   22.9460 N   0  0  0  0  0  0  0  0  0  0  0  0
    8.2430   13.8990   23.3550 C   0  0  0  0  0  0  0  0  0  0  0  0
    7.4590   13.3430   22.6040 O   0  0  0  0  0  0  0  0  0  0  0  0
    8.4300   13.4070   24.7800 C   0  0  0  0  0  0  0  0  0  0  0  0
    7.6450   12.1500   25.0780 C   0  0  0  0  0  0  0  0  0  0  0  0
    8.0110   10.8820   24.5940 C   0  0  0  0  0  0  0  0  0  0  0  0
    9.3550   10.7520   23.4420 S   0  0  0  0  0  0  0  0  0  0  0  0
    9.5590    8.9890   23.2050 C   0  0  0  0  0  0  0  0  0  0  0  0
    6.5740   12.2370   25.9730 C   0  0  0  0  0  0  0  0  0  0  0  0
    5.9030   11.1080   26.4020 C   0  0  0  0  0  0  0  0  0  0  0  0
    6.2720    9.8690   25.9300 C   0  0  0  0  0  0  0  0  0  0  0  0
    7.3180    9.7490   25.0270 C   0  0  0  0  0  0  0  0  0  0  0  0
 17 16  1  0
 16 15  1  0
 15 21  2  0
 21 20  1  0
 20 19  2  0
 19 18  1  0
 18 14  2  0
 15 14  1  0
 14 13  1  0
 13 11  1  0
 12 11  2  0
 11 10  1  0
 10  8  1  0
  8  6  1  0
  6  7  1  1
  6  5  1  0
  5  4  1  0
  4  2  1  6
  3  2  1  0
  2  1  2  0
  9  4  1  0
 10  9  1  0
M  END
>  <id>  (573) 
573

>  <inchikey>  (573) 
KCUWPJSIVYQWJM-YPMHNXCESA-N

>  <alias>  (573) 
A5200a

>  <smiles>  (573) 
CSc1ccccc1CC(=O)N1C[C@H](C)C[C@H](C(N)=O)C1

>  <path>  (573) 
/opt/xchem-fragalysis-2/maxwin/BulkDock/TARGETS/A71EV2A/aligned_files/A5200a/A5200a.pdb

>  <distance_score>  (573) 
None

>  <energy_score>  (573) 
None

>  <compound>  (573) 
KCUWPJSIVYQWJM-UHFFFAOYSA-N

>  <compound_id>  (573) 
376

>  <target>  (573) 
A71EV2A

>  <tags>  (573) 
['GOOD count', 'MEDIOCRE count', '[Other] S1 site', 'hits', '[Other] upload_3 2025-03-06', '[Other] S2 site', '[Other] P3 compound design', '[Series] Piperidine series', 'Main status', 'BAD count']

>  <inspirations>  (573) 
None

>  <subsites>  (573) 
None

>  <reference>  (573) 


>  <observation_longname>  (573) 
A71EV2A-x5200_A_201_v3

>  <ConformerSites alias>  (573) 
1b - A0911/A/147

>  <CanonSites alias>  (573) 
1 - Active Site

>  <CrystalformSites alias>  (573) 
F8h - A0884/A/147

>  <Quatassemblies alias>  (573) 
A1 - monomer

>  <Crystalforms alias>  (573) 
F8 - A712A_x4271_2.1_refmac1_1st_ref

>  <ConformerSites upload name>  (573) 
1b - A71EV2A-x0911/A/147

>  <CanonSites upload name>  (573) 
1 - A71EV2A-x0911/A/147/1

>  <CrystalformSites upload name>  (573) 
F8h - A71EV2A-x0884/A/147/1

>  <Quatassemblies upload name>  (573) 
A1 - monomer

>  <Crystalforms upload name>  (573) 
F8 - A712A_x4271_2.1_refmac1_1st_ref

>  <ConformerSites short tag>  (573) 
1b - A0911/A/147

>  <CanonSites short tag>  (573) 
1 - A0911/A/147/1

>  <CrystalformSites short tag>  (573) 
F8h - A0884/A/147

>  <Quatassemblies short tag>  (573) 
A1 - monomer

>  <Crystalforms short tag>  (573) 
F8 - A712A_x4271_2.1_refmac1_1st_ref

>  <Centroid res>  (573) 
A71EV2A-x0911/A/133/A_v1

>  <Experiment code>  (573) 
A71EV2A-x5200

>  <Pose>  (573) 
A5200a

$$$$
A5203a
     RDKit          3D

 22 23  0  0  0  0  0  0  0  0999 V2000
   10.2940   16.7470   19.1190 O   0  0  0  0  0  0  0  0  0  0  0  0
   10.5740   15.5810   19.4340 C   0  0  0  0  0  0  0  0  0  0  0  0
   10.8900   14.6440   18.5390 N   0  0  0  0  0  0  0  0  0  0  0  0
   10.5200   15.1200   20.8830 C   0  0  1  0  0  0  0  0  0  0  0  0
   11.6170   15.8030   21.7170 C   0  0  0  0  0  0  0  0  0  0  0  0
   11.9180   15.0690   23.0260 C   0  0  0  0  0  0  0  0  0  0  0  0
   10.9500   15.3600   24.1600 C   0  0  0  0  0  0  0  0  0  0  0  0
    9.0900   15.2880   21.4190 C   0  0  0  0  0  0  0  0  0  0  0  0
    8.8730   15.7790   22.8470 C   0  0  0  0  0  0  0  0  0  0  0  0
    9.5590   14.9950   23.8800 N   0  0  0  0  0  0  0  0  0  0  0  0
    8.9670   14.0340   24.6290 C   0  0  0  0  0  0  0  0  0  0  0  0
    9.5120   13.5400   25.6110 O   0  0  0  0  0  0  0  0  0  0  0  0
    7.6280   13.5090   24.1520 C   0  0  0  0  0  0  0  0  0  0  0  0
    7.2480   12.2870   24.9560 C   0  0  0  0  0  0  0  0  0  0  0  0
    7.6840   10.9800   24.6920 C   0  0  0  0  0  0  0  0  0  0  0  0
    9.0350   10.7870   23.5680 S   0  0  0  0  0  0  0  0  0  0  0  0
    9.2680    9.0050   23.4640 C   0  0  0  0  0  0  0  0  0  0  0  0
    6.2940   12.4820   25.9490 C   0  0  0  0  0  0  0  0  0  0  0  0
    5.7370   11.4000   26.5870 C   0  0  0  0  0  0  0  0  0  0  0  0
    4.4200   11.7130   27.9130 Br  0  0  0  0  0  0  0  0  0  0  0  0
    6.0940   10.1080   26.2740 C   0  0  0  0  0  0  0  0  0  0  0  0
    7.0820    9.8980   25.3260 C   0  0  0  0  0  0  0  0  0  0  0  0
 17 16  1  0
 16 15  1  0
 15 22  2  0
 22 21  1  0
 21 19  2  0
 20 19  1  0
 19 18  1  0
 18 14  2  0
 15 14  1  0
 14 13  1  0
 13 11  1  0
 12 11  2  0
 11 10  1  0
 10  7  1  0
  7  6  1  0
  6  5  1  0
  5  4  1  0
  4  2  1  6
  3  2  1  0
  2  1  2  0
  8  4  1  0
  9  8  1  0
 10  9  1  0
M  END
>  <id>  (574) 
574

>  <inchikey>  (574) 
CVDDTGFVMVUXPC-NSHDSACASA-N

>  <alias>  (574) 
A5203a

>  <smiles>  (574) 
CSc1ccc(Br)cc1CC(=O)N1CCC[C@H](C(N)=O)CC1

>  <path>  (574) 
/opt/xchem-fragalysis-2/maxwin/BulkDock/TARGETS/A71EV2A/aligned_files/A5203a/A5203a_hippo.pdb

>  <distance_score>  (574) 
None

>  <energy_score>  (574) 
None

>  <compound>  (574) 
CVDDTGFVMVUXPC-UHFFFAOYSA-N

>  <compound_id>  (574) 
416

>  <target>  (574) 
A71EV2A

>  <tags>  (574) 
['GOOD count', 'MEDIOCRE count', '[Other] S1 site', 'hits', '[Other] S2 site', '[Other] P3 compound design', '[Series] Piperidine series', 'Main status', '[Other] upload_2 2025-02-28', 'BAD count']

>  <inspirations>  (574) 
None

>  <subsites>  (574) 
None

>  <reference>  (574) 


>  <observation_longname>  (574) 
A71EV2A-x5203_A_202_v2

>  <ConformerSites alias>  (574) 
1b - A0911/A/147

>  <CanonSites alias>  (574) 
1 - Active Site

>  <CrystalformSites alias>  (574) 
F7q - A4303/A/201

>  <Quatassemblies alias>  (574) 
A1 - monomer

>  <Crystalforms alias>  (574) 
F7 - A712A_x4207_8.1_refmac1_1st_ref

>  <ConformerSites upload name>  (574) 
1b - A71EV2A-x0911/A/147

>  <CanonSites upload name>  (574) 
1 - A71EV2A-x0911/A/147/1

>  <CrystalformSites upload name>  (574) 
F7q - A71EV2A-x4303/A/201/1

>  <Quatassemblies upload name>  (574) 
A1 - monomer

>  <Crystalforms upload name>  (574) 
F7 - A712A_x4207_8.1_refmac1_1st_ref

>  <ConformerSites short tag>  (574) 
1b - A0911/A/147

>  <CanonSites short tag>  (574) 
1 - A0911/A/147/1

>  <CrystalformSites short tag>  (574) 
F7q - A4303/A/201

>  <Quatassemblies short tag>  (574) 
A1 - monomer

>  <Crystalforms short tag>  (574) 
F7 - A712A_x4207_8.1_refmac1_1st_ref

>  <Centroid res>  (574) 
A71EV2A-x0911/A/133/A_v1

>  <Experiment code>  (574) 
A71EV2A-x5203

>  <Pose>  (574) 
A5203a

$$$$
A5203b
     RDKit          3D

 22 23  0  0  0  0  0  0  0  0999 V2000
   10.3910   16.7490   19.1680 O   0  0  0  0  0  0  0  0  0  0  0  0
   10.7420   15.5900   19.4630 C   0  0  0  0  0  0  0  0  0  0  0  0
   10.9890   14.6470   18.5620 N   0  0  0  0  0  0  0  0  0  0  0  0
   10.7610   15.1190   20.9080 C   0  0  1  0  0  0  0  0  0  0  0  0
   11.8920   15.8190   21.6870 C   0  0  0  0  0  0  0  0  0  0  0  0
   12.2130   15.1760   23.0320 C   0  0  0  0  0  0  0  0  0  0  0  0
   11.2700   15.5350   24.1590 C   0  0  0  0  0  0  0  0  0  0  0  0
    9.3440   15.2620   21.4920 C   0  0  0  0  0  0  0  0  0  0  0  0
    9.1600   15.7880   22.9100 C   0  0  0  0  0  0  0  0  0  0  0  0
    9.9020   15.0650   23.9490 N   0  0  0  0  0  0  0  0  0  0  0  0
    9.4010   14.0670   24.7180 C   0  0  0  0  0  0  0  0  0  0  0  0
   10.0590   13.5340   25.6080 O   0  0  0  0  0  0  0  0  0  0  0  0
    7.9860   13.6150   24.4140 C   0  0  0  0  0  0  0  0  0  0  0  0
    7.6210   12.3480   25.1560 C   0  0  0  0  0  0  0  0  0  0  0  0
    8.0460   11.0540   24.8120 C   0  0  0  0  0  0  0  0  0  0  0  0
    9.3560   10.8570   23.6370 S   0  0  0  0  0  0  0  0  0  0  0  0
    9.4270    9.0710   23.3710 C   0  0  0  0  0  0  0  0  0  0  0  0
    6.6750   12.4910   26.1650 C   0  0  0  0  0  0  0  0  0  0  0  0
    6.1140   11.3830   26.7500 C   0  0  0  0  0  0  0  0  0  0  0  0
    4.6590   11.6250   27.9500 Br  0  0  0  0  0  0  0  0  0  0  0  0
    6.5060   10.1120   26.4110 C   0  0  0  0  0  0  0  0  0  0  0  0
    7.4740    9.9430   25.4320 C   0  0  0  0  0  0  0  0  0  0  0  0
 17 16  1  0
 16 15  1  0
 15 22  2  0
 22 21  1  0
 21 19  2  0
 20 19  1  0
 19 18  1  0
 18 14  2  0
 15 14  1  0
 14 13  1  0
 13 11  1  0
 12 11  2  0
 11 10  1  0
 10  7  1  0
  7  6  1  0
  6  5  1  0
  5  4  1  0
  4  2  1  6
  3  2  1  0
  2  1  2  0
  8  4  1  0
  9  8  1  0
 10  9  1  0
M  END
>  <id>  (575) 
575

>  <inchikey>  (575) 
CVDDTGFVMVUXPC-NSHDSACASA-N

>  <alias>  (575) 
A5203b

>  <smiles>  (575) 
CSc1ccc(Br)cc1CC(=O)N1CCC[C@H](C(N)=O)CC1

>  <path>  (575) 
/opt/xchem-fragalysis-2/maxwin/BulkDock/TARGETS/A71EV2A/aligned_files/A5203b/A5203b.pdb

>  <distance_score>  (575) 
None

>  <energy_score>  (575) 
None

>  <compound>  (575) 
CVDDTGFVMVUXPC-UHFFFAOYSA-N

>  <compound_id>  (575) 
416

>  <target>  (575) 
A71EV2A

>  <tags>  (575) 
['GOOD count', 'MEDIOCRE count', '[Other] S1 site', 'hits', '[Other] S2 site', '[Other] P3 compound design', '[Series] Piperidine series', 'Main status', '[Other] upload_2 2025-02-28', 'BAD count']

>  <inspirations>  (575) 
None

>  <subsites>  (575) 
None

>  <reference>  (575) 


>  <observation_longname>  (575) 
A71EV2A-x5203_C_201_v2

>  <ConformerSites alias>  (575) 
1b - A0911/A/147

>  <CanonSites alias>  (575) 
1 - Active Site

>  <CrystalformSites alias>  (575) 
F7r - A4303/C/201

>  <Quatassemblies alias>  (575) 
A1 - monomer

>  <Crystalforms alias>  (575) 
F7 - A712A_x4207_8.1_refmac1_1st_ref

>  <ConformerSites upload name>  (575) 
1b - A71EV2A-x0911/A/147

>  <CanonSites upload name>  (575) 
1 - A71EV2A-x0911/A/147/1

>  <CrystalformSites upload name>  (575) 
F7r - A71EV2A-x4303/C/201/1

>  <Quatassemblies upload name>  (575) 
A1 - monomer

>  <Crystalforms upload name>  (575) 
F7 - A712A_x4207_8.1_refmac1_1st_ref

>  <ConformerSites short tag>  (575) 
1b - A0911/A/147

>  <CanonSites short tag>  (575) 
1 - A0911/A/147/1

>  <CrystalformSites short tag>  (575) 
F7r - A4303/C/201

>  <Quatassemblies short tag>  (575) 
A1 - monomer

>  <Crystalforms short tag>  (575) 
F7 - A712A_x4207_8.1_refmac1_1st_ref

>  <Centroid res>  (575) 
A71EV2A-x0911/A/133/A_v1

>  <Experiment code>  (575) 
A71EV2A-x5203

>  <Pose>  (575) 
A5203a

$$$$
A5210a
     RDKit          3D

 20 22  0  0  0  0  0  0  0  0999 V2000
   11.1170   14.8530   25.1140 O   0  0  0  0  0  0  0  0  0  0  0  0
   11.0160   14.9520   23.8920 C   0  0  0  0  0  0  0  0  0  0  0  0
   12.2270   15.3230   23.0800 C   0  0  0  0  0  0  0  0  0  0  0  0
   11.9250   15.8470   21.6780 C   0  0  0  0  0  0  0  0  0  0  0  0
    9.8310   14.7530   23.2580 N   0  0  0  0  0  0  0  0  0  0  0  0
    9.5990   14.9590   21.8170 C   0  0  0  0  0  0  0  0  0  0  0  0
   10.9000   14.9430   20.9940 C   0  0  1  0  0  0  0  0  0  0  0  0
   10.6470   15.4130   19.5720 C   0  0  0  0  0  0  0  0  0  0  0  0
   10.2520   16.5620   19.3400 O   0  0  0  0  0  0  0  0  0  0  0  0
   10.8800   14.5350   18.6120 N   0  0  0  0  0  0  0  0  0  0  0  0
    8.6790   14.3500   24.0940 C   0  0  2  0  0  0  0  0  0  0  0  0
    8.4570   12.8540   24.0930 C   0  0  0  0  0  0  0  0  0  0  0  0
    9.4240   11.9880   23.5810 C   0  0  0  0  0  0  0  0  0  0  0  0
    9.2670   10.6150   23.6670 C   0  0  0  0  0  0  0  0  0  0  0  0
    8.1690   10.0930   24.3110 C   0  0  0  0  0  0  0  0  0  0  0  0
    7.2090   10.9410   24.8370 C   0  0  0  0  0  0  0  0  0  0  0  0
    7.3080   12.3220   24.6850 C   0  0  0  0  0  0  0  0  0  0  0  0
    6.1220   13.2060   25.0130 C   0  0  0  0  0  0  0  0  0  0  0  0
    6.3140   14.7190   24.8310 C   0  0  0  0  0  0  0  0  0  0  0  0
    7.3600   15.0490   23.7540 C   0  0  0  0  0  0  0  0  0  0  0  0
 10  8  1  0
  9  8  2  0
  7  8  1  6
  7  4  1  0
  4  3  1  0
  3  2  1  0
  2  1  2  0
  5  2  1  0
 11  5  1  6
 11 20  1  0
 20 19  1  0
 19 18  1  0
 18 17  1  0
 17 16  1  0
 16 15  2  0
 15 14  1  0
 14 13  2  0
 13 12  1  0
 17 12  2  0
 12 11  1  0
  6  5  1  0
  7  6  1  0
M  END
>  <id>  (576) 
576

>  <inchikey>  (576) 
OUROYAJWZKVYSV-JSGCOSHPSA-N

>  <alias>  (576) 
A5210a

>  <smiles>  (576) 
NC(=O)[C@H]1CCC(=O)N([C@H]2CCCc3ccccc32)C1

>  <path>  (576) 
/opt/xchem-fragalysis-2/maxwin/BulkDock/TARGETS/A71EV2A/aligned_files/A5210a/A5210a_hippo.pdb

>  <distance_score>  (576) 
None

>  <energy_score>  (576) 
None

>  <compound>  (576) 
OUROYAJWZKVYSV-UHFFFAOYSA-N

>  <compound_id>  (576) 
405

>  <target>  (576) 
A71EV2A

>  <tags>  (576) 
['GOOD count', 'MEDIOCRE count', '[Other] S1 site', 'hits', '[Other] S2 site', '[Other] P3 compound design', '[Series] Piperidine series', 'Main status', '[Other] upload_2 2025-02-28', 'BAD count']

>  <inspirations>  (576) 
None

>  <subsites>  (576) 
None

>  <reference>  (576) 


>  <observation_longname>  (576) 
A71EV2A-x5210_A_201_v2

>  <ConformerSites alias>  (576) 
1b - A0911/A/147

>  <CanonSites alias>  (576) 
1 - Active Site

>  <CrystalformSites alias>  (576) 
F6o - A4214/A/201

>  <Quatassemblies alias>  (576) 
A1 - monomer

>  <Crystalforms alias>  (576) 
F6 - short_long_x4018

>  <ConformerSites upload name>  (576) 
1b - A71EV2A-x0911/A/147

>  <CanonSites upload name>  (576) 
1 - A71EV2A-x0911/A/147/1

>  <CrystalformSites upload name>  (576) 
F6o - A71EV2A-x4214/A/201/1

>  <Quatassemblies upload name>  (576) 
A1 - monomer

>  <Crystalforms upload name>  (576) 
F6 - short_long_x4018

>  <ConformerSites short tag>  (576) 
1b - A0911/A/147

>  <CanonSites short tag>  (576) 
1 - A0911/A/147/1

>  <CrystalformSites short tag>  (576) 
F6o - A4214/A/201

>  <Quatassemblies short tag>  (576) 
A1 - monomer

>  <Crystalforms short tag>  (576) 
F6 - short_long_x4018

>  <Centroid res>  (576) 
A71EV2A-x0911/A/133/A_v1

>  <Experiment code>  (576) 
A71EV2A-x5210

>  <Pose>  (576) 
A5210a

$$$$
A5210b
     RDKit          3D

 20 22  0  0  0  0  0  0  0  0999 V2000
   11.3070   15.0030   25.0810 O   0  0  0  0  0  0  0  0  0  0  0  0
   11.1840   15.0850   23.8620 C   0  0  0  0  0  0  0  0  0  0  0  0
   12.3900   15.4310   23.0260 C   0  0  0  0  0  0  0  0  0  0  0  0
   12.0490   15.9370   21.6290 C   0  0  0  0  0  0  0  0  0  0  0  0
    9.9920   14.8820   23.2550 N   0  0  0  0  0  0  0  0  0  0  0  0
    9.7410   15.0450   21.8100 C   0  0  0  0  0  0  0  0  0  0  0  0
   11.0280   15.0010   20.9770 C   0  0  1  0  0  0  0  0  0  0  0  0
   10.7250   15.4620   19.5640 C   0  0  0  0  0  0  0  0  0  0  0  0
   10.3360   16.6210   19.3390 O   0  0  0  0  0  0  0  0  0  0  0  0
   10.8980   14.5570   18.6100 N   0  0  0  0  0  0  0  0  0  0  0  0
    8.8620   14.4540   24.1120 C   0  0  2  0  0  0  0  0  0  0  0  0
    8.6660   12.9490   24.1320 C   0  0  0  0  0  0  0  0  0  0  0  0
    9.6210   12.0830   23.6000 C   0  0  0  0  0  0  0  0  0  0  0  0
    9.4770   10.7100   23.7060 C   0  0  0  0  0  0  0  0  0  0  0  0
    8.3970   10.1890   24.3700 C   0  0  0  0  0  0  0  0  0  0  0  0
    7.4380   11.0340   24.9020 C   0  0  0  0  0  0  0  0  0  0  0  0
    7.5340   12.4130   24.7530 C   0  0  0  0  0  0  0  0  0  0  0  0
    6.3700   13.2960   25.1510 C   0  0  0  0  0  0  0  0  0  0  0  0
    6.5620   14.8080   24.9600 C   0  0  0  0  0  0  0  0  0  0  0  0
    7.5220   15.1140   23.7920 C   0  0  0  0  0  0  0  0  0  0  0  0
 10  8  1  0
  9  8  2  0
  7  8  1  6
  7  4  1  0
  4  3  1  0
  3  2  1  0
  2  1  2  0
  5  2  1  0
 11  5  1  6
 11 20  1  0
 20 19  1  0
 19 18  1  0
 18 17  1  0
 17 16  1  0
 16 15  2  0
 15 14  1  0
 14 13  2  0
 13 12  1  0
 17 12  2  0
 12 11  1  0
  6  5  1  0
  7  6  1  0
M  END
>  <id>  (577) 
577

>  <inchikey>  (577) 
OUROYAJWZKVYSV-JSGCOSHPSA-N

>  <alias>  (577) 
A5210b

>  <smiles>  (577) 
NC(=O)[C@H]1CCC(=O)N([C@H]2CCCc3ccccc32)C1

>  <path>  (577) 
/opt/xchem-fragalysis-2/maxwin/BulkDock/TARGETS/A71EV2A/aligned_files/A5210b/A5210b_hippo.pdb

>  <distance_score>  (577) 
None

>  <energy_score>  (577) 
None

>  <compound>  (577) 
OUROYAJWZKVYSV-UHFFFAOYSA-N

>  <compound_id>  (577) 
405

>  <target>  (577) 
A71EV2A

>  <tags>  (577) 
['GOOD count', 'MEDIOCRE count', '[Other] S1 site', 'hits', '[Other] S2 site', '[Other] P3 compound design', '[Series] Piperidine series', 'Main status', '[Other] upload_2 2025-02-28', 'BAD count']

>  <inspirations>  (577) 
None

>  <subsites>  (577) 
None

>  <reference>  (577) 


>  <observation_longname>  (577) 
A71EV2A-x5210_C_201_v2

>  <ConformerSites alias>  (577) 
1b - A0911/A/147

>  <CanonSites alias>  (577) 
1 - Active Site

>  <CrystalformSites alias>  (577) 
F6p - A4214/C/201

>  <Quatassemblies alias>  (577) 
A1 - monomer

>  <Crystalforms alias>  (577) 
F6 - short_long_x4018

>  <ConformerSites upload name>  (577) 
1b - A71EV2A-x0911/A/147

>  <CanonSites upload name>  (577) 
1 - A71EV2A-x0911/A/147/1

>  <CrystalformSites upload name>  (577) 
F6p - A71EV2A-x4214/C/201/1

>  <Quatassemblies upload name>  (577) 
A1 - monomer

>  <Crystalforms upload name>  (577) 
F6 - short_long_x4018

>  <ConformerSites short tag>  (577) 
1b - A0911/A/147

>  <CanonSites short tag>  (577) 
1 - A0911/A/147/1

>  <CrystalformSites short tag>  (577) 
F6p - A4214/C/201

>  <Quatassemblies short tag>  (577) 
A1 - monomer

>  <Crystalforms short tag>  (577) 
F6 - short_long_x4018

>  <Centroid res>  (577) 
A71EV2A-x0911/A/133/A_v1

>  <Experiment code>  (577) 
A71EV2A-x5210

>  <Pose>  (577) 
A5210a

$$$$
A5212a
     RDKit          3D

 20 21  0  0  0  0  0  0  0  0999 V2000
   10.2350   16.8040   19.0700 O   0  0  0  0  0  0  0  0  0  0  0  0
   10.6030   15.6460   19.3260 C   0  0  0  0  0  0  0  0  0  0  0  0
   10.9270   14.7650   18.3900 N   0  0  0  0  0  0  0  0  0  0  0  0
   10.6930   15.1490   20.7590 C   0  0  1  0  0  0  0  0  0  0  0  0
   11.7470   15.9290   21.5580 C   0  0  0  0  0  0  0  0  0  0  0  0
   11.8280   15.4260   23.0030 C   0  0  0  0  0  0  0  0  0  0  0  0
   10.4610   15.4700   23.6650 C   0  0  0  0  0  0  0  0  0  0  0  0
    9.3380   15.2320   21.4700 C   0  0  0  0  0  0  0  0  0  0  0  0
    9.4530   14.7630   22.8560 N   0  0  0  0  0  0  0  0  0  0  0  0
    8.6310   13.7960   23.3280 C   0  0  0  0  0  0  0  0  0  0  0  0
    7.7490   13.3030   22.6400 O   0  0  0  0  0  0  0  0  0  0  0  0
    8.8280   13.3840   24.7780 C   0  0  0  0  0  0  0  0  0  0  0  0
    7.7580   12.4380   25.2700 C   0  0  0  0  0  0  0  0  0  0  0  0
    7.8550   11.0570   25.1000 C   0  0  0  0  0  0  0  0  0  0  0  0
    8.9000   10.4560   24.3000 C   0  0  0  0  0  0  0  0  0  0  0  0
    9.7390   10.0220   23.6550 N   0  0  0  0  0  0  0  0  0  0  0  0
    6.6720   12.8810   25.9990 C   0  0  0  0  0  0  0  0  0  0  0  0
    5.7660   12.0690   26.5500 N   0  0  0  0  0  0  0  0  0  0  0  0
    5.9790   10.7740   26.3510 C   0  0  0  0  0  0  0  0  0  0  0  0
    6.9650   10.2100   25.6500 N   0  0  0  0  0  0  0  0  0  0  0  0
 16 15  3  0
 15 14  1  0
 14 20  2  0
 20 19  1  0
 19 18  2  0
 18 17  1  0
 17 13  2  0
 14 13  1  0
 13 12  1  0
 12 10  1  0
 11 10  2  0
 10  9  1  0
  9  7  1  0
  7  6  1  0
  6  5  1  0
  5  4  1  0
  4  2  1  6
  3  2  1  0
  2  1  2  0
  8  4  1  0
  9  8  1  0
M  END
>  <id>  (578) 
578

>  <inchikey>  (578) 
WXXXEMOOVWCNSU-VIFPVBQESA-N

>  <alias>  (578) 
A5212a

>  <smiles>  (578) 
N#Cc1ncncc1CC(=O)N1CCC[C@H](C(N)=O)C1

>  <path>  (578) 
/opt/xchem-fragalysis-2/maxwin/BulkDock/TARGETS/A71EV2A/aligned_files/A5212a/A5212a.pdb

>  <distance_score>  (578) 
None

>  <energy_score>  (578) 
None

>  <compound>  (578) 
WXXXEMOOVWCNSU-UHFFFAOYSA-N

>  <compound_id>  (578) 
417

>  <target>  (578) 
A71EV2A

>  <tags>  (578) 
['GOOD count', 'MEDIOCRE count', '[Other] S1 site', 'hits', '[Other] upload_3 2025-03-06', '[Other] S2 site', '[Other] P3 compound design', '[Series] Piperidine series', 'Main status', 'BAD count']

>  <inspirations>  (578) 
None

>  <subsites>  (578) 
None

>  <reference>  (578) 


>  <observation_longname>  (578) 
A71EV2A-x5212_A_201_v3

>  <ConformerSites alias>  (578) 
1b - A0911/A/147

>  <CanonSites alias>  (578) 
1 - Active Site

>  <CrystalformSites alias>  (578) 
F8h - A0884/A/147

>  <Quatassemblies alias>  (578) 
A1 - monomer

>  <Crystalforms alias>  (578) 
F8 - A712A_x4271_2.1_refmac1_1st_ref

>  <ConformerSites upload name>  (578) 
1b - A71EV2A-x0911/A/147

>  <CanonSites upload name>  (578) 
1 - A71EV2A-x0911/A/147/1

>  <CrystalformSites upload name>  (578) 
F8h - A71EV2A-x0884/A/147/1

>  <Quatassemblies upload name>  (578) 
A1 - monomer

>  <Crystalforms upload name>  (578) 
F8 - A712A_x4271_2.1_refmac1_1st_ref

>  <ConformerSites short tag>  (578) 
1b - A0911/A/147

>  <CanonSites short tag>  (578) 
1 - A0911/A/147/1

>  <CrystalformSites short tag>  (578) 
F8h - A0884/A/147

>  <Quatassemblies short tag>  (578) 
A1 - monomer

>  <Crystalforms short tag>  (578) 
F8 - A712A_x4271_2.1_refmac1_1st_ref

>  <Centroid res>  (578) 
A71EV2A-x0911/A/133/A_v1

>  <Experiment code>  (578) 
A71EV2A-x5212

>  <Pose>  (578) 
A5212a

$$$$
A5213a
     RDKit          3D

 19 20  0  0  0  0  0  0  0  0999 V2000
    9.4420    8.5650   23.1770 Cl  0  0  0  0  0  0  0  0  0  0  0  0
    8.5730    9.7260   24.1230 C   0  0  0  0  0  0  0  0  0  0  0  0
    7.5370    9.2490   24.7870 N   0  0  0  0  0  0  0  0  0  0  0  0
    6.9290   10.1660   25.5570 C   0  0  0  0  0  0  0  0  0  0  0  0
    7.3330   11.4810   25.6370 C   0  0  0  0  0  0  0  0  0  0  0  0
    9.0680   10.9450   24.0850 N   0  0  0  0  0  0  0  0  0  0  0  0
    8.4140   11.8340   24.8500 C   0  0  0  0  0  0  0  0  0  0  0  0
    8.9040   13.2560   24.7470 C   0  0  0  0  0  0  0  0  0  0  0  0
    8.6400   13.8360   23.3690 C   0  0  0  0  0  0  0  0  0  0  0  0
    7.7820   13.3640   22.6370 O   0  0  0  0  0  0  0  0  0  0  0  0
    9.4250   14.8630   22.9860 N   0  0  0  0  0  0  0  0  0  0  0  0
   10.5240   15.4260   23.7860 C   0  0  0  0  0  0  0  0  0  0  0  0
   11.8610   15.1770   23.1020 C   0  0  0  0  0  0  0  0  0  0  0  0
   11.8270   15.6600   21.6430 C   0  0  0  0  0  0  0  0  0  0  0  0
    9.3390   15.3580   21.6100 C   0  0  0  0  0  0  0  0  0  0  0  0
   10.6450   15.0310   20.8740 C   0  0  1  0  0  0  0  0  0  0  0  0
   10.5820   15.5210   19.4360 C   0  0  0  0  0  0  0  0  0  0  0  0
   10.2150   16.6680   19.1680 O   0  0  0  0  0  0  0  0  0  0  0  0
   10.9220   14.6380   18.5020 N   0  0  0  0  0  0  0  0  0  0  0  0
 19 17  1  0
 18 17  2  0
 16 17  1  6
 16 14  1  0
 14 13  1  0
 13 12  1  0
 12 11  1  0
 11  9  1  0
 10  9  2  0
  9  8  1  0
  8  7  1  0
  7  5  1  0
  5  4  2  0
  4  3  1  0
  3  2  2  0
  2  1  1  0
  6  2  1  0
  7  6  2  0
 15 11  1  0
 16 15  1  0
M  END
>  <id>  (579) 
579

>  <inchikey>  (579) 
UJTNPOXHMLXHKO-QMMMGPOBSA-N

>  <alias>  (579) 
A5213a

>  <smiles>  (579) 
NC(=O)[C@H]1CCCN(C(=O)Cc2ccnc(Cl)n2)C1

>  <path>  (579) 
/opt/xchem-fragalysis-2/maxwin/BulkDock/TARGETS/A71EV2A/aligned_files/A5213a/A5213a_hippo.pdb

>  <distance_score>  (579) 
None

>  <energy_score>  (579) 
None

>  <compound>  (579) 
UJTNPOXHMLXHKO-UHFFFAOYSA-N

>  <compound_id>  (579) 
418

>  <target>  (579) 
A71EV2A

>  <tags>  (579) 
['GOOD count', 'MEDIOCRE count', '[Other] S1 site', 'hits', '[Other] upload_3 2025-03-06', '[Other] S2 site', '[Other] P3 compound design', '[Series] Piperidine series', 'Main status', 'BAD count']

>  <inspirations>  (579) 
None

>  <subsites>  (579) 
None

>  <reference>  (579) 


>  <observation_longname>  (579) 
A71EV2A-x5213_A_201_v3

>  <ConformerSites alias>  (579) 
1b - A0911/A/147

>  <CanonSites alias>  (579) 
1 - Active Site

>  <CrystalformSites alias>  (579) 
F7q - A4303/A/201

>  <Quatassemblies alias>  (579) 
A1 - monomer

>  <Crystalforms alias>  (579) 
F7 - A712A_x4207_8.1_refmac1_1st_ref

>  <ConformerSites upload name>  (579) 
1b - A71EV2A-x0911/A/147

>  <CanonSites upload name>  (579) 
1 - A71EV2A-x0911/A/147/1

>  <CrystalformSites upload name>  (579) 
F7q - A71EV2A-x4303/A/201/1

>  <Quatassemblies upload name>  (579) 
A1 - monomer

>  <Crystalforms upload name>  (579) 
F7 - A712A_x4207_8.1_refmac1_1st_ref

>  <ConformerSites short tag>  (579) 
1b - A0911/A/147

>  <CanonSites short tag>  (579) 
1 - A0911/A/147/1

>  <CrystalformSites short tag>  (579) 
F7q - A4303/A/201

>  <Quatassemblies short tag>  (579) 
A1 - monomer

>  <Crystalforms short tag>  (579) 
F7 - A712A_x4207_8.1_refmac1_1st_ref

>  <Centroid res>  (579) 
A71EV2A-x0911/A/133/A_v1

>  <Experiment code>  (579) 
A71EV2A-x5213

>  <Pose>  (579) 
A5213a

$$$$
A5213b
     RDKit          3D

 19 20  0  0  0  0  0  0  0  0999 V2000
    9.6990    8.4510   23.1370 Cl  0  0  0  0  0  0  0  0  0  0  0  0
    8.8880    9.6200   24.1300 C   0  0  0  0  0  0  0  0  0  0  0  0
    7.8650    9.1540   24.8280 N   0  0  0  0  0  0  0  0  0  0  0  0
    7.3020   10.0700   25.6320 C   0  0  0  0  0  0  0  0  0  0  0  0
    7.7240   11.3820   25.7030 C   0  0  0  0  0  0  0  0  0  0  0  0
    9.4030   10.8330   24.0920 N   0  0  0  0  0  0  0  0  0  0  0  0
    8.7960   11.7240   24.8920 C   0  0  0  0  0  0  0  0  0  0  0  0
    9.3130   13.1410   24.7850 C   0  0  0  0  0  0  0  0  0  0  0  0
    8.9740   13.7490   23.4350 C   0  0  0  0  0  0  0  0  0  0  0  0
    8.0730   13.2860   22.7430 O   0  0  0  0  0  0  0  0  0  0  0  0
    9.7130   14.8100   23.0360 N   0  0  0  0  0  0  0  0  0  0  0  0
   10.7990   15.4580   23.7870 C   0  0  0  0  0  0  0  0  0  0  0  0
   12.1270   15.2310   23.0620 C   0  0  0  0  0  0  0  0  0  0  0  0
   12.0370   15.6960   21.5990 C   0  0  0  0  0  0  0  0  0  0  0  0
    9.5650   15.3220   21.6720 C   0  0  0  0  0  0  0  0  0  0  0  0
   10.8460   15.0360   20.8750 C   0  0  1  0  0  0  0  0  0  0  0  0
   10.7250   15.5310   19.4450 C   0  0  0  0  0  0  0  0  0  0  0  0
   10.3400   16.6840   19.2010 O   0  0  0  0  0  0  0  0  0  0  0  0
   11.0000   14.6430   18.4900 N   0  0  0  0  0  0  0  0  0  0  0  0
 19 17  1  0
 18 17  2  0
 16 17  1  6
 16 14  1  0
 14 13  1  0
 13 12  1  0
 12 11  1  0
 11  9  1  0
 10  9  2  0
  9  8  1  0
  8  7  1  0
  7  5  1  0
  5  4  2  0
  4  3  1  0
  3  2  2  0
  2  1  1  0
  6  2  1  0
  7  6  2  0
 15 11  1  0
 16 15  1  0
M  END
>  <id>  (580) 
580

>  <inchikey>  (580) 
UJTNPOXHMLXHKO-QMMMGPOBSA-N

>  <alias>  (580) 
A5213b

>  <smiles>  (580) 
NC(=O)[C@H]1CCCN(C(=O)Cc2ccnc(Cl)n2)C1

>  <path>  (580) 
/opt/xchem-fragalysis-2/maxwin/BulkDock/TARGETS/A71EV2A/aligned_files/A5213b/A5213b.pdb

>  <distance_score>  (580) 
None

>  <energy_score>  (580) 
None

>  <compound>  (580) 
UJTNPOXHMLXHKO-UHFFFAOYSA-N

>  <compound_id>  (580) 
418

>  <target>  (580) 
A71EV2A

>  <tags>  (580) 
['GOOD count', 'MEDIOCRE count', '[Other] S1 site', 'hits', '[Other] upload_3 2025-03-06', '[Other] S2 site', '[Other] P3 compound design', '[Series] Piperidine series', 'Main status', 'BAD count']

>  <inspirations>  (580) 
None

>  <subsites>  (580) 
None

>  <reference>  (580) 


>  <observation_longname>  (580) 
A71EV2A-x5213_C_201_v3

>  <ConformerSites alias>  (580) 
1b - A0911/A/147

>  <CanonSites alias>  (580) 
1 - Active Site

>  <CrystalformSites alias>  (580) 
F7r - A4303/C/201

>  <Quatassemblies alias>  (580) 
A1 - monomer

>  <Crystalforms alias>  (580) 
F7 - A712A_x4207_8.1_refmac1_1st_ref

>  <ConformerSites upload name>  (580) 
1b - A71EV2A-x0911/A/147

>  <CanonSites upload name>  (580) 
1 - A71EV2A-x0911/A/147/1

>  <CrystalformSites upload name>  (580) 
F7r - A71EV2A-x4303/C/201/1

>  <Quatassemblies upload name>  (580) 
A1 - monomer

>  <Crystalforms upload name>  (580) 
F7 - A712A_x4207_8.1_refmac1_1st_ref

>  <ConformerSites short tag>  (580) 
1b - A0911/A/147

>  <CanonSites short tag>  (580) 
1 - A0911/A/147/1

>  <CrystalformSites short tag>  (580) 
F7r - A4303/C/201

>  <Quatassemblies short tag>  (580) 
A1 - monomer

>  <Crystalforms short tag>  (580) 
F7 - A712A_x4207_8.1_refmac1_1st_ref

>  <Centroid res>  (580) 
A71EV2A-x0911/A/133/A_v1

>  <Experiment code>  (580) 
A71EV2A-x5213

>  <Pose>  (580) 
A5213a

$$$$
A5219a
     RDKit          3D

 19 20  0  0  0  0  0  0  0  0999 V2000
   10.2130   16.6040   19.1650 O   0  0  0  0  0  0  0  0  0  0  0  0
   10.5620   15.4460   19.4170 C   0  0  0  0  0  0  0  0  0  0  0  0
   10.9210   14.5820   18.4800 N   0  0  0  0  0  0  0  0  0  0  0  0
   10.5150   14.9040   20.8340 C   0  0  1  0  0  0  0  0  0  0  0  0
   11.4980   15.6370   21.7620 C   0  0  0  0  0  0  0  0  0  0  0  0
   11.4040   15.0780   23.1840 C   0  0  0  0  0  0  0  0  0  0  0  0
    9.9700   15.1630   23.6970 C   0  0  0  0  0  0  0  0  0  0  0  0
    9.0960   15.0720   21.3780 C   0  0  0  0  0  0  0  0  0  0  0  0
    9.0260   14.5520   22.7460 N   0  0  0  0  0  0  0  0  0  0  0  0
    8.0400   13.7050   23.1040 C   0  0  0  0  0  0  0  0  0  0  0  0
    7.1870   13.3020   22.3480 O   0  0  0  0  0  0  0  0  0  0  0  0
    8.1490   13.3510   24.3970 O   0  0  0  0  0  0  0  0  0  0  0  0
    7.1180   12.4720   24.9350 C   0  0  1  0  0  0  0  0  0  0  0  0
    7.8750   11.3720   25.6790 C   0  0  2  0  0  0  0  0  0  0  0  0
    8.7180   10.5030   24.7470 C   0  0  0  0  0  0  0  0  0  0  0  0
    6.2890   13.3300   25.8760 C   0  0  0  0  0  0  0  0  0  0  0  0
    5.3230   12.5070   26.7480 C   0  0  0  0  0  0  0  0  0  0  0  0
    6.0440   11.3680   27.4570 C   0  0  0  0  0  0  0  0  0  0  0  0
    6.8780   10.5300   26.4730 C   0  0  0  0  0  0  0  0  0  0  0  0
 14 15  1  6
 14 19  1  0
 19 18  1  0
 18 17  1  0
 17 16  1  0
 16 13  1  0
 14 13  1  0
 13 12  1  1
 12 10  1  0
 11 10  2  0
 10  9  1  0
  9  7  1  0
  7  6  1  0
  6  5  1  0
  5  4  1  0
  4  2  1  6
  3  2  1  0
  2  1  2  0
  8  4  1  0
  9  8  1  0
M  END
>  <id>  (581) 
581

>  <inchikey>  (581) 
ZAWQXTDATNVLIA-GRYCIOLGSA-N

>  <alias>  (581) 
A5219a

>  <smiles>  (581) 
C[C@@H]1CCCC[C@H]1OC(=O)N1CCC[C@H](C(N)=O)C1

>  <path>  (581) 
/opt/xchem-fragalysis-2/maxwin/BulkDock/TARGETS/A71EV2A/aligned_files/A5219a/A5219a_hippo.pdb

>  <distance_score>  (581) 
None

>  <energy_score>  (581) 
None

>  <compound>  (581) 
ZAWQXTDATNVLIA-UHFFFAOYSA-N

>  <compound_id>  (581) 
419

>  <target>  (581) 
A71EV2A

>  <tags>  (581) 
['GOOD count', 'MEDIOCRE count', '[Other] S1 site', 'hits', '[Other] upload_3 2025-03-06', '[Other] S2 site', '[Other] P3 compound design', '[Series] Piperidine series', 'Main status', 'BAD count']

>  <inspirations>  (581) 
None

>  <subsites>  (581) 
None

>  <reference>  (581) 


>  <observation_longname>  (581) 
A71EV2A-x5219_A_201_v3

>  <ConformerSites alias>  (581) 
1b - A0911/A/147

>  <CanonSites alias>  (581) 
1 - Active Site

>  <CrystalformSites alias>  (581) 
F7q - A4303/A/201

>  <Quatassemblies alias>  (581) 
A1 - monomer

>  <Crystalforms alias>  (581) 
F7 - A712A_x4207_8.1_refmac1_1st_ref

>  <ConformerSites upload name>  (581) 
1b - A71EV2A-x0911/A/147

>  <CanonSites upload name>  (581) 
1 - A71EV2A-x0911/A/147/1

>  <CrystalformSites upload name>  (581) 
F7q - A71EV2A-x4303/A/201/1

>  <Quatassemblies upload name>  (581) 
A1 - monomer

>  <Crystalforms upload name>  (581) 
F7 - A712A_x4207_8.1_refmac1_1st_ref

>  <ConformerSites short tag>  (581) 
1b - A0911/A/147

>  <CanonSites short tag>  (581) 
1 - A0911/A/147/1

>  <CrystalformSites short tag>  (581) 
F7q - A4303/A/201

>  <Quatassemblies short tag>  (581) 
A1 - monomer

>  <Crystalforms short tag>  (581) 
F7 - A712A_x4207_8.1_refmac1_1st_ref

>  <Centroid res>  (581) 
A71EV2A-x0911/A/133/A_v1

>  <Experiment code>  (581) 
A71EV2A-x5219

>  <Pose>  (581) 
A5219a

$$$$
A5219b
     RDKit          3D

 19 20  0  0  0  0  0  0  0  0999 V2000
   10.2400   16.6560   19.2560 O   0  0  0  0  0  0  0  0  0  0  0  0
   10.6560   15.5030   19.4540 C   0  0  0  0  0  0  0  0  0  0  0  0
   10.9700   14.6640   18.4810 N   0  0  0  0  0  0  0  0  0  0  0  0
   10.7270   14.9260   20.8570 C   0  0  1  0  0  0  0  0  0  0  0  0
   11.7130   15.7180   21.7260 C   0  0  0  0  0  0  0  0  0  0  0  0
   11.6630   15.2320   23.1810 C   0  0  0  0  0  0  0  0  0  0  0  0
   10.2340   15.3260   23.7260 C   0  0  0  0  0  0  0  0  0  0  0  0
    9.3190   15.0880   21.4520 C   0  0  0  0  0  0  0  0  0  0  0  0
    9.2970   14.6150   22.8380 N   0  0  0  0  0  0  0  0  0  0  0  0
    8.3700   13.7250   23.2660 C   0  0  0  0  0  0  0  0  0  0  0  0
    7.5140   13.2350   22.5610 O   0  0  0  0  0  0  0  0  0  0  0  0
    8.5210   13.4580   24.5890 O   0  0  0  0  0  0  0  0  0  0  0  0
    7.5890   12.5010   25.1760 C   0  0  1  0  0  0  0  0  0  0  0  0
    8.4320   11.3710   25.7660 C   0  0  2  0  0  0  0  0  0  0  0  0
    9.2960   10.6600   24.7250 C   0  0  0  0  0  0  0  0  0  0  0  0
    6.7920   13.2200   26.2480 C   0  0  0  0  0  0  0  0  0  0  0  0
    5.8730   12.2530   27.0160 C   0  0  0  0  0  0  0  0  0  0  0  0
    6.6500   11.0620   27.5710 C   0  0  0  0  0  0  0  0  0  0  0  0
    7.5070   10.3900   26.4870 C   0  0  0  0  0  0  0  0  0  0  0  0
 14 15  1  6
 14 19  1  0
 19 18  1  0
 18 17  1  0
 17 16  1  0
 16 13  1  0
 14 13  1  0
 13 12  1  1
 12 10  1  0
 11 10  2  0
 10  9  1  0
  9  7  1  0
  7  6  1  0
  6  5  1  0
  5  4  1  0
  4  2  1  6
  3  2  1  0
  2  1  2  0
  8  4  1  0
  9  8  1  0
M  END
>  <id>  (582) 
582

>  <inchikey>  (582) 
ZAWQXTDATNVLIA-GRYCIOLGSA-N

>  <alias>  (582) 
A5219b

>  <smiles>  (582) 
C[C@@H]1CCCC[C@H]1OC(=O)N1CCC[C@H](C(N)=O)C1

>  <path>  (582) 
/opt/xchem-fragalysis-2/maxwin/BulkDock/TARGETS/A71EV2A/aligned_files/A5219b/A5219b_hippo.pdb

>  <distance_score>  (582) 
None

>  <energy_score>  (582) 
None

>  <compound>  (582) 
ZAWQXTDATNVLIA-UHFFFAOYSA-N

>  <compound_id>  (582) 
419

>  <target>  (582) 
A71EV2A

>  <tags>  (582) 
['GOOD count', 'MEDIOCRE count', '[Other] S1 site', 'hits', '[Other] upload_3 2025-03-06', '[Other] S2 site', '[Other] P3 compound design', '[Series] Piperidine series', 'Main status', 'BAD count']

>  <inspirations>  (582) 
None

>  <subsites>  (582) 
None

>  <reference>  (582) 


>  <observation_longname>  (582) 
A71EV2A-x5219_C_201_v3

>  <ConformerSites alias>  (582) 
1b - A0911/A/147

>  <CanonSites alias>  (582) 
1 - Active Site

>  <CrystalformSites alias>  (582) 
F7r - A4303/C/201

>  <Quatassemblies alias>  (582) 
A1 - monomer

>  <Crystalforms alias>  (582) 
F7 - A712A_x4207_8.1_refmac1_1st_ref

>  <ConformerSites upload name>  (582) 
1b - A71EV2A-x0911/A/147

>  <CanonSites upload name>  (582) 
1 - A71EV2A-x0911/A/147/1

>  <CrystalformSites upload name>  (582) 
F7r - A71EV2A-x4303/C/201/1

>  <Quatassemblies upload name>  (582) 
A1 - monomer

>  <Crystalforms upload name>  (582) 
F7 - A712A_x4207_8.1_refmac1_1st_ref

>  <ConformerSites short tag>  (582) 
1b - A0911/A/147

>  <CanonSites short tag>  (582) 
1 - A0911/A/147/1

>  <CrystalformSites short tag>  (582) 
F7r - A4303/C/201

>  <Quatassemblies short tag>  (582) 
A1 - monomer

>  <Crystalforms short tag>  (582) 
F7 - A712A_x4207_8.1_refmac1_1st_ref

>  <Centroid res>  (582) 
A71EV2A-x0911/A/133/A_v1

>  <Experiment code>  (582) 
A71EV2A-x5219

>  <Pose>  (582) 
A5219a

$$$$
A5221a
     RDKit          3D

 21 23  0  0  0  0  0  0  0  0999 V2000
    7.8390   13.3030   22.6970 O   0  0  0  0  0  0  0  0  0  0  0  0
    8.6010   13.9030   23.4410 C   0  0  0  0  0  0  0  0  0  0  0  0
    9.4200   14.8810   22.9860 N   0  0  0  0  0  0  0  0  0  0  0  0
   10.4570   15.5500   23.7880 C   0  0  0  0  0  0  0  0  0  0  0  0
   11.8240   15.3450   23.1610 C   0  0  0  0  0  0  0  0  0  0  0  0
   11.8210   15.7930   21.6880 C   0  0  0  0  0  0  0  0  0  0  0  0
    9.3490   15.3620   21.6010 C   0  0  0  0  0  0  0  0  0  0  0  0
   10.6880   15.1250   20.8870 C   0  0  1  0  0  0  0  0  0  0  0  0
   10.6920   15.5870   19.4390 C   0  0  0  0  0  0  0  0  0  0  0  0
   10.3800   16.7450   19.1330 O   0  0  0  0  0  0  0  0  0  0  0  0
   11.0580   14.6820   18.5410 N   0  0  0  0  0  0  0  0  0  0  0  0
    8.6810   13.5710   24.9220 C   0  0  0  0  0  0  0  0  0  0  0  0
    8.0850   12.2190   25.2490 C   0  0  0  0  0  0  0  0  0  0  0  0
    8.5190   11.0300   24.6390 C   0  0  0  0  0  0  0  0  0  0  0  0
    9.8000   10.8290   23.4930 S   0  0  0  0  0  0  0  0  0  0  0  0
    9.4100    9.1350   23.4560 C   0  0  0  0  0  0  0  0  0  0  0  0
    8.4370    8.7320   24.2080 N   0  0  0  0  0  0  0  0  0  0  0  0
    7.9060    9.8080   24.9140 C   0  0  0  0  0  0  0  0  0  0  0  0
    6.8550    9.7530   25.8330 C   0  0  0  0  0  0  0  0  0  0  0  0
    6.4360   10.9170   26.4620 C   0  0  0  0  0  0  0  0  0  0  0  0
    7.0390   12.1310   26.1720 C   0  0  0  0  0  0  0  0  0  0  0  0
 11  9  1  0
 10  9  2  0
  8  9  1  6
  8  6  1  0
  6  5  1  0
  5  4  1  0
  4  3  1  0
  3  2  1  0
  2  1  2  0
 12  2  1  0
 13 12  1  0
 13 21  1  0
 21 20  2  0
 20 19  1  0
 19 18  2  0
 18 17  1  0
 17 16  2  0
 16 15  1  0
 15 14  1  0
 14 13  2  0
 18 14  1  0
  7  3  1  0
  8  7  1  0
M  END
>  <id>  (583) 
583

>  <inchikey>  (583) 
WGNHPXNYNNGWCO-NSHDSACASA-N

>  <alias>  (583) 
A5221a

>  <smiles>  (583) 
NC(=O)[C@H]1CCCN(C(=O)Cc2cccc3ncsc23)C1

>  <path>  (583) 
/opt/xchem-fragalysis-2/maxwin/BulkDock/TARGETS/A71EV2A/aligned_files/A5221a/A5221a.pdb

>  <distance_score>  (583) 
None

>  <energy_score>  (583) 
None

>  <compound>  (583) 
WGNHPXNYNNGWCO-UHFFFAOYSA-N

>  <compound_id>  (583) 
420

>  <target>  (583) 
A71EV2A

>  <tags>  (583) 
['GOOD count', 'MEDIOCRE count', '[Other] S1 site', 'hits', '[Other] upload_3 2025-03-06', '[Other] S2 site', '[Other] P3 compound design', '[Series] Piperidine series', 'Main status', 'BAD count']

>  <inspirations>  (583) 
None

>  <subsites>  (583) 
None

>  <reference>  (583) 


>  <observation_longname>  (583) 
A71EV2A-x5221_A_201_v3

>  <ConformerSites alias>  (583) 
1b - A0911/A/147

>  <CanonSites alias>  (583) 
1 - Active Site

>  <CrystalformSites alias>  (583) 
F8h - A0884/A/147

>  <Quatassemblies alias>  (583) 
A1 - monomer

>  <Crystalforms alias>  (583) 
F8 - A712A_x4271_2.1_refmac1_1st_ref

>  <ConformerSites upload name>  (583) 
1b - A71EV2A-x0911/A/147

>  <CanonSites upload name>  (583) 
1 - A71EV2A-x0911/A/147/1

>  <CrystalformSites upload name>  (583) 
F8h - A71EV2A-x0884/A/147/1

>  <Quatassemblies upload name>  (583) 
A1 - monomer

>  <Crystalforms upload name>  (583) 
F8 - A712A_x4271_2.1_refmac1_1st_ref

>  <ConformerSites short tag>  (583) 
1b - A0911/A/147

>  <CanonSites short tag>  (583) 
1 - A0911/A/147/1

>  <CrystalformSites short tag>  (583) 
F8h - A0884/A/147

>  <Quatassemblies short tag>  (583) 
A1 - monomer

>  <Crystalforms short tag>  (583) 
F8 - A712A_x4271_2.1_refmac1_1st_ref

>  <Centroid res>  (583) 
A71EV2A-x0911/A/133/A_v1

>  <Experiment code>  (583) 
A71EV2A-x5221

>  <Pose>  (583) 
A5221a

$$$$
A5222a
     RDKit          3D

 24 26  0  0  0  0  0  0  0  0999 V2000
   11.1810   14.7570   24.9760 O   0  0  0  0  0  0  0  0  0  0  0  0
   11.1920   14.8970   23.7510 C   0  0  0  0  0  0  0  0  0  0  0  0
   12.3420   15.6060   23.0740 C   0  0  0  0  0  0  0  0  0  0  0  0
   12.0630   16.1140   21.6540 C   0  0  0  0  0  0  0  0  0  0  0  0
   11.3390   15.0260   20.8410 C   0  0  2  0  0  0  0  0  0  0  0  0
   11.0530   15.4840   19.4210 C   0  0  0  0  0  0  0  0  0  0  0  0
   10.5130   16.5810   19.1960 O   0  0  0  0  0  0  0  0  0  0  0  0
   11.3180   14.5950   18.4700 N   0  0  0  0  0  0  0  0  0  0  0  0
    9.9950   14.7530   21.5370 C   0  0  0  0  0  0  0  0  0  0  0  0
   10.1710   14.4730   22.9680 N   0  0  0  0  0  0  0  0  0  0  0  0
    9.1130   13.6410   23.5560 C   0  0  0  0  0  0  0  0  0  0  0  0
    9.5990   12.2150   23.8010 C   0  0  0  0  0  0  0  0  0  0  0  0
    8.5600   11.2510   24.3110 C   0  0  0  0  0  0  0  0  0  0  0  0
    8.4670    9.9200   23.9960 C   0  0  0  0  0  0  0  0  0  0  0  0
    9.3810    9.0450   23.1970 C   0  0  0  0  0  0  0  0  0  0  0  0
    7.5180   11.5340   25.2730 C   0  0  0  0  0  0  0  0  0  0  0  0
    6.8120   10.3320   25.4770 C   0  0  0  0  0  0  0  0  0  0  0  0
    7.4030    9.3650   24.6730 N   0  0  0  0  0  0  0  0  0  0  0  0
    7.1820   12.6420   26.0510 C   0  0  0  0  0  0  0  0  0  0  0  0
    6.1870   12.5480   27.0090 C   0  0  0  0  0  0  0  0  0  0  0  0
    5.5000   11.3480   27.2010 C   0  0  0  0  0  0  0  0  0  0  0  0
    5.7930   10.2260   26.4160 C   0  0  0  0  0  0  0  0  0  0  0  0
    4.5140   11.2530   28.2470 C   0  0  0  0  0  0  0  0  0  0  0  0
    3.7320   11.2150   29.0870 N   0  0  0  0  0  0  0  0  0  0  0  0
 15 14  1  0
 14 18  1  0
 18 17  1  0
 17 22  2  0
 22 21  1  0
 23 21  1  0
 24 23  3  0
 21 20  2  0
 20 19  1  0
 19 16  2  0
 17 16  1  0
 16 13  1  0
 14 13  2  0
 13 12  1  0
 12 11  1  0
 11 10  1  0
 10  9  1  0
  9  5  1  0
  5  6  1  6
  8  6  1  0
  7  6  2  0
  5  4  1  0
  4  3  1  0
  3  2  1  0
 10  2  1  0
  2  1  2  0
M  END
>  <id>  (584) 
584

>  <inchikey>  (584) 
JJVAWSBGUDDHFE-ZDUSSCGKSA-N

>  <alias>  (584) 
A5222a

>  <smiles>  (584) 
Cc1[nH]c2cc(C#N)ccc2c1CCN1C[C@@H](C(N)=O)CCC1=O

>  <path>  (584) 
/opt/xchem-fragalysis-2/maxwin/BulkDock/TARGETS/A71EV2A/aligned_files/A5222a/A5222a.pdb

>  <distance_score>  (584) 
None

>  <energy_score>  (584) 
None

>  <compound>  (584) 
JJVAWSBGUDDHFE-UHFFFAOYSA-N

>  <compound_id>  (584) 
421

>  <target>  (584) 
A71EV2A

>  <tags>  (584) 
['GOOD count', 'MEDIOCRE count', '[Other] S1 site', 'hits', '[Other] upload_3 2025-03-06', '[Other] S2 site', '[Other] P3 compound design', '[Series] Piperidine series', 'Main status', 'BAD count']

>  <inspirations>  (584) 
None

>  <subsites>  (584) 
None

>  <reference>  (584) 


>  <observation_longname>  (584) 
A71EV2A-x5222_A_201_v3

>  <ConformerSites alias>  (584) 
1b - A0911/A/147

>  <CanonSites alias>  (584) 
1 - Active Site

>  <CrystalformSites alias>  (584) 
F8h - A0884/A/147

>  <Quatassemblies alias>  (584) 
A1 - monomer

>  <Crystalforms alias>  (584) 
F8 - A712A_x4271_2.1_refmac1_1st_ref

>  <ConformerSites upload name>  (584) 
1b - A71EV2A-x0911/A/147

>  <CanonSites upload name>  (584) 
1 - A71EV2A-x0911/A/147/1

>  <CrystalformSites upload name>  (584) 
F8h - A71EV2A-x0884/A/147/1

>  <Quatassemblies upload name>  (584) 
A1 - monomer

>  <Crystalforms upload name>  (584) 
F8 - A712A_x4271_2.1_refmac1_1st_ref

>  <ConformerSites short tag>  (584) 
1b - A0911/A/147

>  <CanonSites short tag>  (584) 
1 - A0911/A/147/1

>  <CrystalformSites short tag>  (584) 
F8h - A0884/A/147

>  <Quatassemblies short tag>  (584) 
A1 - monomer

>  <Crystalforms short tag>  (584) 
F8 - A712A_x4271_2.1_refmac1_1st_ref

>  <Centroid res>  (584) 
A71EV2A-x0911/A/133/A_v1

>  <Experiment code>  (584) 
A71EV2A-x5222

>  <Pose>  (584) 
A5222a

$$$$
A5231a
     RDKit          3D

 20 21  0  0  0  0  0  0  0  0999 V2000
   10.1090   16.5360   19.0830 O   0  0  0  0  0  0  0  0  0  0  0  0
   10.4790   15.3890   19.3360 C   0  0  0  0  0  0  0  0  0  0  0  0
   10.9220   14.5610   18.4060 N   0  0  0  0  0  0  0  0  0  0  0  0
   10.4370   14.8390   20.7530 C   0  0  1  0  0  0  0  0  0  0  0  0
   11.4550   15.5350   21.6640 C   0  0  0  0  0  0  0  0  0  0  0  0
   11.4010   14.9440   23.0730 C   0  0  0  0  0  0  0  0  0  0  0  0
    9.9890   15.0110   23.6370 C   0  0  0  0  0  0  0  0  0  0  0  0
    9.0580   15.0520   21.3870 C   0  0  0  0  0  0  0  0  0  0  0  0
    9.0170   14.4190   22.7070 N   0  0  0  0  0  0  0  0  0  0  0  0
    7.9170   13.7650   23.1080 C   0  0  0  0  0  0  0  0  0  0  0  0
    7.0670   13.3560   22.3620 O   0  0  0  0  0  0  0  0  0  0  0  0
    7.9150   13.5980   24.4190 O   0  0  0  0  0  0  0  0  0  0  0  0
    6.7410   12.9740   24.9970 C   0  0  1  0  0  0  0  0  0  0  0  0
    7.2250   12.0060   26.0680 C   0  0  2  0  0  0  0  0  0  0  0  0
    8.1050   10.5410   25.4220 S   0  0  0  0  0  0  0  0  0  0  0  0
    8.9010   10.7490   23.7400 C   0  0  0  0  0  0  0  0  0  0  0  0
    5.9350   14.1150   25.5890 C   0  0  0  0  0  0  0  0  0  0  0  0
    4.7920   13.6270   26.4770 C   0  0  0  0  0  0  0  0  0  0  0  0
    5.2890   12.6650   27.5360 C   0  0  0  0  0  0  0  0  0  0  0  0
    6.0570   11.5070   26.9100 C   0  0  0  0  0  0  0  0  0  0  0  0
 16 15  1  0
 14 15  1  6
 14 20  1  0
 20 19  1  0
 19 18  1  0
 18 17  1  0
 17 13  1  0
 14 13  1  0
 13 12  1  1
 12 10  1  0
 11 10  2  0
 10  9  1  0
  9  7  1  0
  7  6  1  0
  6  5  1  0
  5  4  1  0
  4  2  1  6
  3  2  1  0
  2  1  2  0
  8  4  1  0
  9  8  1  0
M  END
>  <id>  (585) 
585

>  <inchikey>  (585) 
ZIWATAJUDIIRFB-QJPTWQEYSA-N

>  <alias>  (585) 
A5231a

>  <smiles>  (585) 
CS[C@@H]1CCCC[C@H]1OC(=O)N1CCC[C@H](C(N)=O)C1

>  <path>  (585) 
/opt/xchem-fragalysis-2/maxwin/BulkDock/TARGETS/A71EV2A/aligned_files/A5231a/A5231a.pdb

>  <distance_score>  (585) 
None

>  <energy_score>  (585) 
None

>  <compound>  (585) 
ZIWATAJUDIIRFB-UHFFFAOYSA-N

>  <compound_id>  (585) 
422

>  <target>  (585) 
A71EV2A

>  <tags>  (585) 
['GOOD count', 'MEDIOCRE count', '[Other] S1 site', 'hits', '[Other] upload_3 2025-03-06', '[Other] S2 site', '[Other] P3 compound design', '[Series] Piperidine series', 'Main status', 'BAD count']

>  <inspirations>  (585) 
None

>  <subsites>  (585) 
None

>  <reference>  (585) 


>  <observation_longname>  (585) 
A71EV2A-x5231_A_201_v3

>  <ConformerSites alias>  (585) 
1b - A0911/A/147

>  <CanonSites alias>  (585) 
1 - Active Site

>  <CrystalformSites alias>  (585) 
F5i - A3175/A/201

>  <Quatassemblies alias>  (585) 
A1 - monomer

>  <Crystalforms alias>  (585) 
F5 - A71EV2A_x3178_new_long_dials_041024

>  <ConformerSites upload name>  (585) 
1b - A71EV2A-x0911/A/147

>  <CanonSites upload name>  (585) 
1 - A71EV2A-x0911/A/147/1

>  <CrystalformSites upload name>  (585) 
F5i - A71EV2A-x3175/A/201/1

>  <Quatassemblies upload name>  (585) 
A1 - monomer

>  <Crystalforms upload name>  (585) 
F5 - A71EV2A_x3178_new_long_dials_041024

>  <ConformerSites short tag>  (585) 
1b - A0911/A/147

>  <CanonSites short tag>  (585) 
1 - A0911/A/147/1

>  <CrystalformSites short tag>  (585) 
F5i - A3175/A/201

>  <Quatassemblies short tag>  (585) 
A1 - monomer

>  <Crystalforms short tag>  (585) 
F5 - A71EV2A_x3178_new_long_dials_041024

>  <Centroid res>  (585) 
A71EV2A-x0911/A/133/A_v1

>  <Experiment code>  (585) 
A71EV2A-x5231

>  <Pose>  (585) 
A5231a

$$$$
A5247a
     RDKit          3D

 22 23  0  0  0  0  0  0  0  0999 V2000
   10.1770   16.8800   19.0080 O   0  0  0  0  0  0  0  0  0  0  0  0
   10.5640   15.8030   19.4690 C   0  0  0  0  0  0  0  0  0  0  0  0
   10.9160   14.7810   18.6870 N   0  0  0  0  0  0  0  0  0  0  0  0
   10.5710   15.5510   20.9670 C   0  0  1  0  0  0  0  0  0  0  0  0
    9.4540   14.5660   21.2860 C   0  0  0  0  0  0  0  0  0  0  0  0
   11.9510   15.0920   21.4860 C   0  0  0  0  0  0  0  0  0  0  0  0
   11.8220   14.1850   22.7170 C   0  0  0  0  0  0  0  0  0  0  0  0
   10.5640   14.4660   23.5380 C   0  0  1  0  0  0  0  0  0  0  0  0
   10.5650   15.8270   24.2330 C   0  0  0  0  0  0  0  0  0  0  0  0
    9.3450   14.2590   22.7220 N   0  0  0  0  0  0  0  0  0  0  0  0
    8.1940   13.6930   23.1650 C   0  0  0  0  0  0  0  0  0  0  0  0
    7.3120   13.3690   22.3840 O   0  0  0  0  0  0  0  0  0  0  0  0
    8.0450   13.4500   24.6570 C   0  0  0  0  0  0  0  0  0  0  0  0
    7.2550   12.1950   24.9560 C   0  0  0  0  0  0  0  0  0  0  0  0
    7.7190   10.9000   24.6760 C   0  0  0  0  0  0  0  0  0  0  0  0
    9.1890   10.7400   23.7040 S   0  0  0  0  0  0  0  0  0  0  0  0
    9.3410    8.9850   23.4250 C   0  0  0  0  0  0  0  0  0  0  0  0
    6.0540   12.3410   25.6540 C   0  0  0  0  0  0  0  0  0  0  0  0
    5.3670   11.2270   26.0910 C   0  0  0  0  0  0  0  0  0  0  0  0
    3.7320   11.4660   27.0400 Br  0  0  0  0  0  0  0  0  0  0  0  0
    5.8270    9.9510   25.8390 C   0  0  0  0  0  0  0  0  0  0  0  0
    7.0100    9.7890   25.1310 C   0  0  0  0  0  0  0  0  0  0  0  0
 17 16  1  0
 16 15  1  0
 15 22  2  0
 22 21  1  0
 21 19  2  0
 20 19  1  0
 19 18  1  0
 18 14  2  0
 15 14  1  0
 14 13  1  0
 13 11  1  0
 12 11  2  0
 11 10  1  0
 10  5  1  0
  5  4  1  0
  4  2  1  6
  3  2  1  0
  2  1  2  0
  6  4  1  0
  7  6  1  0
  8  7  1  0
 10  8  1  0
  8  9  1  6
M  END
>  <id>  (586) 
586

>  <inchikey>  (586) 
FMBXRAUPCZLXGY-GHMZBOCLSA-N

>  <alias>  (586) 
A5247a

>  <smiles>  (586) 
CSc1ccc(Br)cc1CC(=O)N1C[C@H](C(N)=O)CC[C@H]1C

>  <path>  (586) 
/opt/xchem-fragalysis-2/maxwin/BulkDock/TARGETS/A71EV2A/aligned_files/A5247a/A5247a_hippo.pdb

>  <distance_score>  (586) 
None

>  <energy_score>  (586) 
None

>  <compound>  (586) 
FMBXRAUPCZLXGY-UHFFFAOYSA-N

>  <compound_id>  (586) 
423

>  <target>  (586) 
A71EV2A

>  <tags>  (586) 
['GOOD count', 'MEDIOCRE count', '[Other] S1 site', 'hits', '[Other] S2 site', '[Other] P3 compound design', '[Series] Piperidine series', 'Main status', '[Other] upload_2 2025-02-28', 'BAD count']

>  <inspirations>  (586) 
None

>  <subsites>  (586) 
None

>  <reference>  (586) 


>  <observation_longname>  (586) 
A71EV2A-x5247_A_201_v2

>  <ConformerSites alias>  (586) 
1b - A0911/A/147

>  <CanonSites alias>  (586) 
1 - Active Site

>  <CrystalformSites alias>  (586) 
F7q - A4303/A/201

>  <Quatassemblies alias>  (586) 
A1 - monomer

>  <Crystalforms alias>  (586) 
F7 - A712A_x4207_8.1_refmac1_1st_ref

>  <ConformerSites upload name>  (586) 
1b - A71EV2A-x0911/A/147

>  <CanonSites upload name>  (586) 
1 - A71EV2A-x0911/A/147/1

>  <CrystalformSites upload name>  (586) 
F7q - A71EV2A-x4303/A/201/1

>  <Quatassemblies upload name>  (586) 
A1 - monomer

>  <Crystalforms upload name>  (586) 
F7 - A712A_x4207_8.1_refmac1_1st_ref

>  <ConformerSites short tag>  (586) 
1b - A0911/A/147

>  <CanonSites short tag>  (586) 
1 - A0911/A/147/1

>  <CrystalformSites short tag>  (586) 
F7q - A4303/A/201

>  <Quatassemblies short tag>  (586) 
A1 - monomer

>  <Crystalforms short tag>  (586) 
F7 - A712A_x4207_8.1_refmac1_1st_ref

>  <Centroid res>  (586) 
A71EV2A-x0911/A/133/A_v1

>  <Experiment code>  (586) 
A71EV2A-x5247

>  <Pose>  (586) 
A5247a

$$$$
A5247b
     RDKit          3D

 22 23  0  0  0  0  0  0  0  0999 V2000
   10.3000   16.8450   18.9450 O   0  0  0  0  0  0  0  0  0  0  0  0
   10.7390   15.7860   19.4130 C   0  0  0  0  0  0  0  0  0  0  0  0
   10.9710   14.7120   18.6630 N   0  0  0  0  0  0  0  0  0  0  0  0
   10.8780   15.6000   20.9140 C   0  0  1  0  0  0  0  0  0  0  0  0
    9.7110   14.7430   21.4120 C   0  0  0  0  0  0  0  0  0  0  0  0
   12.2520   15.0340   21.2980 C   0  0  0  0  0  0  0  0  0  0  0  0
   12.2670   14.4040   22.7020 C   0  0  0  0  0  0  0  0  0  0  0  0
   11.0290   14.6890   23.5590 C   0  0  1  0  0  0  0  0  0  0  0  0
   10.9490   16.0850   24.1600 C   0  0  0  0  0  0  0  0  0  0  0  0
    9.7900   14.3360   22.8330 N   0  0  0  0  0  0  0  0  0  0  0  0
    8.7470   13.6640   23.3660 C   0  0  0  0  0  0  0  0  0  0  0  0
    7.7630   13.3630   22.6950 O   0  0  0  0  0  0  0  0  0  0  0  0
    8.8200   13.3040   24.8410 C   0  0  0  0  0  0  0  0  0  0  0  0
    7.9240   12.1280   25.1670 C   0  0  0  0  0  0  0  0  0  0  0  0
    8.1880   10.8270   24.7240 C   0  0  0  0  0  0  0  0  0  0  0  0
    9.5880   10.5860   23.6670 S   0  0  0  0  0  0  0  0  0  0  0  0
    9.5670    8.8280   23.3600 C   0  0  0  0  0  0  0  0  0  0  0  0
    6.8530   12.3400   26.0340 C   0  0  0  0  0  0  0  0  0  0  0  0
    6.0910   11.2750   26.4600 C   0  0  0  0  0  0  0  0  0  0  0  0
    4.6070   11.6040   27.6060 Br  0  0  0  0  0  0  0  0  0  0  0  0
    6.3590    9.9880   26.0540 C   0  0  0  0  0  0  0  0  0  0  0  0
    7.4030    9.7630   25.1650 C   0  0  0  0  0  0  0  0  0  0  0  0
 17 16  1  0
 16 15  1  0
 15 22  2  0
 22 21  1  0
 21 19  2  0
 20 19  1  0
 19 18  1  0
 18 14  2  0
 15 14  1  0
 14 13  1  0
 13 11  1  0
 12 11  2  0
 11 10  1  0
 10  5  1  0
  5  4  1  0
  4  2  1  6
  3  2  1  0
  2  1  2  0
  6  4  1  0
  7  6  1  0
  8  7  1  0
 10  8  1  0
  8  9  1  6
M  END
>  <id>  (587) 
587

>  <inchikey>  (587) 
FMBXRAUPCZLXGY-GHMZBOCLSA-N

>  <alias>  (587) 
A5247b

>  <smiles>  (587) 
CSc1ccc(Br)cc1CC(=O)N1C[C@H](C(N)=O)CC[C@H]1C

>  <path>  (587) 
/opt/xchem-fragalysis-2/maxwin/BulkDock/TARGETS/A71EV2A/aligned_files/A5247b/A5247b.pdb

>  <distance_score>  (587) 
None

>  <energy_score>  (587) 
None

>  <compound>  (587) 
FMBXRAUPCZLXGY-UHFFFAOYSA-N

>  <compound_id>  (587) 
423

>  <target>  (587) 
A71EV2A

>  <tags>  (587) 
['GOOD count', 'MEDIOCRE count', '[Other] S1 site', 'hits', '[Other] S2 site', '[Other] P3 compound design', '[Series] Piperidine series', 'Main status', '[Other] upload_2 2025-02-28', 'BAD count']

>  <inspirations>  (587) 
None

>  <subsites>  (587) 
None

>  <reference>  (587) 


>  <observation_longname>  (587) 
A71EV2A-x5247_C_201_v2

>  <ConformerSites alias>  (587) 
1b - A0911/A/147

>  <CanonSites alias>  (587) 
1 - Active Site

>  <CrystalformSites alias>  (587) 
F7r - A4303/C/201

>  <Quatassemblies alias>  (587) 
A1 - monomer

>  <Crystalforms alias>  (587) 
F7 - A712A_x4207_8.1_refmac1_1st_ref

>  <ConformerSites upload name>  (587) 
1b - A71EV2A-x0911/A/147

>  <CanonSites upload name>  (587) 
1 - A71EV2A-x0911/A/147/1

>  <CrystalformSites upload name>  (587) 
F7r - A71EV2A-x4303/C/201/1

>  <Quatassemblies upload name>  (587) 
A1 - monomer

>  <Crystalforms upload name>  (587) 
F7 - A712A_x4207_8.1_refmac1_1st_ref

>  <ConformerSites short tag>  (587) 
1b - A0911/A/147

>  <CanonSites short tag>  (587) 
1 - A0911/A/147/1

>  <CrystalformSites short tag>  (587) 
F7r - A4303/C/201

>  <Quatassemblies short tag>  (587) 
A1 - monomer

>  <Crystalforms short tag>  (587) 
F7 - A712A_x4207_8.1_refmac1_1st_ref

>  <Centroid res>  (587) 
A71EV2A-x0911/A/133/A_v1

>  <Experiment code>  (587) 
A71EV2A-x5247

>  <Pose>  (587) 
A5247a

$$$$
A5249a
     RDKit          3D

 24 26  0  0  0  0  0  0  0  0999 V2000
   10.0970   16.4760   19.3180 O   0  0  0  0  0  0  0  0  0  0  0  0
   10.5200   15.3310   19.5150 C   0  0  0  0  0  0  0  0  0  0  0  0
   10.9780   14.5520   18.5440 N   0  0  0  0  0  0  0  0  0  0  0  0
   10.5220   14.7260   20.9080 C   0  0  1  0  0  0  0  0  0  0  0  0
   11.8900   14.9210   21.5860 C   0  0  0  0  0  0  0  0  0  0  0  0
   11.9190   14.2650   22.9760 C   0  0  0  0  0  0  0  0  0  0  0  0
   10.7520   14.7180   23.8260 C   0  0  0  0  0  0  0  0  0  0  0  0
    9.4070   15.2460   21.8290 C   0  0  0  0  0  0  0  0  0  0  0  0
    9.4680   14.5620   23.1250 N   0  0  0  0  0  0  0  0  0  0  0  0
    8.4560   13.6940   23.4480 C   0  0  0  0  0  0  0  0  0  0  0  0
    7.6530   13.2730   22.6360 O   0  0  0  0  0  0  0  0  0  0  0  0
    8.3560   13.3510   24.8020 N   0  0  0  0  0  0  0  0  0  0  0  0
    7.5750   12.1990   25.1410 C   0  0  0  0  0  0  0  0  0  0  0  0
    8.0300   10.9310   24.7690 C   0  0  0  0  0  0  0  0  0  0  0  0
    9.4790   10.8360   23.7660 S   0  0  0  0  0  0  0  0  0  0  0  0
    9.6180    9.0660   23.4240 C   0  0  0  0  0  0  0  0  0  0  0  0
    8.4130   14.3740   25.8710 C   0  0  0  0  0  0  0  0  0  0  0  0
    7.2920   15.3790   25.7270 C   0  0  0  0  0  0  0  0  0  0  0  0
    5.9640   14.6740   25.6610 C   0  0  0  0  0  0  0  0  0  0  0  0
    5.9630   13.4930   26.4890 O   0  0  0  0  0  0  0  0  0  0  0  0
    6.4230   12.3110   25.9330 C   0  0  0  0  0  0  0  0  0  0  0  0
    5.7460   11.1730   26.3380 C   0  0  0  0  0  0  0  0  0  0  0  0
    6.2170    9.9220   25.9770 C   0  0  0  0  0  0  0  0  0  0  0  0
    7.3520    9.7920   25.1950 C   0  0  0  0  0  0  0  0  0  0  0  0
 16 15  1  0
 15 14  1  0
 14 24  2  0
 24 23  1  0
 23 22  2  0
 22 21  1  0
 21 13  2  0
 14 13  1  0
 13 12  1  0
 12 10  1  0
 11 10  2  0
 10  9  1  0
  9  7  1  0
  7  6  1  0
  6  5  1  0
  5  4  1  0
  4  2  1  6
  3  2  1  0
  2  1  2  0
  8  4  1  0
  9  8  1  0
 17 12  1  0
 18 17  1  0
 19 18  1  0
 20 19  1  0
 21 20  1  0
M  END
>  <id>  (588) 
588

>  <inchikey>  (588) 
IVODTZLBELRWKY-LBPRGKRZSA-N

>  <alias>  (588) 
A5249a

>  <smiles>  (588) 
CSc1cccc2c1N(C(=O)N1CCC[C@H](C(N)=O)C1)CCCO2

>  <path>  (588) 
/opt/xchem-fragalysis-2/maxwin/BulkDock/TARGETS/A71EV2A/aligned_files/A5249a/A5249a.pdb

>  <distance_score>  (588) 
None

>  <energy_score>  (588) 
None

>  <compound>  (588) 
IVODTZLBELRWKY-UHFFFAOYSA-N

>  <compound_id>  (588) 
424

>  <target>  (588) 
A71EV2A

>  <tags>  (588) 
['GOOD count', 'MEDIOCRE count', '[Other] S1 site', 'hits', '[Other] upload_3 2025-03-06', '[Other] S2 site', '[Other] P3 compound design', '[Series] Piperidine series', 'Main status', 'BAD count']

>  <inspirations>  (588) 
None

>  <subsites>  (588) 
None

>  <reference>  (588) 


>  <observation_longname>  (588) 
A71EV2A-x5249_A_201_v3

>  <ConformerSites alias>  (588) 
1b - A0911/A/147

>  <CanonSites alias>  (588) 
1 - Active Site

>  <CrystalformSites alias>  (588) 
F1a - A0375/A/201

>  <Quatassemblies alias>  (588) 
A1 - monomer

>  <Crystalforms alias>  (588) 
F1 - A71_2A_open

>  <ConformerSites upload name>  (588) 
1b - A71EV2A-x0911/A/147

>  <CanonSites upload name>  (588) 
1 - A71EV2A-x0911/A/147/1

>  <CrystalformSites upload name>  (588) 
F1a - A71EV2A-x0375/A/201/1

>  <Quatassemblies upload name>  (588) 
A1 - monomer

>  <Crystalforms upload name>  (588) 
F1 - A71_2A_open

>  <ConformerSites short tag>  (588) 
1b - A0911/A/147

>  <CanonSites short tag>  (588) 
1 - A0911/A/147/1

>  <CrystalformSites short tag>  (588) 
F1a - A0375/A/201

>  <Quatassemblies short tag>  (588) 
A1 - monomer

>  <Crystalforms short tag>  (588) 
F1 - A71_2A_open

>  <Centroid res>  (588) 
A71EV2A-x0911/A/133/A_v1

>  <Experiment code>  (588) 
A71EV2A-x5249

>  <Pose>  (588) 
A5249a

$$$$
A5255a
     RDKit          3D

 20 22  0  0  0  0  0  0  0  0999 V2000
   10.3180   16.9890   19.0880 O   0  0  0  0  0  0  0  0  0  0  0  0
   10.6430   15.8350   19.3820 C   0  0  0  0  0  0  0  0  0  0  0  0
   10.7600   14.8760   18.4770 N   0  0  0  0  0  0  0  0  0  0  0  0
   10.9610   15.4660   20.8300 C   0  0  2  0  0  0  0  0  0  0  0  0
   11.4930   16.5300   21.8370 C   0  0  0  0  0  0  0  0  0  0  0  0
   12.2250   14.6240   21.1810 C   0  0  0  0  0  0  0  0  0  0  0  0
   12.1550   15.3280   22.5600 C   0  0  2  0  0  0  0  0  0  0  0  0
   11.1370   14.6600   23.4820 C   0  0  0  0  0  0  0  0  0  0  0  0
    9.7030   14.7990   21.4240 C   0  0  0  0  0  0  0  0  0  0  0  0
    9.9170   14.2550   22.7720 N   0  0  0  0  0  0  0  0  0  0  0  0
    8.9640   13.4560   23.3080 C   0  0  0  0  0  0  0  0  0  0  0  0
    7.8990   13.2450   22.7440 O   0  0  0  0  0  0  0  0  0  0  0  0
    9.2660   12.8400   24.6640 C   0  0  0  0  0  0  0  0  0  0  0  0
    8.1730   11.9110   25.1410 C   0  0  0  0  0  0  0  0  0  0  0  0
    8.1230   10.5690   24.7290 C   0  0  0  0  0  0  0  0  0  0  0  0
    9.1690    9.9710   23.8230 C   0  0  0  0  0  0  0  0  0  0  0  0
    7.2260   12.3860   26.0480 C   0  0  0  0  0  0  0  0  0  0  0  0
    6.2400   11.5510   26.5490 C   0  0  0  0  0  0  0  0  0  0  0  0
    6.1770   10.2430   26.1360 C   0  0  0  0  0  0  0  0  0  0  0  0
    7.1060    9.7570   25.2310 C   0  0  0  0  0  0  0  0  0  0  0  0
 16 15  1  0
 15 20  2  0
 20 19  1  0
 19 18  2  0
 18 17  1  0
 17 14  2  0
 15 14  1  0
 14 13  1  0
 13 11  1  0
 12 11  2  0
 11 10  1  0
 10  8  1  0
  7  8  1  1
  7  5  1  0
  5  4  1  0
  4  2  1  6
  3  2  1  0
  2  1  2  0
  9  4  1  0
 10  9  1  0
  6  4  1  0
  7  6  1  0
M  END
>  <id>  (589) 
589

>  <inchikey>  (589) 
NSXJPJIBAXHMJJ-YGUOUDRMSA-N

>  <alias>  (589) 
A5255a

>  <smiles>  (589) 
Cc1ccccc1CC(=O)N1C[C@H]2C[C@@](C(N)=O)(C1)C2

>  <path>  (589) 
/opt/xchem-fragalysis-2/maxwin/BulkDock/TARGETS/A71EV2A/aligned_files/A5255a/A5255a.pdb

>  <distance_score>  (589) 
None

>  <energy_score>  (589) 
None

>  <compound>  (589) 
NSXJPJIBAXHMJJ-UHFFFAOYSA-N

>  <compound_id>  (589) 
425

>  <target>  (589) 
A71EV2A

>  <tags>  (589) 
['GOOD count', 'MEDIOCRE count', '[Other] S1 site', 'hits', '[Other] upload_3 2025-03-06', '[Other] S2 site', '[Other] P3 compound design', '[Series] Piperidine series', 'Main status', 'BAD count']

>  <inspirations>  (589) 
None

>  <subsites>  (589) 
None

>  <reference>  (589) 


>  <observation_longname>  (589) 
A71EV2A-x5255_A_201_v3

>  <ConformerSites alias>  (589) 
1b - A0911/A/147

>  <CanonSites alias>  (589) 
1 - Active Site

>  <CrystalformSites alias>  (589) 
F8h - A0884/A/147

>  <Quatassemblies alias>  (589) 
A1 - monomer

>  <Crystalforms alias>  (589) 
F8 - A712A_x4271_2.1_refmac1_1st_ref

>  <ConformerSites upload name>  (589) 
1b - A71EV2A-x0911/A/147

>  <CanonSites upload name>  (589) 
1 - A71EV2A-x0911/A/147/1

>  <CrystalformSites upload name>  (589) 
F8h - A71EV2A-x0884/A/147/1

>  <Quatassemblies upload name>  (589) 
A1 - monomer

>  <Crystalforms upload name>  (589) 
F8 - A712A_x4271_2.1_refmac1_1st_ref

>  <ConformerSites short tag>  (589) 
1b - A0911/A/147

>  <CanonSites short tag>  (589) 
1 - A0911/A/147/1

>  <CrystalformSites short tag>  (589) 
F8h - A0884/A/147

>  <Quatassemblies short tag>  (589) 
A1 - monomer

>  <Crystalforms short tag>  (589) 
F8 - A712A_x4271_2.1_refmac1_1st_ref

>  <Centroid res>  (589) 
A71EV2A-x0911/A/133/A_v1

>  <Experiment code>  (589) 
A71EV2A-x5255

>  <Pose>  (589) 
A5255a

$$$$
A5258a
     RDKit          3D

 22 24  0  0  0  0  0  0  0  0999 V2000
   10.6040   15.8320   24.3100 O   0  0  0  0  0  0  0  0  0  0  0  0
   10.4160   15.4610   23.1580 C   0  0  0  0  0  0  0  0  0  0  0  0
   11.1680   15.8950   21.9300 C   0  0  0  0  0  0  0  0  0  0  0  0
   10.7550   14.8690   20.8700 C   0  0  2  0  0  0  0  0  0  0  0  0
   10.7030   15.4680   19.4750 C   0  0  0  0  0  0  0  0  0  0  0  0
   10.5150   16.6730   19.3030 O   0  0  0  0  0  0  0  0  0  0  0  0
   10.8350   14.6160   18.4720 N   0  0  0  0  0  0  0  0  0  0  0  0
    9.3810   14.4090   21.3160 C   0  0  0  0  0  0  0  0  0  0  0  0
    9.4100   14.6520   22.7630 N   0  0  0  0  0  0  0  0  0  0  0  0
    8.3520   14.1700   23.6610 C   0  0  1  0  0  0  0  0  0  0  0  0
    7.0290   14.3780   22.9620 C   0  0  0  0  0  0  0  0  0  0  0  0
    6.3530   13.4230   22.3560 N   0  0  0  0  0  0  0  0  0  0  0  0
    5.2890   14.0580   21.7610 C   0  0  0  0  0  0  0  0  0  0  0  0
    5.3240   15.3820   22.0200 C   0  0  0  0  0  0  0  0  0  0  0  0
    6.4360   15.5890   22.7930 N   0  0  0  0  0  0  0  0  0  0  0  0
    6.8540   16.8780   23.3410 C   0  0  0  0  0  0  0  0  0  0  0  0
    8.4970   12.6900   23.9820 C   0  0  0  0  0  0  0  0  0  0  0  0
    7.7190   12.1120   24.9810 C   0  0  0  0  0  0  0  0  0  0  0  0
    7.8180   10.7590   25.2540 C   0  0  0  0  0  0  0  0  0  0  0  0
    8.6950    9.9670   24.5400 C   0  0  0  0  0  0  0  0  0  0  0  0
    9.4760   10.5280   23.5540 C   0  0  0  0  0  0  0  0  0  0  0  0
    9.3820   11.8820   23.2770 C   0  0  0  0  0  0  0  0  0  0  0  0
 16 15  1  0
 15 14  1  0
 14 13  2  0
 13 12  1  0
 12 11  2  0
 15 11  1  0
 11 10  1  0
 17 10  1  0
 17 22  2  0
 22 21  1  0
 21 20  2  0
 20 19  1  0
 19 18  2  0
 18 17  1  0
 10  9  1  6
  9  8  1  0
  8  4  1  0
  4  5  1  6
  7  5  1  0
  6  5  2  0
  4  3  1  0
  3  2  1  0
  9  2  1  0
  2  1  2  0
M  END
>  <id>  (590) 
590

>  <inchikey>  (590) 
WFFNOQGVJJRMPK-GXTWGEPZSA-N

>  <alias>  (590) 
A5258a

>  <smiles>  (590) 
Cn1ccnc1[C@@H](c1ccccc1)N1C[C@@H](C(N)=O)CC1=O

>  <path>  (590) 
/opt/xchem-fragalysis-2/maxwin/BulkDock/TARGETS/A71EV2A/aligned_files/A5258a/A5258a.pdb

>  <distance_score>  (590) 
None

>  <energy_score>  (590) 
None

>  <compound>  (590) 
WFFNOQGVJJRMPK-UHFFFAOYSA-N

>  <compound_id>  (590) 
412

>  <target>  (590) 
A71EV2A

>  <tags>  (590) 
['GOOD count', 'MEDIOCRE count', '[Other] S1 site', 'hits', '[Other] upload_3 2025-03-06', '[Other] S2 site', '[Other] P3 compound design', '[Series] Piperidine series', 'Main status', 'BAD count']

>  <inspirations>  (590) 
None

>  <subsites>  (590) 
None

>  <reference>  (590) 


>  <observation_longname>  (590) 
A71EV2A-x5258_A_201_v3

>  <ConformerSites alias>  (590) 
1b - A0911/A/147

>  <CanonSites alias>  (590) 
1 - Active Site

>  <CrystalformSites alias>  (590) 
F8h - A0884/A/147

>  <Quatassemblies alias>  (590) 
A1 - monomer

>  <Crystalforms alias>  (590) 
F8 - A712A_x4271_2.1_refmac1_1st_ref

>  <ConformerSites upload name>  (590) 
1b - A71EV2A-x0911/A/147

>  <CanonSites upload name>  (590) 
1 - A71EV2A-x0911/A/147/1

>  <CrystalformSites upload name>  (590) 
F8h - A71EV2A-x0884/A/147/1

>  <Quatassemblies upload name>  (590) 
A1 - monomer

>  <Crystalforms upload name>  (590) 
F8 - A712A_x4271_2.1_refmac1_1st_ref

>  <ConformerSites short tag>  (590) 
1b - A0911/A/147

>  <CanonSites short tag>  (590) 
1 - A0911/A/147/1

>  <CrystalformSites short tag>  (590) 
F8h - A0884/A/147

>  <Quatassemblies short tag>  (590) 
A1 - monomer

>  <Crystalforms short tag>  (590) 
F8 - A712A_x4271_2.1_refmac1_1st_ref

>  <Centroid res>  (590) 
A71EV2A-x0911/A/133/A_v1

>  <Experiment code>  (590) 
A71EV2A-x5258

>  <Pose>  (590) 
A5258a

$$$$
A5262a
     RDKit          3D

 21 23  0  0  0  0  0  0  0  0999 V2000
   10.0270   16.7830   18.9690 O   0  0  0  0  0  0  0  0  0  0  0  0
   10.0850   15.5900   19.2810 C   0  0  0  0  0  0  0  0  0  0  0  0
   10.5240   14.6470   18.4470 N   0  0  0  0  0  0  0  0  0  0  0  0
    9.6050   15.1210   20.6390 C   0  0  0  0  0  0  0  0  0  0  0  0
   10.7550   15.0860   21.6570 C   0  0  2  0  0  0  0  0  0  0  0  0
   11.5830   16.3430   22.0370 C   0  0  0  0  0  0  0  0  0  0  0  0
   12.1150   14.3880   21.3450 C   0  0  0  0  0  0  0  0  0  0  0  0
   12.5600   15.2530   22.5480 C   0  0  2  0  0  0  0  0  0  0  0  0
   11.7670   14.6120   23.6970 C   0  0  0  0  0  0  0  0  0  0  0  0
   10.4780   14.5660   23.0170 N   0  0  0  0  0  0  0  0  0  0  0  0
    9.3080   14.1800   23.5700 C   0  0  0  0  0  0  0  0  0  0  0  0
    8.2490   14.1930   22.9580 O   0  0  0  0  0  0  0  0  0  0  0  0
    9.3540   13.7400   25.0230 C   0  0  0  0  0  0  0  0  0  0  0  0
    8.3110   12.6920   25.3330 C   0  0  0  0  0  0  0  0  0  0  0  0
    8.3810   11.3770   24.8530 C   0  0  0  0  0  0  0  0  0  0  0  0
    9.7000   10.9160   23.7670 S   0  0  0  0  0  0  0  0  0  0  0  0
    9.5560    9.1450   23.6320 C   0  0  0  0  0  0  0  0  0  0  0  0
    7.2500   13.0370   26.1730 C   0  0  0  0  0  0  0  0  0  0  0  0
    6.3060   12.0950   26.5460 C   0  0  0  0  0  0  0  0  0  0  0  0
    6.3950   10.8030   26.0810 C   0  0  0  0  0  0  0  0  0  0  0  0
    7.4270   10.4360   25.2270 C   0  0  0  0  0  0  0  0  0  0  0  0
 17 16  1  0
 16 15  1  0
 15 21  2  0
 21 20  1  0
 20 19  2  0
 19 18  1  0
 18 14  2  0
 15 14  1  0
 14 13  1  0
 13 11  1  0
 12 11  2  0
 11 10  1  0
 10  9  1  0
  8  9  1  1
  8  6  1  0
  6  5  1  0
 10  5  1  0
  5  4  1  6
  4  2  1  0
  3  2  1  0
  2  1  2  0
  7  5  1  0
  8  7  1  0
M  END
>  <id>  (591) 
591

>  <inchikey>  (591) 
MXYVXUBBWVDIAO-AITUWYQGSA-N

>  <alias>  (591) 
A5262a

>  <smiles>  (591) 
CSc1ccccc1CC(=O)N1C[C@H]2C[C@]1(CC(N)=O)C2

>  <path>  (591) 
/opt/xchem-fragalysis-2/maxwin/BulkDock/TARGETS/A71EV2A/aligned_files/A5262a/A5262a_hippo.pdb

>  <distance_score>  (591) 
None

>  <energy_score>  (591) 
None

>  <compound>  (591) 
MXYVXUBBWVDIAO-UHFFFAOYSA-N

>  <compound_id>  (591) 
426

>  <target>  (591) 
A71EV2A

>  <tags>  (591) 
['GOOD count', 'MEDIOCRE count', '[Other] S1 site', 'hits', '[Other] upload_3 2025-03-06', '[Other] S2 site', '[Other] P3 compound design', '[Series] Piperidine series', 'Main status', 'BAD count']

>  <inspirations>  (591) 
None

>  <subsites>  (591) 
None

>  <reference>  (591) 


>  <observation_longname>  (591) 
A71EV2A-x5262_A_201_v3

>  <ConformerSites alias>  (591) 
1b - A0911/A/147

>  <CanonSites alias>  (591) 
1 - Active Site

>  <CrystalformSites alias>  (591) 
F7q - A4303/A/201

>  <Quatassemblies alias>  (591) 
A1 - monomer

>  <Crystalforms alias>  (591) 
F7 - A712A_x4207_8.1_refmac1_1st_ref

>  <ConformerSites upload name>  (591) 
1b - A71EV2A-x0911/A/147

>  <CanonSites upload name>  (591) 
1 - A71EV2A-x0911/A/147/1

>  <CrystalformSites upload name>  (591) 
F7q - A71EV2A-x4303/A/201/1

>  <Quatassemblies upload name>  (591) 
A1 - monomer

>  <Crystalforms upload name>  (591) 
F7 - A712A_x4207_8.1_refmac1_1st_ref

>  <ConformerSites short tag>  (591) 
1b - A0911/A/147

>  <CanonSites short tag>  (591) 
1 - A0911/A/147/1

>  <CrystalformSites short tag>  (591) 
F7q - A4303/A/201

>  <Quatassemblies short tag>  (591) 
A1 - monomer

>  <Crystalforms short tag>  (591) 
F7 - A712A_x4207_8.1_refmac1_1st_ref

>  <Centroid res>  (591) 
A71EV2A-x0911/A/133/A_v1

>  <Experiment code>  (591) 
A71EV2A-x5262

>  <Pose>  (591) 
A5262a

$$$$
A5262b
     RDKit          3D

 21 23  0  0  0  0  0  0  0  0999 V2000
   10.1430   16.8300   18.9240 O   0  0  0  0  0  0  0  0  0  0  0  0
   10.1790   15.6270   19.2430 C   0  0  0  0  0  0  0  0  0  0  0  0
   10.6030   14.6740   18.4170 N   0  0  0  0  0  0  0  0  0  0  0  0
    9.7380   15.1800   20.6220 C   0  0  0  0  0  0  0  0  0  0  0  0
   10.9290   15.1870   21.6010 C   0  0  2  0  0  0  0  0  0  0  0  0
   11.7930   16.4440   21.9340 C   0  0  0  0  0  0  0  0  0  0  0  0
   12.2700   14.4620   21.2690 C   0  0  0  0  0  0  0  0  0  0  0  0
   12.7710   15.3520   22.4340 C   0  0  2  0  0  0  0  0  0  0  0  0
   12.0070   14.7560   23.6220 C   0  0  0  0  0  0  0  0  0  0  0  0
   10.6870   14.7080   22.9680 N   0  0  0  0  0  0  0  0  0  0  0  0
    9.5250   14.3500   23.5660 C   0  0  0  0  0  0  0  0  0  0  0  0
    8.4370   14.4230   23.0000 O   0  0  0  0  0  0  0  0  0  0  0  0
    9.6110   13.8850   25.0110 C   0  0  0  0  0  0  0  0  0  0  0  0
    8.5500   12.8570   25.3370 C   0  0  0  0  0  0  0  0  0  0  0  0
    8.5930   11.5460   24.8420 C   0  0  0  0  0  0  0  0  0  0  0  0
    9.9410   11.1140   23.7820 S   0  0  0  0  0  0  0  0  0  0  0  0
    9.7840    9.3350   23.6230 C   0  0  0  0  0  0  0  0  0  0  0  0
    7.4980   13.2100   26.1850 C   0  0  0  0  0  0  0  0  0  0  0  0
    6.5290   12.2810   26.5430 C   0  0  0  0  0  0  0  0  0  0  0  0
    6.5860   10.9960   26.0490 C   0  0  0  0  0  0  0  0  0  0  0  0
    7.6120   10.6210   25.1950 C   0  0  0  0  0  0  0  0  0  0  0  0
 17 16  1  0
 16 15  1  0
 15 21  2  0
 21 20  1  0
 20 19  2  0
 19 18  1  0
 18 14  2  0
 15 14  1  0
 14 13  1  0
 13 11  1  0
 12 11  2  0
 11 10  1  0
 10  9  1  0
  8  9  1  1
  8  6  1  0
  6  5  1  0
 10  5  1  0
  5  4  1  6
  4  2  1  0
  3  2  1  0
  2  1  2  0
  7  5  1  0
  8  7  1  0
M  END
>  <id>  (592) 
592

>  <inchikey>  (592) 
MXYVXUBBWVDIAO-AITUWYQGSA-N

>  <alias>  (592) 
A5262b

>  <smiles>  (592) 
CSc1ccccc1CC(=O)N1C[C@H]2C[C@]1(CC(N)=O)C2

>  <path>  (592) 
/opt/xchem-fragalysis-2/maxwin/BulkDock/TARGETS/A71EV2A/aligned_files/A5262b/A5262b.pdb

>  <distance_score>  (592) 
None

>  <energy_score>  (592) 
None

>  <compound>  (592) 
MXYVXUBBWVDIAO-UHFFFAOYSA-N

>  <compound_id>  (592) 
426

>  <target>  (592) 
A71EV2A

>  <tags>  (592) 
['GOOD count', 'MEDIOCRE count', '[Other] S1 site', 'hits', '[Other] upload_3 2025-03-06', '[Other] S2 site', '[Other] P3 compound design', '[Series] Piperidine series', 'Main status', 'BAD count']

>  <inspirations>  (592) 
None

>  <subsites>  (592) 
None

>  <reference>  (592) 


>  <observation_longname>  (592) 
A71EV2A-x5262_C_201_v3

>  <ConformerSites alias>  (592) 
1b - A0911/A/147

>  <CanonSites alias>  (592) 
1 - Active Site

>  <CrystalformSites alias>  (592) 
F7r - A4303/C/201

>  <Quatassemblies alias>  (592) 
A1 - monomer

>  <Crystalforms alias>  (592) 
F7 - A712A_x4207_8.1_refmac1_1st_ref

>  <ConformerSites upload name>  (592) 
1b - A71EV2A-x0911/A/147

>  <CanonSites upload name>  (592) 
1 - A71EV2A-x0911/A/147/1

>  <CrystalformSites upload name>  (592) 
F7r - A71EV2A-x4303/C/201/1

>  <Quatassemblies upload name>  (592) 
A1 - monomer

>  <Crystalforms upload name>  (592) 
F7 - A712A_x4207_8.1_refmac1_1st_ref

>  <ConformerSites short tag>  (592) 
1b - A0911/A/147

>  <CanonSites short tag>  (592) 
1 - A0911/A/147/1

>  <CrystalformSites short tag>  (592) 
F7r - A4303/C/201

>  <Quatassemblies short tag>  (592) 
A1 - monomer

>  <Crystalforms short tag>  (592) 
F7 - A712A_x4207_8.1_refmac1_1st_ref

>  <Centroid res>  (592) 
A71EV2A-x0911/A/133/A_v1

>  <Experiment code>  (592) 
A71EV2A-x5262

>  <Pose>  (592) 
A5262a

$$$$
A5268a
     RDKit          3D

 21 22  0  0  0  0  0  0  0  0999 V2000
   10.2660   16.8500   19.0450 O   0  0  0  0  0  0  0  0  0  0  0  0
   10.5930   15.6990   19.3640 C   0  0  0  0  0  0  0  0  0  0  0  0
   11.0190   14.8050   18.4880 N   0  0  0  0  0  0  0  0  0  0  0  0
   10.5310   15.2350   20.8100 C   0  0  1  0  0  0  0  0  0  0  0  0
   11.5540   15.9800   21.6800 C   0  0  0  0  0  0  0  0  0  0  0  0
   11.5330   15.4720   23.1280 C   0  0  1  0  0  0  0  0  0  0  0  0
   12.5080   16.2500   24.0040 C   0  0  0  0  0  0  0  0  0  0  0  0
   10.1170   15.5590   23.6870 C   0  0  0  0  0  0  0  0  0  0  0  0
    9.1330   15.3540   21.4330 C   0  0  0  0  0  0  0  0  0  0  0  0
    9.1560   14.8720   22.8190 N   0  0  0  0  0  0  0  0  0  0  0  0
    8.3350   13.8810   23.2490 C   0  0  0  0  0  0  0  0  0  0  0  0
    7.5180   13.3490   22.5120 O   0  0  0  0  0  0  0  0  0  0  0  0
    8.4280   13.5060   24.7180 C   0  0  0  0  0  0  0  0  0  0  0  0
    7.6100   12.2870   25.0760 C   0  0  0  0  0  0  0  0  0  0  0  0
    7.9290   10.9960   24.6290 C   0  0  0  0  0  0  0  0  0  0  0  0
    9.3600   10.7960   23.6050 S   0  0  0  0  0  0  0  0  0  0  0  0
    9.4650    9.0150   23.4010 C   0  0  0  0  0  0  0  0  0  0  0  0
    6.5160   12.4420   25.9300 C   0  0  0  0  0  0  0  0  0  0  0  0
    5.7480   11.3570   26.3160 C   0  0  0  0  0  0  0  0  0  0  0  0
    6.0580   10.0980   25.8580 C   0  0  0  0  0  0  0  0  0  0  0  0
    7.1460    9.9090   25.0180 C   0  0  0  0  0  0  0  0  0  0  0  0
 17 16  1  0
 16 15  1  0
 15 21  2  0
 21 20  1  0
 20 19  2  0
 19 18  1  0
 18 14  2  0
 15 14  1  0
 14 13  1  0
 13 11  1  0
 12 11  2  0
 11 10  1  0
 10  8  1  0
  8  6  1  0
  6  7  1  1
  6  5  1  0
  5  4  1  0
  4  2  1  6
  3  2  1  0
  2  1  2  0
  9  4  1  0
 10  9  1  0
M  END
>  <id>  (593) 
593

>  <inchikey>  (593) 
KCUWPJSIVYQWJM-YPMHNXCESA-N

>  <alias>  (593) 
A5268a

>  <smiles>  (593) 
CSc1ccccc1CC(=O)N1C[C@H](C)C[C@H](C(N)=O)C1

>  <path>  (593) 
/opt/xchem-fragalysis-2/maxwin/BulkDock/TARGETS/A71EV2A/aligned_files/A5268a/A5268a.pdb

>  <distance_score>  (593) 
None

>  <energy_score>  (593) 
None

>  <compound>  (593) 
KCUWPJSIVYQWJM-UHFFFAOYSA-N

>  <compound_id>  (593) 
376

>  <target>  (593) 
A71EV2A

>  <tags>  (593) 
['GOOD count', 'MEDIOCRE count', '[Other] S1 site', 'hits', '[Other] upload_3 2025-03-06', '[Other] S2 site', '[Other] P3 compound design', '[Series] Piperidine series', 'Main status', 'BAD count']

>  <inspirations>  (593) 
None

>  <subsites>  (593) 
None

>  <reference>  (593) 


>  <observation_longname>  (593) 
A71EV2A-x5268_A_201_v3

>  <ConformerSites alias>  (593) 
1b - A0911/A/147

>  <CanonSites alias>  (593) 
1 - Active Site

>  <CrystalformSites alias>  (593) 
F8h - A0884/A/147

>  <Quatassemblies alias>  (593) 
A1 - monomer

>  <Crystalforms alias>  (593) 
F8 - A712A_x4271_2.1_refmac1_1st_ref

>  <ConformerSites upload name>  (593) 
1b - A71EV2A-x0911/A/147

>  <CanonSites upload name>  (593) 
1 - A71EV2A-x0911/A/147/1

>  <CrystalformSites upload name>  (593) 
F8h - A71EV2A-x0884/A/147/1

>  <Quatassemblies upload name>  (593) 
A1 - monomer

>  <Crystalforms upload name>  (593) 
F8 - A712A_x4271_2.1_refmac1_1st_ref

>  <ConformerSites short tag>  (593) 
1b - A0911/A/147

>  <CanonSites short tag>  (593) 
1 - A0911/A/147/1

>  <CrystalformSites short tag>  (593) 
F8h - A0884/A/147

>  <Quatassemblies short tag>  (593) 
A1 - monomer

>  <Crystalforms short tag>  (593) 
F8 - A712A_x4271_2.1_refmac1_1st_ref

>  <Centroid res>  (593) 
A71EV2A-x0911/A/133/A_v1

>  <Experiment code>  (593) 
A71EV2A-x5268

>  <Pose>  (593) 
A5268a

$$$$
A5277a
     RDKit          3D

 20 22  0  0  0  0  0  0  0  0999 V2000
    9.3850   10.1900   23.6920 Cl  0  0  0  0  0  0  0  0  0  0  0  0
    8.0880   10.6280   24.7610 C   0  0  0  0  0  0  0  0  0  0  0  0
    7.2450    9.6210   25.2000 C   0  0  0  0  0  0  0  0  0  0  0  0
    6.2590    9.9200   26.1220 C   0  0  0  0  0  0  0  0  0  0  0  0
    6.1150   11.2090   26.5880 C   0  0  0  0  0  0  0  0  0  0  0  0
    6.9500   12.2120   26.1240 C   0  0  0  0  0  0  0  0  0  0  0  0
    7.9590   11.9450   25.2000 C   0  0  0  0  0  0  0  0  0  0  0  0
    8.9080   13.0440   24.7750 C   0  0  0  0  0  0  0  0  0  0  0  0
    8.8390   13.3690   23.2900 C   0  0  0  0  0  0  0  0  0  0  0  0
    7.8740   13.0320   22.6170 O   0  0  0  0  0  0  0  0  0  0  0  0
    9.8750   14.0750   22.7640 N   0  0  0  0  0  0  0  0  0  0  0  0
    9.7470   14.6430   21.4170 C   0  0  0  0  0  0  0  0  0  0  0  0
   11.1270   14.3190   23.4930 C   0  0  0  0  0  0  0  0  0  0  0  0
   12.1670   15.0730   22.6710 C   0  0  2  0  0  0  0  0  0  0  0  0
   11.5510   16.3390   22.0230 C   0  0  0  0  0  0  0  0  0  0  0  0
   12.2590   14.4690   21.2460 C   0  0  0  0  0  0  0  0  0  0  0  0
   11.0240   15.3650   20.9240 C   0  0  1  0  0  0  0  0  0  0  0  0
   10.7790   15.7840   19.4760 C   0  0  0  0  0  0  0  0  0  0  0  0
   10.5820   16.9640   19.1910 O   0  0  0  0  0  0  0  0  0  0  0  0
   10.7740   14.8280   18.5620 N   0  0  0  0  0  0  0  0  0  0  0  0
 20 18  1  0
 19 18  2  0
 17 18  1  6
 17 12  1  0
 12 11  1  0
 11  9  1  0
 10  9  2  0
  9  8  1  0
  8  7  1  0
  7  6  2  0
  6  5  1  0
  5  4  2  0
  4  3  1  0
  3  2  2  0
  7  2  1  0
  2  1  1  0
 13 11  1  0
 14 13  1  1
 15 14  1  0
 17 15  1  0
 16 14  1  0
 17 16  1  0
M  END
>  <id>  (594) 
594

>  <inchikey>  (594) 
HXSIRLGOOQULEB-LGZQZNNBSA-N

>  <alias>  (594) 
A5277a

>  <smiles>  (594) 
NC(=O)[C@]12CN(C(=O)Cc3ccccc3Cl)C[C@H](C1)C2

>  <path>  (594) 
/opt/xchem-fragalysis-2/maxwin/BulkDock/TARGETS/A71EV2A/aligned_files/A5277a/A5277a.pdb

>  <distance_score>  (594) 
None

>  <energy_score>  (594) 
None

>  <compound>  (594) 
HXSIRLGOOQULEB-UHFFFAOYSA-N

>  <compound_id>  (594) 
427

>  <target>  (594) 
A71EV2A

>  <tags>  (594) 
['GOOD count', 'MEDIOCRE count', '[Other] S1 site', 'hits', '[Other] upload_3 2025-03-06', '[Other] S2 site', '[Other] P3 compound design', '[Series] Piperidine series', 'Main status', 'BAD count']

>  <inspirations>  (594) 
None

>  <subsites>  (594) 
None

>  <reference>  (594) 


>  <observation_longname>  (594) 
A71EV2A-x5277_A_201_v3

>  <ConformerSites alias>  (594) 
1b - A0911/A/147

>  <CanonSites alias>  (594) 
1 - Active Site

>  <CrystalformSites alias>  (594) 
F8h - A0884/A/147

>  <Quatassemblies alias>  (594) 
A1 - monomer

>  <Crystalforms alias>  (594) 
F8 - A712A_x4271_2.1_refmac1_1st_ref

>  <ConformerSites upload name>  (594) 
1b - A71EV2A-x0911/A/147

>  <CanonSites upload name>  (594) 
1 - A71EV2A-x0911/A/147/1

>  <CrystalformSites upload name>  (594) 
F8h - A71EV2A-x0884/A/147/1

>  <Quatassemblies upload name>  (594) 
A1 - monomer

>  <Crystalforms upload name>  (594) 
F8 - A712A_x4271_2.1_refmac1_1st_ref

>  <ConformerSites short tag>  (594) 
1b - A0911/A/147

>  <CanonSites short tag>  (594) 
1 - A0911/A/147/1

>  <CrystalformSites short tag>  (594) 
F8h - A0884/A/147

>  <Quatassemblies short tag>  (594) 
A1 - monomer

>  <Crystalforms short tag>  (594) 
F8 - A712A_x4271_2.1_refmac1_1st_ref

>  <Centroid res>  (594) 
A71EV2A-x0911/A/133/A_v1

>  <Experiment code>  (594) 
A71EV2A-x5277

>  <Pose>  (594) 
A5277a

$$$$
A5283a
     RDKit          3D

 23 25  0  0  0  0  0  0  0  0999 V2000
   10.2560   16.6780   19.1700 O   0  0  0  0  0  0  0  0  0  0  0  0
   10.5870   15.5100   19.4270 C   0  0  0  0  0  0  0  0  0  0  0  0
   10.9550   14.6490   18.4800 N   0  0  0  0  0  0  0  0  0  0  0  0
   10.5930   14.9900   20.8520 C   0  0  1  0  0  0  0  0  0  0  0  0
   11.7600   15.5590   21.6630 C   0  0  0  0  0  0  0  0  0  0  0  0
   11.7270   14.9740   23.0850 C   0  0  0  0  0  0  0  0  0  0  0  0
   10.3860   15.2190   23.7360 C   0  0  0  0  0  0  0  0  0  0  0  0
    9.2600   15.2940   21.5350 C   0  0  0  0  0  0  0  0  0  0  0  0
    9.2600   14.7640   22.8990 N   0  0  0  0  0  0  0  0  0  0  0  0
    8.4060   13.7470   23.2390 C   0  0  0  0  0  0  0  0  0  0  0  0
    7.5510   13.3610   22.4640 O   0  0  0  0  0  0  0  0  0  0  0  0
    8.5340   13.2710   24.5220 N   0  0  0  0  0  0  0  0  0  0  0  0
    7.6740   12.2140   24.9770 C   0  0  0  0  0  0  0  0  0  0  0  0
    7.9550   10.8790   24.6460 C   0  0  0  0  0  0  0  0  0  0  0  0
    9.3540   10.6020   23.6050 S   0  0  0  0  0  0  0  0  0  0  0  0
    9.3690    8.8240   23.4300 C   0  0  0  0  0  0  0  0  0  0  0  0
    6.6020   12.5580   25.8080 C   0  0  0  0  0  0  0  0  0  0  0  0
    6.2290   13.8140   26.2690 N   0  0  0  0  0  0  0  0  0  0  0  0
    5.2270   13.7050   27.0850 C   0  0  0  0  0  0  0  0  0  0  0  0
    4.6180   12.1110   27.3750 S   0  0  0  0  0  0  0  0  0  0  0  0
    5.8250   11.4940   26.2920 C   0  0  0  0  0  0  0  0  0  0  0  0
    6.0730   10.1640   25.9510 C   0  0  0  0  0  0  0  0  0  0  0  0
    7.1490    9.8540   25.1360 C   0  0  0  0  0  0  0  0  0  0  0  0
 16 15  1  0
 15 14  1  0
 14 23  2  0
 23 22  1  0
 22 21  2  0
 21 20  1  0
 20 19  1  0
 19 18  2  0
 18 17  1  0
 21 17  1  0
 17 13  2  0
 14 13  1  0
 13 12  1  0
 12 10  1  0
 11 10  2  0
 10  9  1  0
  9  7  1  0
  7  6  1  0
  6  5  1  0
  5  4  1  0
  4  2  1  6
  3  2  1  0
  2  1  2  0
  8  4  1  0
  9  8  1  0
M  END
>  <id>  (595) 
595

>  <inchikey>  (595) 
OGACCXDFDXEPAC-VIFPVBQESA-N

>  <alias>  (595) 
A5283a

>  <smiles>  (595) 
CSc1ccc2scnc2c1NC(=O)N1CCC[C@H](C(N)=O)C1

>  <path>  (595) 
/opt/xchem-fragalysis-2/maxwin/BulkDock/TARGETS/A71EV2A/aligned_files/A5283a/A5283a_hippo.pdb

>  <distance_score>  (595) 
None

>  <energy_score>  (595) 
None

>  <compound>  (595) 
OGACCXDFDXEPAC-UHFFFAOYSA-N

>  <compound_id>  (595) 
428

>  <target>  (595) 
A71EV2A

>  <tags>  (595) 
['GOOD count', 'MEDIOCRE count', '[Other] S1 site', 'hits', '[Other] upload_3 2025-03-06', '[Other] S2 site', '[Other] P3 compound design', '[Series] Piperidine series', 'Main status', 'BAD count']

>  <inspirations>  (595) 
None

>  <subsites>  (595) 
None

>  <reference>  (595) 


>  <observation_longname>  (595) 
A71EV2A-x5283_A_201_v3

>  <ConformerSites alias>  (595) 
1b - A0911/A/147

>  <CanonSites alias>  (595) 
1 - Active Site

>  <CrystalformSites alias>  (595) 
F7q - A4303/A/201

>  <Quatassemblies alias>  (595) 
A1 - monomer

>  <Crystalforms alias>  (595) 
F7 - A712A_x4207_8.1_refmac1_1st_ref

>  <ConformerSites upload name>  (595) 
1b - A71EV2A-x0911/A/147

>  <CanonSites upload name>  (595) 
1 - A71EV2A-x0911/A/147/1

>  <CrystalformSites upload name>  (595) 
F7q - A71EV2A-x4303/A/201/1

>  <Quatassemblies upload name>  (595) 
A1 - monomer

>  <Crystalforms upload name>  (595) 
F7 - A712A_x4207_8.1_refmac1_1st_ref

>  <ConformerSites short tag>  (595) 
1b - A0911/A/147

>  <CanonSites short tag>  (595) 
1 - A0911/A/147/1

>  <CrystalformSites short tag>  (595) 
F7q - A4303/A/201

>  <Quatassemblies short tag>  (595) 
A1 - monomer

>  <Crystalforms short tag>  (595) 
F7 - A712A_x4207_8.1_refmac1_1st_ref

>  <Centroid res>  (595) 
A71EV2A-x0911/A/133/A_v1

>  <Experiment code>  (595) 
A71EV2A-x5283

>  <Pose>  (595) 
A5283a

$$$$
A5283b
     RDKit          3D

 23 25  0  0  0  0  0  0  0  0999 V2000
   10.3450   16.6650   19.2070 O   0  0  0  0  0  0  0  0  0  0  0  0
   10.7210   15.5000   19.4480 C   0  0  0  0  0  0  0  0  0  0  0  0
   11.0090   14.6200   18.4920 N   0  0  0  0  0  0  0  0  0  0  0  0
   10.8080   14.9900   20.8730 C   0  0  1  0  0  0  0  0  0  0  0  0
   11.9780   15.6230   21.6380 C   0  0  0  0  0  0  0  0  0  0  0  0
   12.0220   15.0620   23.0660 C   0  0  0  0  0  0  0  0  0  0  0  0
   10.7060   15.2850   23.7800 C   0  0  0  0  0  0  0  0  0  0  0  0
    9.5030   15.2720   21.6320 C   0  0  0  0  0  0  0  0  0  0  0  0
    9.5750   14.7490   23.0020 N   0  0  0  0  0  0  0  0  0  0  0  0
    8.7370   13.7320   23.3750 C   0  0  0  0  0  0  0  0  0  0  0  0
    7.8460   13.3180   22.6350 O   0  0  0  0  0  0  0  0  0  0  0  0
    8.8820   13.2590   24.6490 N   0  0  0  0  0  0  0  0  0  0  0  0
    8.0240   12.1800   25.1010 C   0  0  0  0  0  0  0  0  0  0  0  0
    8.3170   10.8590   24.7460 C   0  0  0  0  0  0  0  0  0  0  0  0
    9.6920   10.5990   23.6710 S   0  0  0  0  0  0  0  0  0  0  0  0
    9.6850    8.7950   23.4590 C   0  0  0  0  0  0  0  0  0  0  0  0
    6.9660   12.4940   25.9720 C   0  0  0  0  0  0  0  0  0  0  0  0
    6.5650   13.7420   26.4280 N   0  0  0  0  0  0  0  0  0  0  0  0
    5.5170   13.6250   27.1910 C   0  0  0  0  0  0  0  0  0  0  0  0
    4.9130   12.0240   27.4610 S   0  0  0  0  0  0  0  0  0  0  0  0
    6.1970   11.4160   26.4460 C   0  0  0  0  0  0  0  0  0  0  0  0
    6.4780   10.0930   26.0970 C   0  0  0  0  0  0  0  0  0  0  0  0
    7.5370    9.8100   25.2470 C   0  0  0  0  0  0  0  0  0  0  0  0
 16 15  1  0
 15 14  1  0
 14 23  2  0
 23 22  1  0
 22 21  2  0
 21 20  1  0
 20 19  1  0
 19 18  2  0
 18 17  1  0
 21 17  1  0
 17 13  2  0
 14 13  1  0
 13 12  1  0
 12 10  1  0
 11 10  2  0
 10  9  1  0
  9  7  1  0
  7  6  1  0
  6  5  1  0
  5  4  1  0
  4  2  1  6
  3  2  1  0
  2  1  2  0
  8  4  1  0
  9  8  1  0
M  END
>  <id>  (596) 
596

>  <inchikey>  (596) 
OGACCXDFDXEPAC-VIFPVBQESA-N

>  <alias>  (596) 
A5283b

>  <smiles>  (596) 
CSc1ccc2scnc2c1NC(=O)N1CCC[C@H](C(N)=O)C1

>  <path>  (596) 
/opt/xchem-fragalysis-2/maxwin/BulkDock/TARGETS/A71EV2A/aligned_files/A5283b/A5283b_hippo.pdb

>  <distance_score>  (596) 
None

>  <energy_score>  (596) 
None

>  <compound>  (596) 
OGACCXDFDXEPAC-UHFFFAOYSA-N

>  <compound_id>  (596) 
428

>  <target>  (596) 
A71EV2A

>  <tags>  (596) 
['GOOD count', 'MEDIOCRE count', '[Other] S1 site', 'hits', '[Other] upload_3 2025-03-06', '[Other] S2 site', '[Other] P3 compound design', '[Series] Piperidine series', 'Main status', 'BAD count']

>  <inspirations>  (596) 
None

>  <subsites>  (596) 
None

>  <reference>  (596) 


>  <observation_longname>  (596) 
A71EV2A-x5283_C_201_v3

>  <ConformerSites alias>  (596) 
1b - A0911/A/147

>  <CanonSites alias>  (596) 
1 - Active Site

>  <CrystalformSites alias>  (596) 
F7r - A4303/C/201

>  <Quatassemblies alias>  (596) 
A1 - monomer

>  <Crystalforms alias>  (596) 
F7 - A712A_x4207_8.1_refmac1_1st_ref

>  <ConformerSites upload name>  (596) 
1b - A71EV2A-x0911/A/147

>  <CanonSites upload name>  (596) 
1 - A71EV2A-x0911/A/147/1

>  <CrystalformSites upload name>  (596) 
F7r - A71EV2A-x4303/C/201/1

>  <Quatassemblies upload name>  (596) 
A1 - monomer

>  <Crystalforms upload name>  (596) 
F7 - A712A_x4207_8.1_refmac1_1st_ref

>  <ConformerSites short tag>  (596) 
1b - A0911/A/147

>  <CanonSites short tag>  (596) 
1 - A0911/A/147/1

>  <CrystalformSites short tag>  (596) 
F7r - A4303/C/201

>  <Quatassemblies short tag>  (596) 
A1 - monomer

>  <Crystalforms short tag>  (596) 
F7 - A712A_x4207_8.1_refmac1_1st_ref

>  <Centroid res>  (596) 
A71EV2A-x0911/A/133/A_v1

>  <Experiment code>  (596) 
A71EV2A-x5283

>  <Pose>  (596) 
A5283a

$$$$
A5288a
     RDKit          3D

 24 25  0  0  0  0  0  0  0  0999 V2000
   10.3290   16.6830   19.2160 O   0  0  0  0  0  0  0  0  0  0  0  0
   10.6630   15.5140   19.4400 C   0  0  0  0  0  0  0  0  0  0  0  0
   10.9940   14.6640   18.4780 N   0  0  0  0  0  0  0  0  0  0  0  0
   10.7040   14.9640   20.8550 C   0  0  1  0  0  0  0  0  0  0  0  0
   11.7740   15.6670   21.7080 C   0  0  0  0  0  0  0  0  0  0  0  0
   11.7740   15.1260   23.1470 C   0  0  0  0  0  0  0  0  0  0  0  0
   10.3880   15.2420   23.7610 C   0  0  0  0  0  0  0  0  0  0  0  0
    9.3480   15.2200   21.5220 C   0  0  0  0  0  0  0  0  0  0  0  0
    9.3650   14.6660   22.8760 N   0  0  0  0  0  0  0  0  0  0  0  0
    8.4840   13.6870   23.2330 C   0  0  0  0  0  0  0  0  0  0  0  0
    7.5740   13.3500   22.4930 O   0  0  0  0  0  0  0  0  0  0  0  0
    8.7240   13.0830   24.4180 N   0  0  0  0  0  0  0  0  0  0  0  0
    7.8090   12.1170   24.9240 C   0  0  0  0  0  0  0  0  0  0  0  0
    7.9680   10.7630   24.6120 C   0  0  0  0  0  0  0  0  0  0  0  0
    9.0240   10.4780   23.7810 O   0  0  0  0  0  0  0  0  0  0  0  0
    9.4040    9.1080   23.6170 C   0  0  0  0  0  0  0  0  0  0  0  0
    7.0770    9.8340   25.1380 C   0  0  0  0  0  0  0  0  0  0  0  0
    6.0380   10.2540   25.9620 C   0  0  0  0  0  0  0  0  0  0  0  0
    5.8750   11.5960   26.2740 C   0  0  0  0  0  0  0  0  0  0  0  0
    6.7570   12.5370   25.7510 C   0  0  0  0  0  0  0  0  0  0  0  0
    6.5240   14.2610   26.1030 S   0  0  0  0  0  0  0  0  0  0  0  0
    7.7830   14.5910   27.3600 C   0  0  0  0  0  0  0  0  0  0  0  0
    9.0850   15.2460   26.9570 C   0  0  0  0  0  0  0  0  0  0  0  0
   10.0820   15.3110   28.1010 C   0  0  0  0  0  0  0  0  0  0  0  0
 24 23  1  0
 23 22  1  0
 22 21  1  0
 21 20  1  0
 20 19  1  0
 19 18  2  0
 18 17  1  0
 17 14  2  0
 15 14  1  0
 16 15  1  0
 14 13  1  0
 20 13  2  0
 13 12  1  0
 12 10  1  0
 11 10  2  0
 10  9  1  0
  9  7  1  0
  7  6  1  0
  6  5  1  0
  5  4  1  0
  4  2  1  6
  3  2  1  0
  2  1  2  0
  8  4  1  0
  9  8  1  0
M  END
>  <id>  (597) 
597

>  <inchikey>  (597) 
HVGDXHLIMOIPFU-LBPRGKRZSA-N

>  <alias>  (597) 
A5288a

>  <smiles>  (597) 
CCCSc1cccc(OC)c1NC(=O)N1CCC[C@H](C(N)=O)C1

>  <path>  (597) 
/opt/xchem-fragalysis-2/maxwin/BulkDock/TARGETS/A71EV2A/aligned_files/A5288a/A5288a_hippo.pdb

>  <distance_score>  (597) 
None

>  <energy_score>  (597) 
None

>  <compound>  (597) 
HVGDXHLIMOIPFU-UHFFFAOYSA-N

>  <compound_id>  (597) 
429

>  <target>  (597) 
A71EV2A

>  <tags>  (597) 
['GOOD count', 'MEDIOCRE count', '[Other] S1 site', 'hits', '[Other] upload_3 2025-03-06', '[Other] S2 site', '[Other] P3 compound design', '[Series] Piperidine series', 'Main status', 'BAD count']

>  <inspirations>  (597) 
None

>  <subsites>  (597) 
None

>  <reference>  (597) 


>  <observation_longname>  (597) 
A71EV2A-x5288_A_201_v3

>  <ConformerSites alias>  (597) 
1b - A0911/A/147

>  <CanonSites alias>  (597) 
1 - Active Site

>  <CrystalformSites alias>  (597) 
F7q - A4303/A/201

>  <Quatassemblies alias>  (597) 
A1 - monomer

>  <Crystalforms alias>  (597) 
F7 - A712A_x4207_8.1_refmac1_1st_ref

>  <ConformerSites upload name>  (597) 
1b - A71EV2A-x0911/A/147

>  <CanonSites upload name>  (597) 
1 - A71EV2A-x0911/A/147/1

>  <CrystalformSites upload name>  (597) 
F7q - A71EV2A-x4303/A/201/1

>  <Quatassemblies upload name>  (597) 
A1 - monomer

>  <Crystalforms upload name>  (597) 
F7 - A712A_x4207_8.1_refmac1_1st_ref

>  <ConformerSites short tag>  (597) 
1b - A0911/A/147

>  <CanonSites short tag>  (597) 
1 - A0911/A/147/1

>  <CrystalformSites short tag>  (597) 
F7q - A4303/A/201

>  <Quatassemblies short tag>  (597) 
A1 - monomer

>  <Crystalforms short tag>  (597) 
F7 - A712A_x4207_8.1_refmac1_1st_ref

>  <Centroid res>  (597) 
A71EV2A-x0911/A/133/A_v1

>  <Experiment code>  (597) 
A71EV2A-x5288

>  <Pose>  (597) 
A5288a

$$$$
A5288b
     RDKit          3D

 24 25  0  0  0  0  0  0  0  0999 V2000
   10.3580   16.7020   19.1850 O   0  0  0  0  0  0  0  0  0  0  0  0
   10.7270   15.5430   19.3760 C   0  0  0  0  0  0  0  0  0  0  0  0
   11.0340   14.7110   18.3930 N   0  0  0  0  0  0  0  0  0  0  0  0
   10.8470   14.9800   20.7810 C   0  0  1  0  0  0  0  0  0  0  0  0
   11.8900   15.7480   21.5910 C   0  0  0  0  0  0  0  0  0  0  0  0
   11.9400   15.2570   23.0330 C   0  0  0  0  0  0  0  0  0  0  0  0
   10.5660   15.2950   23.6650 C   0  0  0  0  0  0  0  0  0  0  0  0
    9.5010   15.1420   21.4830 C   0  0  0  0  0  0  0  0  0  0  0  0
    9.5900   14.5890   22.8310 N   0  0  0  0  0  0  0  0  0  0  0  0
    8.7590   13.6100   23.2820 C   0  0  0  0  0  0  0  0  0  0  0  0
    7.7820   13.2630   22.6440 O   0  0  0  0  0  0  0  0  0  0  0  0
    9.1230   13.0170   24.4420 N   0  0  0  0  0  0  0  0  0  0  0  0
    8.2920   12.0400   25.0330 C   0  0  0  0  0  0  0  0  0  0  0  0
    8.4260   10.6870   24.7230 C   0  0  0  0  0  0  0  0  0  0  0  0
    9.3520   10.3930   23.7700 O   0  0  0  0  0  0  0  0  0  0  0  0
    9.6320    9.0170   23.5410 C   0  0  0  0  0  0  0  0  0  0  0  0
    7.6210    9.7540   25.3600 C   0  0  0  0  0  0  0  0  0  0  0  0
    6.6810   10.1740   26.2900 C   0  0  0  0  0  0  0  0  0  0  0  0
    6.5290   11.5190   26.5910 C   0  0  0  0  0  0  0  0  0  0  0  0
    7.3350   12.4610   25.9600 C   0  0  0  0  0  0  0  0  0  0  0  0
    7.1790   14.1970   26.2670 S   0  0  0  0  0  0  0  0  0  0  0  0
    6.2350   14.2340   27.8040 C   0  0  0  0  0  0  0  0  0  0  0  0
    7.2450   14.3580   28.8920 C   0  0  0  0  0  0  0  0  0  0  0  0
    6.7760   15.2720   29.9790 C   0  0  0  0  0  0  0  0  0  0  0  0
 24 23  1  0
 23 22  1  0
 22 21  1  0
 21 20  1  0
 20 19  1  0
 19 18  2  0
 18 17  1  0
 17 14  2  0
 15 14  1  0
 16 15  1  0
 14 13  1  0
 20 13  2  0
 13 12  1  0
 12 10  1  0
 11 10  2  0
 10  9  1  0
  9  7  1  0
  7  6  1  0
  6  5  1  0
  5  4  1  0
  4  2  1  6
  3  2  1  0
  2  1  2  0
  8  4  1  0
  9  8  1  0
M  END
>  <id>  (598) 
598

>  <inchikey>  (598) 
HVGDXHLIMOIPFU-LBPRGKRZSA-N

>  <alias>  (598) 
A5288b

>  <smiles>  (598) 
CCCSc1cccc(OC)c1NC(=O)N1CCC[C@H](C(N)=O)C1

>  <path>  (598) 
/opt/xchem-fragalysis-2/maxwin/BulkDock/TARGETS/A71EV2A/aligned_files/A5288b/A5288b_hippo.pdb

>  <distance_score>  (598) 
None

>  <energy_score>  (598) 
None

>  <compound>  (598) 
HVGDXHLIMOIPFU-UHFFFAOYSA-N

>  <compound_id>  (598) 
429

>  <target>  (598) 
A71EV2A

>  <tags>  (598) 
['GOOD count', 'MEDIOCRE count', '[Other] S1 site', 'hits', '[Other] upload_3 2025-03-06', '[Other] S2 site', '[Other] P3 compound design', '[Series] Piperidine series', 'Main status', 'BAD count']

>  <inspirations>  (598) 
None

>  <subsites>  (598) 
None

>  <reference>  (598) 


>  <observation_longname>  (598) 
A71EV2A-x5288_C_201_v3

>  <ConformerSites alias>  (598) 
1b - A0911/A/147

>  <CanonSites alias>  (598) 
1 - Active Site

>  <CrystalformSites alias>  (598) 
F7r - A4303/C/201

>  <Quatassemblies alias>  (598) 
A1 - monomer

>  <Crystalforms alias>  (598) 
F7 - A712A_x4207_8.1_refmac1_1st_ref

>  <ConformerSites upload name>  (598) 
1b - A71EV2A-x0911/A/147

>  <CanonSites upload name>  (598) 
1 - A71EV2A-x0911/A/147/1

>  <CrystalformSites upload name>  (598) 
F7r - A71EV2A-x4303/C/201/1

>  <Quatassemblies upload name>  (598) 
A1 - monomer

>  <Crystalforms upload name>  (598) 
F7 - A712A_x4207_8.1_refmac1_1st_ref

>  <ConformerSites short tag>  (598) 
1b - A0911/A/147

>  <CanonSites short tag>  (598) 
1 - A0911/A/147/1

>  <CrystalformSites short tag>  (598) 
F7r - A4303/C/201

>  <Quatassemblies short tag>  (598) 
A1 - monomer

>  <Crystalforms short tag>  (598) 
F7 - A712A_x4207_8.1_refmac1_1st_ref

>  <Centroid res>  (598) 
A71EV2A-x0911/A/133/A_v1

>  <Experiment code>  (598) 
A71EV2A-x5288

>  <Pose>  (598) 
A5288a

$$$$
A5289a
     RDKit          3D

 24 25  0  0  0  0  0  0  0  0999 V2000
   10.3140   16.7110   19.2240 O   0  0  0  0  0  0  0  0  0  0  0  0
   10.6290   15.5340   19.4380 C   0  0  0  0  0  0  0  0  0  0  0  0
   10.9420   14.6700   18.4740 N   0  0  0  0  0  0  0  0  0  0  0  0
   10.6750   14.9780   20.8500 C   0  0  1  0  0  0  0  0  0  0  0  0
   11.7210   15.6990   21.7190 C   0  0  0  0  0  0  0  0  0  0  0  0
   11.6930   15.1470   23.1550 C   0  0  0  0  0  0  0  0  0  0  0  0
   10.2960   15.2470   23.7370 C   0  0  0  0  0  0  0  0  0  0  0  0
    9.2870   15.1710   21.4690 C   0  0  0  0  0  0  0  0  0  0  0  0
    9.2940   14.6540   22.8380 N   0  0  0  0  0  0  0  0  0  0  0  0
    8.4220   13.6610   23.1920 C   0  0  0  0  0  0  0  0  0  0  0  0
    7.5410   13.2870   22.4350 O   0  0  0  0  0  0  0  0  0  0  0  0
    8.6420   13.0870   24.4000 N   0  0  0  0  0  0  0  0  0  0  0  0
    7.7390   12.0880   24.8600 C   0  0  0  0  0  0  0  0  0  0  0  0
    7.9570   10.7430   24.5570 C   0  0  0  0  0  0  0  0  0  0  0  0
    9.0470   10.4930   23.7680 O   0  0  0  0  0  0  0  0  0  0  0  0
    9.3850    9.1310   23.5130 C   0  0  0  0  0  0  0  0  0  0  0  0
    6.6670   12.4530   25.6800 C   0  0  0  0  0  0  0  0  0  0  0  0
    6.4240   14.1810   25.9560 S   0  0  0  0  0  0  0  0  0  0  0  0
    5.1960   14.2290   27.3080 C   0  0  0  0  0  0  0  0  0  0  0  0
    3.8480   14.0440   26.6540 C   0  0  0  0  0  0  0  0  0  0  0  0
    5.3240   15.5980   27.9470 C   0  0  0  0  0  0  0  0  0  0  0  0
    5.8390   11.4690   26.2160 C   0  0  0  0  0  0  0  0  0  0  0  0
    6.0720   10.1350   25.9150 C   0  0  0  0  0  0  0  0  0  0  0  0
    7.1250    9.7670   25.0870 C   0  0  0  0  0  0  0  0  0  0  0  0
 16 15  1  0
 15 14  1  0
 14 24  2  0
 24 23  1  0
 23 22  2  0
 22 17  1  0
 18 17  1  0
 19 18  1  0
 21 19  1  0
 20 19  1  0
 17 13  2  0
 14 13  1  0
 13 12  1  0
 12 10  1  0
 11 10  2  0
 10  9  1  0
  9  7  1  0
  7  6  1  0
  6  5  1  0
  5  4  1  0
  4  2  1  6
  3  2  1  0
  2  1  2  0
  8  4  1  0
  9  8  1  0
M  END
>  <id>  (599) 
599

>  <inchikey>  (599) 
OFDCWASTDCXECL-LBPRGKRZSA-N

>  <alias>  (599) 
A5289a

>  <smiles>  (599) 
COc1cccc(SC(C)C)c1NC(=O)N1CCC[C@H](C(N)=O)C1

>  <path>  (599) 
/opt/xchem-fragalysis-2/maxwin/BulkDock/TARGETS/A71EV2A/aligned_files/A5289a/A5289a_hippo.pdb

>  <distance_score>  (599) 
None

>  <energy_score>  (599) 
None

>  <compound>  (599) 
OFDCWASTDCXECL-UHFFFAOYSA-N

>  <compound_id>  (599) 
430

>  <target>  (599) 
A71EV2A

>  <tags>  (599) 
['GOOD count', 'MEDIOCRE count', '[Other] S1 site', 'hits', '[Other] S2 site', '[Other] P3 compound design', '[Series] Piperidine series', 'Main status', '[Other] upload_2 2025-02-28', 'BAD count']

>  <inspirations>  (599) 
None

>  <subsites>  (599) 
None

>  <reference>  (599) 


>  <observation_longname>  (599) 
A71EV2A-x5289_A_201_v2

>  <ConformerSites alias>  (599) 
1b - A0911/A/147

>  <CanonSites alias>  (599) 
1 - Active Site

>  <CrystalformSites alias>  (599) 
F7q - A4303/A/201

>  <Quatassemblies alias>  (599) 
A1 - monomer

>  <Crystalforms alias>  (599) 
F7 - A712A_x4207_8.1_refmac1_1st_ref

>  <ConformerSites upload name>  (599) 
1b - A71EV2A-x0911/A/147

>  <CanonSites upload name>  (599) 
1 - A71EV2A-x0911/A/147/1

>  <CrystalformSites upload name>  (599) 
F7q - A71EV2A-x4303/A/201/1

>  <Quatassemblies upload name>  (599) 
A1 - monomer

>  <Crystalforms upload name>  (599) 
F7 - A712A_x4207_8.1_refmac1_1st_ref

>  <ConformerSites short tag>  (599) 
1b - A0911/A/147

>  <CanonSites short tag>  (599) 
1 - A0911/A/147/1

>  <CrystalformSites short tag>  (599) 
F7q - A4303/A/201

>  <Quatassemblies short tag>  (599) 
A1 - monomer

>  <Crystalforms short tag>  (599) 
F7 - A712A_x4207_8.1_refmac1_1st_ref

>  <Centroid res>  (599) 
A71EV2A-x0911/A/133/A_v1

>  <Experiment code>  (599) 
A71EV2A-x5289

>  <Pose>  (599) 
A5289a

$$$$
A5289b
     RDKit          3D

 24 25  0  0  0  0  0  0  0  0999 V2000
   10.3230   16.7300   19.2370 O   0  0  0  0  0  0  0  0  0  0  0  0
   10.7050   15.5690   19.4380 C   0  0  0  0  0  0  0  0  0  0  0  0
   10.9550   14.6990   18.4640 N   0  0  0  0  0  0  0  0  0  0  0  0
   10.8160   15.0260   20.8480 C   0  0  1  0  0  0  0  0  0  0  0  0
   11.8870   15.7860   21.6500 C   0  0  0  0  0  0  0  0  0  0  0  0
   11.9220   15.2930   23.1080 C   0  0  0  0  0  0  0  0  0  0  0  0
   10.5370   15.3930   23.7280 C   0  0  0  0  0  0  0  0  0  0  0  0
    9.4520   15.1810   21.5320 C   0  0  0  0  0  0  0  0  0  0  0  0
    9.5550   14.6760   22.9030 N   0  0  0  0  0  0  0  0  0  0  0  0
    8.7470   13.6460   23.3140 C   0  0  0  0  0  0  0  0  0  0  0  0
    7.8110   13.2580   22.6300 O   0  0  0  0  0  0  0  0  0  0  0  0
    9.0810   13.0580   24.4990 N   0  0  0  0  0  0  0  0  0  0  0  0
    8.1950   12.0670   25.0320 C   0  0  0  0  0  0  0  0  0  0  0  0
    8.3380   10.7250   24.6920 C   0  0  0  0  0  0  0  0  0  0  0  0
    9.3320   10.4550   23.7950 O   0  0  0  0  0  0  0  0  0  0  0  0
    9.5930    9.0800   23.5020 C   0  0  0  0  0  0  0  0  0  0  0  0
    7.2110   12.4490   25.9500 C   0  0  0  0  0  0  0  0  0  0  0  0
    7.0900   14.1810   26.2950 S   0  0  0  0  0  0  0  0  0  0  0  0
    5.6200   14.2910   27.3770 C   0  0  0  0  0  0  0  0  0  0  0  0
    5.1660   15.7210   27.1760 C   0  0  0  0  0  0  0  0  0  0  0  0
    6.0950   14.0410   28.7930 C   0  0  0  0  0  0  0  0  0  0  0  0
    6.3920   11.4880   26.5370 C   0  0  0  0  0  0  0  0  0  0  0  0
    6.5610   10.1540   26.2090 C   0  0  0  0  0  0  0  0  0  0  0  0
    7.5230    9.7640   25.2860 C   0  0  0  0  0  0  0  0  0  0  0  0
 16 15  1  0
 15 14  1  0
 14 24  2  0
 24 23  1  0
 23 22  2  0
 22 17  1  0
 18 17  1  0
 19 18  1  0
 21 19  1  0
 20 19  1  0
 17 13  2  0
 14 13  1  0
 13 12  1  0
 12 10  1  0
 11 10  2  0
 10  9  1  0
  9  7  1  0
  7  6  1  0
  6  5  1  0
  5  4  1  0
  4  2  1  6
  3  2  1  0
  2  1  2  0
  8  4  1  0
  9  8  1  0
M  END
>  <id>  (600) 
600

>  <inchikey>  (600) 
OFDCWASTDCXECL-LBPRGKRZSA-N

>  <alias>  (600) 
A5289b

>  <smiles>  (600) 
COc1cccc(SC(C)C)c1NC(=O)N1CCC[C@H](C(N)=O)C1

>  <path>  (600) 
/opt/xchem-fragalysis-2/maxwin/BulkDock/TARGETS/A71EV2A/aligned_files/A5289b/A5289b.pdb

>  <distance_score>  (600) 
None

>  <energy_score>  (600) 
None

>  <compound>  (600) 
OFDCWASTDCXECL-UHFFFAOYSA-N

>  <compound_id>  (600) 
430

>  <target>  (600) 
A71EV2A

>  <tags>  (600) 
['GOOD count', 'MEDIOCRE count', '[Other] S1 site', 'hits', '[Other] S2 site', '[Other] P3 compound design', '[Series] Piperidine series', 'Main status', '[Other] upload_2 2025-02-28', 'BAD count']

>  <inspirations>  (600) 
None

>  <subsites>  (600) 
None

>  <reference>  (600) 


>  <observation_longname>  (600) 
A71EV2A-x5289_C_201_v2

>  <ConformerSites alias>  (600) 
1b - A0911/A/147

>  <CanonSites alias>  (600) 
1 - Active Site

>  <CrystalformSites alias>  (600) 
F7r - A4303/C/201

>  <Quatassemblies alias>  (600) 
A1 - monomer

>  <Crystalforms alias>  (600) 
F7 - A712A_x4207_8.1_refmac1_1st_ref

>  <ConformerSites upload name>  (600) 
1b - A71EV2A-x0911/A/147

>  <CanonSites upload name>  (600) 
1 - A71EV2A-x0911/A/147/1

>  <CrystalformSites upload name>  (600) 
F7r - A71EV2A-x4303/C/201/1

>  <Quatassemblies upload name>  (600) 
A1 - monomer

>  <Crystalforms upload name>  (600) 
F7 - A712A_x4207_8.1_refmac1_1st_ref

>  <ConformerSites short tag>  (600) 
1b - A0911/A/147

>  <CanonSites short tag>  (600) 
1 - A0911/A/147/1

>  <CrystalformSites short tag>  (600) 
F7r - A4303/C/201

>  <Quatassemblies short tag>  (600) 
A1 - monomer

>  <Crystalforms short tag>  (600) 
F7 - A712A_x4207_8.1_refmac1_1st_ref

>  <Centroid res>  (600) 
A71EV2A-x0911/A/133/A_v1

>  <Experiment code>  (600) 
A71EV2A-x5289

>  <Pose>  (600) 
A5289a

$$$$
A5317a
     RDKit          3D

 21 22  0  0  0  0  0  0  0  0999 V2000
   10.9080   15.1450   24.4250 O   0  0  0  0  0  0  0  0  0  0  0  0
   10.6360   14.9550   23.2510 C   0  0  0  0  0  0  0  0  0  0  0  0
   11.4210   15.4290   22.0480 C   0  0  0  0  0  0  0  0  0  0  0  0
   10.8370   14.5850   20.9000 C   0  0  2  0  0  0  0  0  0  0  0  0
   10.8340   15.2780   19.5470 C   0  0  0  0  0  0  0  0  0  0  0  0
   10.3520   16.4070   19.4050 O   0  0  0  0  0  0  0  0  0  0  0  0
   11.2360   14.5430   18.5170 N   0  0  0  0  0  0  0  0  0  0  0  0
    9.4170   14.2870   21.3460 C   0  0  0  0  0  0  0  0  0  0  0  0
    9.4980   14.3720   22.8110 N   0  0  0  0  0  0  0  0  0  0  0  0
    8.3580   14.0510   23.6860 C   0  0  1  0  0  0  0  0  0  0  0  0
    7.0400   14.4870   23.0170 C   0  0  0  0  0  0  0  0  0  0  0  0
    6.5580   13.8400   22.0860 O   0  0  0  0  0  0  0  0  0  0  0  0
    6.5230   15.6150   23.4730 N   0  0  0  0  0  0  0  0  0  0  0  0
    5.2690   16.1390   22.9630 C   0  0  0  0  0  0  0  0  0  0  0  0
    8.2940   12.5930   24.1250 C   0  0  0  0  0  0  0  0  0  0  0  0
    9.0300   11.5910   23.5000 C   0  0  0  0  0  0  0  0  0  0  0  0
    8.7770   10.2430   23.7440 C   0  0  0  0  0  0  0  0  0  0  0  0
    9.5980    9.1680   23.0800 C   0  0  0  0  0  0  0  0  0  0  0  0
    7.7760    9.9120   24.6490 C   0  0  0  0  0  0  0  0  0  0  0  0
    7.0700   10.8950   25.3160 C   0  0  0  0  0  0  0  0  0  0  0  0
    7.3230   12.2270   25.0500 C   0  0  0  0  0  0  0  0  0  0  0  0
 14 13  1  0
 13 11  1  0
 12 11  2  0
 11 10  1  0
 15 10  1  0
 15 21  2  0
 21 20  1  0
 20 19  2  0
 19 17  1  0
 18 17  1  0
 17 16  2  0
 16 15  1  0
 10  9  1  6
  9  8  1  0
  8  4  1  0
  4  5  1  6
  7  5  1  0
  6  5  2  0
  4  3  1  0
  3  2  1  0
  9  2  1  0
  2  1  2  0
M  END
>  <id>  (601) 
601

>  <inchikey>  (601) 
LDFRWHLYLLJBKU-WCQYABFASA-N

>  <alias>  (601) 
A5317a

>  <smiles>  (601) 
CNC(=O)[C@@H](c1cccc(C)c1)N1C[C@@H](C(N)=O)CC1=O

>  <path>  (601) 
/opt/xchem-fragalysis-2/maxwin/BulkDock/TARGETS/A71EV2A/aligned_files/A5317a/A5317a.pdb

>  <distance_score>  (601) 
None

>  <energy_score>  (601) 
None

>  <compound>  (601) 
LDFRWHLYLLJBKU-UHFFFAOYSA-N

>  <compound_id>  (601) 
431

>  <target>  (601) 
A71EV2A

>  <tags>  (601) 
['GOOD count', 'MEDIOCRE count', '[Other] S1 site', 'hits', '[Other] upload_3 2025-03-06', '[Other] S2 site', '[Other] P3 compound design', '[Series] Piperidine series', 'Main status', 'BAD count']

>  <inspirations>  (601) 
None

>  <subsites>  (601) 
None

>  <reference>  (601) 


>  <observation_longname>  (601) 
A71EV2A-x5317_A_201_v3

>  <ConformerSites alias>  (601) 
1b - A0911/A/147

>  <CanonSites alias>  (601) 
1 - Active Site

>  <CrystalformSites alias>  (601) 
F5i - A3175/A/201

>  <Quatassemblies alias>  (601) 
A1 - monomer

>  <Crystalforms alias>  (601) 
F5 - A71EV2A_x3178_new_long_dials_041024

>  <ConformerSites upload name>  (601) 
1b - A71EV2A-x0911/A/147

>  <CanonSites upload name>  (601) 
1 - A71EV2A-x0911/A/147/1

>  <CrystalformSites upload name>  (601) 
F5i - A71EV2A-x3175/A/201/1

>  <Quatassemblies upload name>  (601) 
A1 - monomer

>  <Crystalforms upload name>  (601) 
F5 - A71EV2A_x3178_new_long_dials_041024

>  <ConformerSites short tag>  (601) 
1b - A0911/A/147

>  <CanonSites short tag>  (601) 
1 - A0911/A/147/1

>  <CrystalformSites short tag>  (601) 
F5i - A3175/A/201

>  <Quatassemblies short tag>  (601) 
A1 - monomer

>  <Crystalforms short tag>  (601) 
F5 - A71EV2A_x3178_new_long_dials_041024

>  <Centroid res>  (601) 
A71EV2A-x0911/A/133/A_v1

>  <Experiment code>  (601) 
A71EV2A-x5317

>  <Pose>  (601) 
A5317a

$$$$
A5339a
     RDKit          3D

 22 23  0  0  0  0  0  0  0  0999 V2000
   10.3890   17.0750   18.9950 O   0  0  0  0  0  0  0  0  0  0  0  0
   10.4710   15.9680   19.5360 C   0  0  0  0  0  0  0  0  0  0  0  0
   10.8220   14.8770   18.8640 N   0  0  0  0  0  0  0  0  0  0  0  0
   10.2200   15.8050   21.0260 C   0  0  1  0  0  0  0  0  0  0  0  0
    9.7400   14.4010   21.4130 C   0  0  0  0  0  0  0  0  0  0  0  0
   11.4780   16.1100   21.8370 C   0  0  0  0  0  0  0  0  0  0  0  0
   11.1690   16.0370   23.3340 C   0  0  0  0  0  0  0  0  0  0  0  0
   10.6110   14.6730   23.7460 C   0  0  2  0  0  0  0  0  0  0  0  0
   11.6970   13.6060   23.8130 C   0  0  0  0  0  0  0  0  0  0  0  0
    9.5020   14.2630   22.8570 N   0  0  0  0  0  0  0  0  0  0  0  0
    8.3640   13.6560   23.2880 C   0  0  0  0  0  0  0  0  0  0  0  0
    7.4760   13.3270   22.5060 O   0  0  0  0  0  0  0  0  0  0  0  0
    8.2290   13.3540   24.7690 C   0  0  0  0  0  0  0  0  0  0  0  0
    7.3470   12.1510   25.0230 C   0  0  0  0  0  0  0  0  0  0  0  0
    7.7130   10.8390   24.6860 C   0  0  0  0  0  0  0  0  0  0  0  0
    9.1340   10.6150   23.6520 S   0  0  0  0  0  0  0  0  0  0  0  0
    9.2070    8.8430   23.3920 C   0  0  0  0  0  0  0  0  0  0  0  0
    6.1690   12.3540   25.7450 C   0  0  0  0  0  0  0  0  0  0  0  0
    5.4200   11.2700   26.1540 C   0  0  0  0  0  0  0  0  0  0  0  0
    3.8190   11.5730   27.1300 Br  0  0  0  0  0  0  0  0  0  0  0  0
    5.7930    9.9780   25.8630 C   0  0  0  0  0  0  0  0  0  0  0  0
    6.9450    9.7610   25.1250 C   0  0  0  0  0  0  0  0  0  0  0  0
 17 16  1  0
 16 15  1  0
 15 22  2  0
 22 21  1  0
 21 19  2  0
 20 19  1  0
 19 18  1  0
 18 14  2  0
 15 14  1  0
 14 13  1  0
 13 11  1  0
 12 11  2  0
 11 10  1  0
 10  5  1  0
  5  4  1  0
  4  2  1  6
  3  2  1  0
  2  1  2  0
  6  4  1  0
  7  6  1  0
  8  7  1  0
 10  8  1  0
  8  9  1  6
M  END
>  <id>  (602) 
602

>  <inchikey>  (602) 
FMBXRAUPCZLXGY-WDEREUQCSA-N

>  <alias>  (602) 
A5339a

>  <smiles>  (602) 
CSc1ccc(Br)cc1CC(=O)N1C[C@H](C(N)=O)CC[C@@H]1C

>  <path>  (602) 
/opt/xchem-fragalysis-2/maxwin/BulkDock/TARGETS/A71EV2A/aligned_files/A5339a/A5339a_hippo.pdb

>  <distance_score>  (602) 
None

>  <energy_score>  (602) 
None

>  <compound>  (602) 
FMBXRAUPCZLXGY-UHFFFAOYSA-N

>  <compound_id>  (602) 
423

>  <target>  (602) 
A71EV2A

>  <tags>  (602) 
['GOOD count', 'MEDIOCRE count', '[Other] S1 site', 'hits', '[Other] S2 site', '[Other] P3 compound design', '[Series] Piperidine series', 'Main status', '[Other] upload_2 2025-02-28', 'BAD count']

>  <inspirations>  (602) 
None

>  <subsites>  (602) 
None

>  <reference>  (602) 


>  <observation_longname>  (602) 
A71EV2A-x5339_A_201_v2

>  <ConformerSites alias>  (602) 
1b - A0911/A/147

>  <CanonSites alias>  (602) 
1 - Active Site

>  <CrystalformSites alias>  (602) 
F7q - A4303/A/201

>  <Quatassemblies alias>  (602) 
A1 - monomer

>  <Crystalforms alias>  (602) 
F7 - A712A_x4207_8.1_refmac1_1st_ref

>  <ConformerSites upload name>  (602) 
1b - A71EV2A-x0911/A/147

>  <CanonSites upload name>  (602) 
1 - A71EV2A-x0911/A/147/1

>  <CrystalformSites upload name>  (602) 
F7q - A71EV2A-x4303/A/201/1

>  <Quatassemblies upload name>  (602) 
A1 - monomer

>  <Crystalforms upload name>  (602) 
F7 - A712A_x4207_8.1_refmac1_1st_ref

>  <ConformerSites short tag>  (602) 
1b - A0911/A/147

>  <CanonSites short tag>  (602) 
1 - A0911/A/147/1

>  <CrystalformSites short tag>  (602) 
F7q - A4303/A/201

>  <Quatassemblies short tag>  (602) 
A1 - monomer

>  <Crystalforms short tag>  (602) 
F7 - A712A_x4207_8.1_refmac1_1st_ref

>  <Centroid res>  (602) 
A71EV2A-x0911/A/133/A_v1

>  <Experiment code>  (602) 
A71EV2A-x5339

>  <Pose>  (602) 
A5339a

$$$$
A5339b
     RDKit          3D

 22 23  0  0  0  0  0  0  0  0999 V2000
   10.4230   17.0610   18.9980 O   0  0  0  0  0  0  0  0  0  0  0  0
   10.5910   15.9660   19.5390 C   0  0  0  0  0  0  0  0  0  0  0  0
   10.9070   14.8760   18.8470 N   0  0  0  0  0  0  0  0  0  0  0  0
   10.4300   15.8020   21.0440 C   0  0  1  0  0  0  0  0  0  0  0  0
    9.9820   14.4010   21.4880 C   0  0  0  0  0  0  0  0  0  0  0  0
   11.7360   16.1400   21.7710 C   0  0  0  0  0  0  0  0  0  0  0  0
   11.5360   16.0680   23.2830 C   0  0  0  0  0  0  0  0  0  0  0  0
   11.0390   14.6990   23.7440 C   0  0  2  0  0  0  0  0  0  0  0  0
   12.1420   13.6510   23.7460 C   0  0  0  0  0  0  0  0  0  0  0  0
    9.8680   14.2620   22.9510 N   0  0  0  0  0  0  0  0  0  0  0  0
    8.7600   13.6490   23.4760 C   0  0  0  0  0  0  0  0  0  0  0  0
    7.8180   13.3050   22.7610 O   0  0  0  0  0  0  0  0  0  0  0  0
    8.7440   13.3280   24.9630 C   0  0  0  0  0  0  0  0  0  0  0  0
    7.8860   12.1240   25.2930 C   0  0  0  0  0  0  0  0  0  0  0  0
    8.1380   10.8290   24.8110 C   0  0  0  0  0  0  0  0  0  0  0  0
    9.5150   10.5970   23.7190 S   0  0  0  0  0  0  0  0  0  0  0  0
    9.4500    8.8500   23.3190 C   0  0  0  0  0  0  0  0  0  0  0  0
    6.8150   12.3140   26.1720 C   0  0  0  0  0  0  0  0  0  0  0  0
    6.0300   11.2440   26.5530 C   0  0  0  0  0  0  0  0  0  0  0  0
    4.5280   11.5540   27.6850 Br  0  0  0  0  0  0  0  0  0  0  0  0
    6.2850    9.9680   26.1050 C   0  0  0  0  0  0  0  0  0  0  0  0
    7.3430    9.7610   25.2310 C   0  0  0  0  0  0  0  0  0  0  0  0
 17 16  1  0
 16 15  1  0
 15 22  2  0
 22 21  1  0
 21 19  2  0
 20 19  1  0
 19 18  1  0
 18 14  2  0
 15 14  1  0
 14 13  1  0
 13 11  1  0
 12 11  2  0
 11 10  1  0
 10  5  1  0
  5  4  1  0
  4  2  1  6
  3  2  1  0
  2  1  2  0
  6  4  1  0
  7  6  1  0
  8  7  1  0
 10  8  1  0
  8  9  1  6
M  END
>  <id>  (603) 
603

>  <inchikey>  (603) 
FMBXRAUPCZLXGY-WDEREUQCSA-N

>  <alias>  (603) 
A5339b

>  <smiles>  (603) 
CSc1ccc(Br)cc1CC(=O)N1C[C@H](C(N)=O)CC[C@@H]1C

>  <path>  (603) 
/opt/xchem-fragalysis-2/maxwin/BulkDock/TARGETS/A71EV2A/aligned_files/A5339b/A5339b_hippo.pdb

>  <distance_score>  (603) 
None

>  <energy_score>  (603) 
None

>  <compound>  (603) 
FMBXRAUPCZLXGY-UHFFFAOYSA-N

>  <compound_id>  (603) 
423

>  <target>  (603) 
A71EV2A

>  <tags>  (603) 
['GOOD count', 'MEDIOCRE count', '[Other] S1 site', 'hits', '[Other] S2 site', '[Other] P3 compound design', '[Series] Piperidine series', 'Main status', '[Other] upload_2 2025-02-28', 'BAD count']

>  <inspirations>  (603) 
None

>  <subsites>  (603) 
None

>  <reference>  (603) 


>  <observation_longname>  (603) 
A71EV2A-x5339_C_201_v2

>  <ConformerSites alias>  (603) 
1b - A0911/A/147

>  <CanonSites alias>  (603) 
1 - Active Site

>  <CrystalformSites alias>  (603) 
F7r - A4303/C/201

>  <Quatassemblies alias>  (603) 
A1 - monomer

>  <Crystalforms alias>  (603) 
F7 - A712A_x4207_8.1_refmac1_1st_ref

>  <ConformerSites upload name>  (603) 
1b - A71EV2A-x0911/A/147

>  <CanonSites upload name>  (603) 
1 - A71EV2A-x0911/A/147/1

>  <CrystalformSites upload name>  (603) 
F7r - A71EV2A-x4303/C/201/1

>  <Quatassemblies upload name>  (603) 
A1 - monomer

>  <Crystalforms upload name>  (603) 
F7 - A712A_x4207_8.1_refmac1_1st_ref

>  <ConformerSites short tag>  (603) 
1b - A0911/A/147

>  <CanonSites short tag>  (603) 
1 - A0911/A/147/1

>  <CrystalformSites short tag>  (603) 
F7r - A4303/C/201

>  <Quatassemblies short tag>  (603) 
A1 - monomer

>  <Crystalforms short tag>  (603) 
F7 - A712A_x4207_8.1_refmac1_1st_ref

>  <Centroid res>  (603) 
A71EV2A-x0911/A/133/A_v1

>  <Experiment code>  (603) 
A71EV2A-x5339

>  <Pose>  (603) 
A5339a

$$$$
A5359a
     RDKit          3D

 21 22  0  0  0  0  0  0  0  0999 V2000
   10.3990   16.8130   19.1820 O   0  0  0  0  0  0  0  0  0  0  0  0
   10.7350   15.6450   19.4310 C   0  0  0  0  0  0  0  0  0  0  0  0
   10.9470   14.7350   18.4920 N   0  0  0  0  0  0  0  0  0  0  0  0
   10.8390   15.1500   20.8630 C   0  0  1  0  0  0  0  0  0  0  0  0
   11.8000   16.0240   21.6870 C   0  0  0  0  0  0  0  0  0  0  0  0
   11.8000   15.6100   23.1670 C   0  0  0  0  0  0  0  0  0  0  0  0
   10.3850   15.5990   23.7260 C   0  0  0  0  0  0  0  0  0  0  0  0
    9.4370   15.2780   21.4710 C   0  0  0  0  0  0  0  0  0  0  0  0
    9.5010   14.7930   22.8610 N   0  0  0  0  0  0  0  0  0  0  0  0
    8.2670   13.9920   23.5460 S   0  0  0  0  0  0  0  0  0  0  0  0
    7.4870   14.9550   24.2560 O   0  0  0  0  0  0  0  0  0  0  0  0
    7.6420   13.2040   22.5260 O   0  0  0  0  0  0  0  0  0  0  0  0
    9.0010   12.8850   24.7430 C   0  0  0  0  0  0  0  0  0  0  0  0
    8.0390   11.8510   25.2650 C   0  0  0  0  0  0  0  0  0  0  0  0
    8.0370   10.5220   24.8000 C   0  0  0  0  0  0  0  0  0  0  0  0
    9.0540   10.0670   23.8340 C   0  0  0  0  0  0  0  0  0  0  0  0
    9.2580    8.8610   23.4560 C   0  0  0  0  0  0  0  0  0  0  0  0
    7.1120   12.2320   26.2280 C   0  0  0  0  0  0  0  0  0  0  0  0
    6.1770   11.3320   26.7100 C   0  0  0  0  0  0  0  0  0  0  0  0
    6.1570   10.0380   26.2410 C   0  0  0  0  0  0  0  0  0  0  0  0
    7.0800    9.6270   25.2910 C   0  0  0  0  0  0  0  0  0  0  0  0
 17 16  2  0
 16 15  1  0
 15 21  2  0
 21 20  1  0
 20 19  2  0
 19 18  1  0
 18 14  2  0
 15 14  1  0
 14 13  1  0
 13 10  1  0
 11 10  2  0
 12 10  2  0
 10  9  1  0
  9  7  1  0
  7  6  1  0
  6  5  1  0
  5  4  1  0
  4  2  1  6
  3  2  1  0
  2  1  2  0
  8  4  1  0
  9  8  1  0
M  END
>  <id>  (604) 
604

>  <inchikey>  (604) 
DIYJWUSVAMGGFW-ZDUSSCGKSA-N

>  <alias>  (604) 
A5359a

>  <smiles>  (604) 
C=Cc1ccccc1CS(=O)(=O)N1CCC[C@H](C(N)=O)C1

>  <path>  (604) 
/opt/xchem-fragalysis-2/maxwin/BulkDock/TARGETS/A71EV2A/aligned_files/A5359a/A5359a.pdb

>  <distance_score>  (604) 
None

>  <energy_score>  (604) 
None

>  <compound>  (604) 
DIYJWUSVAMGGFW-UHFFFAOYSA-N

>  <compound_id>  (604) 
432

>  <target>  (604) 
A71EV2A

>  <tags>  (604) 
['GOOD count', 'MEDIOCRE count', '[Other] S1 site', 'hits', '[Other] upload_3 2025-03-06', '[Other] S2 site', '[Other] P3 compound design', '[Series] Piperidine series', 'Main status', 'BAD count']

>  <inspirations>  (604) 
None

>  <subsites>  (604) 
None

>  <reference>  (604) 


>  <observation_longname>  (604) 
A71EV2A-x5359_A_201_v3

>  <ConformerSites alias>  (604) 
1b - A0911/A/147

>  <CanonSites alias>  (604) 
1 - Active Site

>  <CrystalformSites alias>  (604) 
F8h - A0884/A/147

>  <Quatassemblies alias>  (604) 
A1 - monomer

>  <Crystalforms alias>  (604) 
F8 - A712A_x4271_2.1_refmac1_1st_ref

>  <ConformerSites upload name>  (604) 
1b - A71EV2A-x0911/A/147

>  <CanonSites upload name>  (604) 
1 - A71EV2A-x0911/A/147/1

>  <CrystalformSites upload name>  (604) 
F8h - A71EV2A-x0884/A/147/1

>  <Quatassemblies upload name>  (604) 
A1 - monomer

>  <Crystalforms upload name>  (604) 
F8 - A712A_x4271_2.1_refmac1_1st_ref

>  <ConformerSites short tag>  (604) 
1b - A0911/A/147

>  <CanonSites short tag>  (604) 
1 - A0911/A/147/1

>  <CrystalformSites short tag>  (604) 
F8h - A0884/A/147

>  <Quatassemblies short tag>  (604) 
A1 - monomer

>  <Crystalforms short tag>  (604) 
F8 - A712A_x4271_2.1_refmac1_1st_ref

>  <Centroid res>  (604) 
A71EV2A-x0911/A/133/A_v1

>  <Experiment code>  (604) 
A71EV2A-x5359

>  <Pose>  (604) 
A5359a

$$$$
A5359b
     RDKit          3D

 21 22  0  0  0  0  0  0  0  0999 V2000
   -2.6790   16.3940   13.7390 O   0  0  0  0  0  0  0  0  0  0  0  0
   -1.7020   15.7240   14.0850 C   0  0  0  0  0  0  0  0  0  0  0  0
   -0.5280   15.8080   13.4780 N   0  0  0  0  0  0  0  0  0  0  0  0
   -1.8000   14.7190   15.2210 C   0  0  1  0  0  0  0  0  0  0  0  0
   -1.4350   13.3100   14.7400 C   0  0  0  0  0  0  0  0  0  0  0  0
   -1.5720   12.2940   15.8700 C   0  0  0  0  0  0  0  0  0  0  0  0
   -0.7390   12.6990   17.0780 C   0  0  0  0  0  0  0  0  0  0  0  0
   -0.8340   15.0570   16.3610 C   0  0  0  0  0  0  0  0  0  0  0  0
   -1.0370   14.0930   17.4600 N   0  0  0  0  0  0  0  0  0  0  0  0
   -0.9580   14.5710   19.0170 S   0  0  0  0  0  0  0  0  0  0  0  0
   -1.7110   15.7810   19.1280 O   0  0  0  0  0  0  0  0  0  0  0  0
   -1.3270   13.4500   19.8260 O   0  0  0  0  0  0  0  0  0  0  0  0
    0.7500   14.9630   19.3780 C   0  0  0  0  0  0  0  0  0  0  0  0
    1.6600   13.7610   19.4040 C   0  0  0  0  0  0  0  0  0  0  0  0
    1.6990   12.8610   20.4860 C   0  0  0  0  0  0  0  0  0  0  0  0
    0.9430   13.1300   21.7250 C   0  0  0  0  0  0  0  0  0  0  0  0
   -0.3440   13.1240   21.8470 C   0  0  0  0  0  0  0  0  0  0  0  0
    2.4320   13.4860   18.2760 C   0  0  0  0  0  0  0  0  0  0  0  0
    3.1830   12.3270   18.1890 C   0  0  0  0  0  0  0  0  0  0  0  0
    3.1910   11.4280   19.2330 C   0  0  0  0  0  0  0  0  0  0  0  0
    2.4640   11.6900   20.3800 C   0  0  0  0  0  0  0  0  0  0  0  0
 17 16  2  0
 16 15  1  0
 15 21  2  0
 21 20  1  0
 20 19  2  0
 19 18  1  0
 18 14  2  0
 15 14  1  0
 14 13  1  0
 13 10  1  0
 11 10  2  0
 12 10  2  0
 10  9  1  0
  9  7  1  0
  7  6  1  0
  6  5  1  0
  5  4  1  0
  4  2  1  6
  3  2  1  0
  2  1  2  0
  8  4  1  0
  9  8  1  0
M  END
>  <id>  (605) 
605

>  <inchikey>  (605) 
DIYJWUSVAMGGFW-ZDUSSCGKSA-N

>  <alias>  (605) 
A5359b

>  <smiles>  (605) 
C=Cc1ccccc1CS(=O)(=O)N1CCC[C@H](C(N)=O)C1

>  <path>  (605) 
/opt/xchem-fragalysis-2/maxwin/BulkDock/TARGETS/A71EV2A/aligned_files/A5359b/A5359b.pdb

>  <distance_score>  (605) 
None

>  <energy_score>  (605) 
None

>  <compound>  (605) 
DIYJWUSVAMGGFW-UHFFFAOYSA-N

>  <compound_id>  (605) 
432

>  <target>  (605) 
A71EV2A

>  <tags>  (605) 
['GOOD count', 'MEDIOCRE count', '[Other] S1 site', 'hits', '[Other] upload_3 2025-03-06', '[Other] S2 site', '[Other] P3 compound design', '[Series] Piperidine series', 'Main status', 'BAD count']

>  <inspirations>  (605) 
None

>  <subsites>  (605) 
None

>  <reference>  (605) 


>  <observation_longname>  (605) 
A71EV2A-x5359_A_202_v3

>  <ConformerSites alias>  (605) 
1b - A0911/A/147

>  <CanonSites alias>  (605) 
1 - Active Site

>  <CrystalformSites alias>  (605) 
F8h - A0884/A/147

>  <Quatassemblies alias>  (605) 
A1 - monomer

>  <Crystalforms alias>  (605) 
F8 - A712A_x4271_2.1_refmac1_1st_ref

>  <ConformerSites upload name>  (605) 
1b - A71EV2A-x0911/A/147

>  <CanonSites upload name>  (605) 
1 - A71EV2A-x0911/A/147/1

>  <CrystalformSites upload name>  (605) 
F8h - A71EV2A-x0884/A/147/1

>  <Quatassemblies upload name>  (605) 
A1 - monomer

>  <Crystalforms upload name>  (605) 
F8 - A712A_x4271_2.1_refmac1_1st_ref

>  <ConformerSites short tag>  (605) 
1b - A0911/A/147

>  <CanonSites short tag>  (605) 
1 - A0911/A/147/1

>  <CrystalformSites short tag>  (605) 
F8h - A0884/A/147

>  <Quatassemblies short tag>  (605) 
A1 - monomer

>  <Crystalforms short tag>  (605) 
F8 - A712A_x4271_2.1_refmac1_1st_ref

>  <Centroid res>  (605) 
A71EV2A-x0911/A/133/A_v1

>  <Experiment code>  (605) 
A71EV2A-x5359

>  <Pose>  (605) 
A5359a

$$$$
A5366a
     RDKit          3D

 22 23  0  0  0  0  0  0  0  0999 V2000
   10.5110   16.7930   19.2600 O   0  0  0  0  0  0  0  0  0  0  0  0
   10.8360   15.6180   19.4460 C   0  0  0  0  0  0  0  0  0  0  0  0
   11.0990   14.7790   18.4550 N   0  0  0  0  0  0  0  0  0  0  0  0
   10.8770   15.0250   20.8450 C   0  0  2  0  0  0  0  0  0  0  0  0
    9.5220   15.1790   21.5400 C   0  0  0  0  0  0  0  0  0  0  0  0
   11.9690   15.6800   21.7060 C   0  0  0  0  0  0  0  0  0  0  0  0
   11.9730   15.0930   23.1210 C   0  0  0  0  0  0  0  0  0  0  0  0
   10.6030   15.1790   23.7950 C   0  0  1  0  0  0  0  0  0  0  0  0
   10.2660   16.5860   24.2470 C   0  0  0  0  0  0  0  0  0  0  0  0
    9.5550   14.6390   22.9030 N   0  0  0  0  0  0  0  0  0  0  0  0
    8.6270   13.7350   23.3110 C   0  0  0  0  0  0  0  0  0  0  0  0
    7.7230   13.3760   22.5660 O   0  0  0  0  0  0  0  0  0  0  0  0
    8.7060   13.2140   24.7360 C   0  0  0  0  0  0  0  0  0  0  0  0
    7.7130   12.1050   25.0020 C   0  0  0  0  0  0  0  0  0  0  0  0
    7.9130   10.7760   24.5980 C   0  0  0  0  0  0  0  0  0  0  0  0
    9.2830   10.4770   23.5260 S   0  0  0  0  0  0  0  0  0  0  0  0
    9.3010    8.6840   23.3570 C   0  0  0  0  0  0  0  0  0  0  0  0
    6.6240   12.3930   25.8180 C   0  0  0  0  0  0  0  0  0  0  0  0
    5.7910   11.3770   26.2420 C   0  0  0  0  0  0  0  0  0  0  0  0
    4.3320   11.8090   27.3810 Br  0  0  0  0  0  0  0  0  0  0  0  0
    5.9960   10.0670   25.8730 C   0  0  0  0  0  0  0  0  0  0  0  0
    7.0640    9.7630   25.0470 C   0  0  0  0  0  0  0  0  0  0  0  0
 17 16  1  0
 16 15  1  0
 15 22  2  0
 22 21  1  0
 21 19  2  0
 20 19  1  0
 19 18  1  0
 18 14  2  0
 15 14  1  0
 14 13  1  0
 13 11  1  0
 12 11  2  0
 11 10  1  0
 10  5  1  0
  5  4  1  0
  4  2  1  6
  3  2  1  0
  2  1  2  0
  6  4  1  0
  7  6  1  0
  8  7  1  0
 10  8  1  0
  8  9  1  6
M  END
>  <id>  (606) 
606

>  <inchikey>  (606) 
FMBXRAUPCZLXGY-MNOVXSKESA-N

>  <alias>  (606) 
A5366a

>  <smiles>  (606) 
CSc1ccc(Br)cc1CC(=O)N1C[C@@H](C(N)=O)CC[C@H]1C

>  <path>  (606) 
/opt/xchem-fragalysis-2/maxwin/BulkDock/TARGETS/A71EV2A/aligned_files/A5366a/A5366a_hippo.pdb

>  <distance_score>  (606) 
None

>  <energy_score>  (606) 
None

>  <compound>  (606) 
FMBXRAUPCZLXGY-UHFFFAOYSA-N

>  <compound_id>  (606) 
423

>  <target>  (606) 
A71EV2A

>  <tags>  (606) 
['GOOD count', 'MEDIOCRE count', '[Other] S1 site', 'hits', '[Other] S2 site', '[Other] P3 compound design', '[Series] Piperidine series', 'Main status', '[Other] upload_2 2025-02-28', 'BAD count']

>  <inspirations>  (606) 
None

>  <subsites>  (606) 
None

>  <reference>  (606) 


>  <observation_longname>  (606) 
A71EV2A-x5366_A_201_v2

>  <ConformerSites alias>  (606) 
1b - A0911/A/147

>  <CanonSites alias>  (606) 
1 - Active Site

>  <CrystalformSites alias>  (606) 
F7q - A4303/A/201

>  <Quatassemblies alias>  (606) 
A1 - monomer

>  <Crystalforms alias>  (606) 
F7 - A712A_x4207_8.1_refmac1_1st_ref

>  <ConformerSites upload name>  (606) 
1b - A71EV2A-x0911/A/147

>  <CanonSites upload name>  (606) 
1 - A71EV2A-x0911/A/147/1

>  <CrystalformSites upload name>  (606) 
F7q - A71EV2A-x4303/A/201/1

>  <Quatassemblies upload name>  (606) 
A1 - monomer

>  <Crystalforms upload name>  (606) 
F7 - A712A_x4207_8.1_refmac1_1st_ref

>  <ConformerSites short tag>  (606) 
1b - A0911/A/147

>  <CanonSites short tag>  (606) 
1 - A0911/A/147/1

>  <CrystalformSites short tag>  (606) 
F7q - A4303/A/201

>  <Quatassemblies short tag>  (606) 
A1 - monomer

>  <Crystalforms short tag>  (606) 
F7 - A712A_x4207_8.1_refmac1_1st_ref

>  <Centroid res>  (606) 
A71EV2A-x0911/A/133/A_v1

>  <Experiment code>  (606) 
A71EV2A-x5366

>  <Pose>  (606) 
A5366a

$$$$
A5366b
     RDKit          3D

 22 23  0  0  0  0  0  0  0  0999 V2000
   10.4120   16.7620   19.2360 O   0  0  0  0  0  0  0  0  0  0  0  0
   10.7860   15.5980   19.4130 C   0  0  0  0  0  0  0  0  0  0  0  0
   11.0030   14.7490   18.4200 N   0  0  0  0  0  0  0  0  0  0  0  0
   10.9200   15.0240   20.8120 C   0  0  2  0  0  0  0  0  0  0  0  0
    9.5970   15.1570   21.5740 C   0  0  0  0  0  0  0  0  0  0  0  0
   12.0410   15.7210   21.6030 C   0  0  0  0  0  0  0  0  0  0  0  0
   12.1360   15.1500   23.0240 C   0  0  0  0  0  0  0  0  0  0  0  0
   10.8010   15.1950   23.7640 C   0  0  1  0  0  0  0  0  0  0  0  0
   10.4500   16.5930   24.2410 C   0  0  0  0  0  0  0  0  0  0  0  0
    9.7190   14.6240   22.9330 N   0  0  0  0  0  0  0  0  0  0  0  0
    8.8300   13.6930   23.3920 C   0  0  0  0  0  0  0  0  0  0  0  0
    7.8780   13.3240   22.7120 O   0  0  0  0  0  0  0  0  0  0  0  0
    9.0100   13.1680   24.8070 C   0  0  0  0  0  0  0  0  0  0  0  0
    8.0610   12.0350   25.1290 C   0  0  0  0  0  0  0  0  0  0  0  0
    8.2640   10.7160   24.6940 C   0  0  0  0  0  0  0  0  0  0  0  0
    9.5750   10.4530   23.5360 S   0  0  0  0  0  0  0  0  0  0  0  0
    9.6450    8.6690   23.3730 C   0  0  0  0  0  0  0  0  0  0  0  0
    7.0120   12.2950   26.0110 C   0  0  0  0  0  0  0  0  0  0  0  0
    6.2170   11.2630   26.4680 C   0  0  0  0  0  0  0  0  0  0  0  0
    4.7920   11.6610   27.6710 Br  0  0  0  0  0  0  0  0  0  0  0  0
    6.4240    9.9610   26.0660 C   0  0  0  0  0  0  0  0  0  0  0  0
    7.4520    9.6860   25.1730 C   0  0  0  0  0  0  0  0  0  0  0  0
 17 16  1  0
 16 15  1  0
 15 22  2  0
 22 21  1  0
 21 19  2  0
 20 19  1  0
 19 18  1  0
 18 14  2  0
 15 14  1  0
 14 13  1  0
 13 11  1  0
 12 11  2  0
 11 10  1  0
 10  5  1  0
  5  4  1  0
  4  2  1  6
  3  2  1  0
  2  1  2  0
  6  4  1  0
  7  6  1  0
  8  7  1  0
 10  8  1  0
  8  9  1  6
M  END
>  <id>  (607) 
607

>  <inchikey>  (607) 
FMBXRAUPCZLXGY-MNOVXSKESA-N

>  <alias>  (607) 
A5366b

>  <smiles>  (607) 
CSc1ccc(Br)cc1CC(=O)N1C[C@@H](C(N)=O)CC[C@H]1C

>  <path>  (607) 
/opt/xchem-fragalysis-2/maxwin/BulkDock/TARGETS/A71EV2A/aligned_files/A5366b/A5366b_hippo.pdb

>  <distance_score>  (607) 
None

>  <energy_score>  (607) 
None

>  <compound>  (607) 
FMBXRAUPCZLXGY-UHFFFAOYSA-N

>  <compound_id>  (607) 
423

>  <target>  (607) 
A71EV2A

>  <tags>  (607) 
['GOOD count', 'MEDIOCRE count', '[Other] S1 site', 'hits', '[Other] S2 site', '[Other] P3 compound design', '[Series] Piperidine series', 'Main status', '[Other] upload_2 2025-02-28', 'BAD count']

>  <inspirations>  (607) 
None

>  <subsites>  (607) 
None

>  <reference>  (607) 


>  <observation_longname>  (607) 
A71EV2A-x5366_C_201_v2

>  <ConformerSites alias>  (607) 
1b - A0911/A/147

>  <CanonSites alias>  (607) 
1 - Active Site

>  <CrystalformSites alias>  (607) 
F7r - A4303/C/201

>  <Quatassemblies alias>  (607) 
A1 - monomer

>  <Crystalforms alias>  (607) 
F7 - A712A_x4207_8.1_refmac1_1st_ref

>  <ConformerSites upload name>  (607) 
1b - A71EV2A-x0911/A/147

>  <CanonSites upload name>  (607) 
1 - A71EV2A-x0911/A/147/1

>  <CrystalformSites upload name>  (607) 
F7r - A71EV2A-x4303/C/201/1

>  <Quatassemblies upload name>  (607) 
A1 - monomer

>  <Crystalforms upload name>  (607) 
F7 - A712A_x4207_8.1_refmac1_1st_ref

>  <ConformerSites short tag>  (607) 
1b - A0911/A/147

>  <CanonSites short tag>  (607) 
1 - A0911/A/147/1

>  <CrystalformSites short tag>  (607) 
F7r - A4303/C/201

>  <Quatassemblies short tag>  (607) 
A1 - monomer

>  <Crystalforms short tag>  (607) 
F7 - A712A_x4207_8.1_refmac1_1st_ref

>  <Centroid res>  (607) 
A71EV2A-x0911/A/133/A_v1

>  <Experiment code>  (607) 
A71EV2A-x5366

>  <Pose>  (607) 
A5366a

$$$$
A5383a
     RDKit          3D

 23 24  0  0  0  0  0  0  0  0999 V2000
   10.3390   16.3990   19.3220 O   0  0  0  0  0  0  0  0  0  0  0  0
   10.8730   15.2880   19.4430 C   0  0  0  0  0  0  0  0  0  0  0  0
   11.1570   14.5120   18.4100 N   0  0  0  0  0  0  0  0  0  0  0  0
   11.1610   14.7010   20.8150 C   0  0  1  0  0  0  0  0  0  0  0  0
   11.9670   15.6150   21.7550 C   0  0  0  0  0  0  0  0  0  0  0  0
   11.6900   15.0290   23.1330 C   0  0  0  0  0  0  0  0  0  0  0  0
    9.8670   14.5010   21.6030 C   0  0  0  0  0  0  0  0  0  0  0  0
   10.3190   14.5210   23.0020 N   0  0  0  0  0  0  0  0  0  0  0  0
    9.5480   14.1120   24.0330 C   0  0  0  0  0  0  0  0  0  0  0  0
    9.9450   14.1610   25.1850 O   0  0  0  0  0  0  0  0  0  0  0  0
    8.0970   13.5890   23.7160 C   0  0  2  0  0  0  0  0  0  0  0  0
    7.1270   14.6650   23.5500 N   0  0  0  0  0  0  0  0  0  0  0  0
    6.2810   14.6920   22.5110 C   0  0  0  0  0  0  0  0  0  0  0  0
    6.2150   13.7690   21.6990 O   0  0  0  0  0  0  0  0  0  0  0  0
    5.4250   15.9280   22.3910 C   0  0  0  0  0  0  0  0  0  0  0  0
    7.6490   12.5340   24.7180 C   0  0  0  0  0  0  0  0  0  0  0  0
    7.9750   11.1820   24.5450 C   0  0  0  0  0  0  0  0  0  0  0  0
    9.2420   10.8010   23.3730 S   0  0  0  0  0  0  0  0  0  0  0  0
    9.3070    8.9930   23.3910 C   0  0  0  0  0  0  0  0  0  0  0  0
    6.7620   12.8760   25.7370 C   0  0  0  0  0  0  0  0  0  0  0  0
    6.1590   11.9020   26.5140 C   0  0  0  0  0  0  0  0  0  0  0  0
    6.4620   10.5690   26.3120 C   0  0  0  0  0  0  0  0  0  0  0  0
    7.3690   10.2050   25.3310 C   0  0  0  0  0  0  0  0  0  0  0  0
 19 18  1  0
 18 17  1  0
 17 23  2  0
 23 22  1  0
 22 21  2  0
 21 20  1  0
 20 16  2  0
 17 16  1  0
 16 11  1  0
 11 12  1  1
 13 12  1  0
 15 13  1  0
 14 13  2  0
 11  9  1  0
 10  9  2  0
  9  8  1  0
  8  6  1  0
  6  5  1  0
  5  4  1  0
  4  2  1  6
  3  2  1  0
  2  1  2  0
  7  4  1  0
  8  7  1  0
M  END
>  <id>  (608) 
608

>  <inchikey>  (608) 
NPSHEBGBMYLMNG-SMDDNHRTSA-N

>  <alias>  (608) 
A5383a

>  <smiles>  (608) 
CSc1ccccc1[C@@H](NC(C)=O)C(=O)N1CC[C@H](C(N)=O)C1

>  <path>  (608) 
/opt/xchem-fragalysis-2/maxwin/BulkDock/TARGETS/A71EV2A/aligned_files/A5383a/A5383a.pdb

>  <distance_score>  (608) 
None

>  <energy_score>  (608) 
None

>  <compound>  (608) 
NPSHEBGBMYLMNG-UHFFFAOYSA-N

>  <compound_id>  (608) 
433

>  <target>  (608) 
A71EV2A

>  <tags>  (608) 
['GOOD count', 'MEDIOCRE count', '[Other] S1 site', 'hits', '[Other] S2 site', '[Other] P3 compound design', '[Series] Piperidine series', 'Main status', 'BAD count', '[Other] upload_5 2025-04-10']

>  <inspirations>  (608) 
None

>  <subsites>  (608) 
None

>  <reference>  (608) 


>  <observation_longname>  (608) 
A71EV2A-x5383_A_201_v5

>  <ConformerSites alias>  (608) 
1b - A0911/A/147

>  <CanonSites alias>  (608) 
1 - Active Site

>  <CrystalformSites alias>  (608) 
F1a - A0375/A/201

>  <Quatassemblies alias>  (608) 
A1 - monomer

>  <Crystalforms alias>  (608) 
F1 - A71_2A_open

>  <ConformerSites upload name>  (608) 
1b - A71EV2A-x0911/A/147

>  <CanonSites upload name>  (608) 
1 - A71EV2A-x0911/A/147/1

>  <CrystalformSites upload name>  (608) 
F1a - A71EV2A-x0375/A/201/1

>  <Quatassemblies upload name>  (608) 
A1 - monomer

>  <Crystalforms upload name>  (608) 
F1 - A71_2A_open

>  <ConformerSites short tag>  (608) 
1b - A0911/A/147

>  <CanonSites short tag>  (608) 
1 - A0911/A/147/1

>  <CrystalformSites short tag>  (608) 
F1a - A0375/A/201

>  <Quatassemblies short tag>  (608) 
A1 - monomer

>  <Crystalforms short tag>  (608) 
F1 - A71_2A_open

>  <Centroid res>  (608) 
A71EV2A-x0911/A/133/A_v1

>  <Experiment code>  (608) 
A71EV2A-x5383

>  <Pose>  (608) 
A5383a

$$$$
A5388a
     RDKit          3D

 21 22  0  0  0  0  0  0  0  0999 V2000
   10.1960   16.3170   19.3060 O   0  0  0  0  0  0  0  0  0  0  0  0
   10.9660   15.3720   19.4710 C   0  0  0  0  0  0  0  0  0  0  0  0
   11.4960   14.7090   18.4510 N   0  0  0  0  0  0  0  0  0  0  0  0
   11.3050   14.8660   20.8930 C   0  0  1  0  0  0  0  0  0  0  0  0
   12.1650   13.7260   20.8440 O   0  0  0  0  0  0  0  0  0  0  0  0
   11.9190   15.8920   21.8500 C   0  0  0  0  0  0  0  0  0  0  0  0
   11.6550   15.3030   23.2350 C   0  0  0  0  0  0  0  0  0  0  0  0
   10.0230   14.4950   21.6350 C   0  0  0  0  0  0  0  0  0  0  0  0
   10.3750   14.6070   23.0530 N   0  0  0  0  0  0  0  0  0  0  0  0
    9.5990   14.2120   24.0840 C   0  0  0  0  0  0  0  0  0  0  0  0
    9.9790   14.2790   25.2430 O   0  0  0  0  0  0  0  0  0  0  0  0
    8.1970   13.7330   23.7470 C   0  0  0  0  0  0  0  0  0  0  0  0
    7.7320   12.5920   24.6250 C   0  0  0  0  0  0  0  0  0  0  0  0
    8.1220   11.2600   24.4170 C   0  0  0  0  0  0  0  0  0  0  0  0
    9.3840   10.9570   23.2150 S   0  0  0  0  0  0  0  0  0  0  0  0
    9.4790    9.1540   23.1490 C   0  0  0  0  0  0  0  0  0  0  0  0
    6.7760   12.8600   25.6070 C   0  0  0  0  0  0  0  0  0  0  0  0
    6.1930   11.8220   26.3070 C   0  0  0  0  0  0  0  0  0  0  0  0
    4.8130   12.2070   27.5580 Br  0  0  0  0  0  0  0  0  0  0  0  0
    6.5550   10.5120   26.0920 C   0  0  0  0  0  0  0  0  0  0  0  0
    7.5280   10.2310   25.1480 C   0  0  0  0  0  0  0  0  0  0  0  0
 16 15  1  0
 15 14  1  0
 14 21  2  0
 21 20  1  0
 20 18  2  0
 19 18  1  0
 18 17  1  0
 17 13  2  0
 14 13  1  0
 13 12  1  0
 12 10  1  0
 11 10  2  0
 10  9  1  0
  9  7  1  0
  7  6  1  0
  6  4  1  0
  4  5  1  6
  4  2  1  0
  3  2  1  0
  2  1  2  0
  8  4  1  0
  9  8  1  0
M  END
>  <id>  (609) 
609

>  <inchikey>  (609) 
YQWOXKTZBWAQJN-CQSZACIVSA-N

>  <alias>  (609) 
A5388a

>  <smiles>  (609) 
CSc1ccc(Br)cc1CC(=O)N1CC[C@](O)(C(N)=O)C1

>  <path>  (609) 
/opt/xchem-fragalysis-2/maxwin/BulkDock/TARGETS/A71EV2A/aligned_files/A5388a/A5388a.pdb

>  <distance_score>  (609) 
None

>  <energy_score>  (609) 
None

>  <compound>  (609) 
YQWOXKTZBWAQJN-UHFFFAOYSA-N

>  <compound_id>  (609) 
434

>  <target>  (609) 
A71EV2A

>  <tags>  (609) 
['GOOD count', 'MEDIOCRE count', '[Other] S1 site', 'hits', '[Other] S2 site', '[Other] P3 compound design', '[Series] Piperidine series', 'Main status', 'BAD count', '[Other] upload_5 2025-04-10']

>  <inspirations>  (609) 
None

>  <subsites>  (609) 
None

>  <reference>  (609) 


>  <observation_longname>  (609) 
A71EV2A-x5388_A_201_v5

>  <ConformerSites alias>  (609) 
1b - A0911/A/147

>  <CanonSites alias>  (609) 
1 - Active Site

>  <CrystalformSites alias>  (609) 
F1a - A0375/A/201

>  <Quatassemblies alias>  (609) 
A1 - monomer

>  <Crystalforms alias>  (609) 
F1 - A71_2A_open

>  <ConformerSites upload name>  (609) 
1b - A71EV2A-x0911/A/147

>  <CanonSites upload name>  (609) 
1 - A71EV2A-x0911/A/147/1

>  <CrystalformSites upload name>  (609) 
F1a - A71EV2A-x0375/A/201/1

>  <Quatassemblies upload name>  (609) 
A1 - monomer

>  <Crystalforms upload name>  (609) 
F1 - A71_2A_open

>  <ConformerSites short tag>  (609) 
1b - A0911/A/147

>  <CanonSites short tag>  (609) 
1 - A0911/A/147/1

>  <CrystalformSites short tag>  (609) 
F1a - A0375/A/201

>  <Quatassemblies short tag>  (609) 
A1 - monomer

>  <Crystalforms short tag>  (609) 
F1 - A71_2A_open

>  <Centroid res>  (609) 
A71EV2A-x0911/A/133/A_v1

>  <Experiment code>  (609) 
A71EV2A-x5388

>  <Pose>  (609) 
A5388a

$$$$
A5389a
     RDKit          3D

 23 25  0  0  0  0  0  0  0  0999 V2000
   10.2990   16.6110   19.2070 O   0  0  0  0  0  0  0  0  0  0  0  0
   10.6550   15.4550   19.4500 C   0  0  0  0  0  0  0  0  0  0  0  0
   11.1600   14.6500   18.5240 N   0  0  0  0  0  0  0  0  0  0  0  0
   10.5440   14.8780   20.8520 C   0  0  1  0  0  0  0  0  0  0  0  0
   11.7540   15.2720   21.7120 C   0  0  0  0  0  0  0  0  0  0  0  0
   11.6800   14.6210   23.0970 C   0  0  0  0  0  0  0  0  0  0  0  0
   10.3630   14.9340   23.7840 C   0  0  0  0  0  0  0  0  0  0  0  0
    9.2740   15.3090   21.6030 C   0  0  0  0  0  0  0  0  0  0  0  0
    9.2060   14.6530   22.9180 N   0  0  0  0  0  0  0  0  0  0  0  0
    8.1330   13.8400   23.1740 C   0  0  0  0  0  0  0  0  0  0  0  0
    7.4130   13.4070   22.2930 O   0  0  0  0  0  0  0  0  0  0  0  0
    7.8050   13.6270   24.5170 N   0  0  0  0  0  0  0  0  0  0  0  0
    7.3340   12.3750   24.9700 C   0  0  0  0  0  0  0  0  0  0  0  0
    7.9320   11.1880   24.5260 C   0  0  0  0  0  0  0  0  0  0  0  0
    9.0190   11.3380   23.7060 O   0  0  0  0  0  0  0  0  0  0  0  0
    9.5990   10.1560   23.1450 C   0  0  0  0  0  0  0  0  0  0  0  0
    7.6830   14.7690   25.4390 C   0  0  0  0  0  0  0  0  0  0  0  0
    6.2320   15.0910   25.6960 C   0  0  0  0  0  0  0  0  0  0  0  0
    5.3620   13.7050   26.4620 S   0  0  0  0  0  0  0  0  0  0  0  0
    6.2130   12.3050   25.8100 C   0  0  0  0  0  0  0  0  0  0  0  0
    5.6900   11.0710   26.1880 C   0  0  0  0  0  0  0  0  0  0  0  0
    6.2870    9.9100   25.7320 C   0  0  0  0  0  0  0  0  0  0  0  0
    7.4050    9.9630   24.9160 C   0  0  0  0  0  0  0  0  0  0  0  0
 16 15  1  0
 15 14  1  0
 14 23  2  0
 23 22  1  0
 22 21  2  0
 21 20  1  0
 20 13  2  0
 14 13  1  0
 13 12  1  0
 12 10  1  0
 11 10  2  0
 10  9  1  0
  9  7  1  0
  7  6  1  0
  6  5  1  0
  5  4  1  0
  4  2  1  6
  3  2  1  0
  2  1  2  0
  8  4  1  0
  9  8  1  0
 17 12  1  0
 18 17  1  0
 19 18  1  0
 20 19  1  0
M  END
>  <id>  (610) 
610

>  <inchikey>  (610) 
MVPFLLDRDRSGEN-NSHDSACASA-N

>  <alias>  (610) 
A5389a

>  <smiles>  (610) 
COc1cccc2c1N(C(=O)N1CCC[C@H](C(N)=O)C1)CCS2

>  <path>  (610) 
/opt/xchem-fragalysis-2/maxwin/BulkDock/TARGETS/A71EV2A/aligned_files/A5389a/A5389a.pdb

>  <distance_score>  (610) 
None

>  <energy_score>  (610) 
None

>  <compound>  (610) 
MVPFLLDRDRSGEN-UHFFFAOYSA-N

>  <compound_id>  (610) 
435

>  <target>  (610) 
A71EV2A

>  <tags>  (610) 
['GOOD count', 'MEDIOCRE count', '[Other] S1 site', 'hits', '[Other] S2 site', '[Other] P3 compound design', '[Series] Piperidine series', 'Main status', 'BAD count', '[Other] upload_5 2025-04-10']

>  <inspirations>  (610) 
None

>  <subsites>  (610) 
None

>  <reference>  (610) 


>  <observation_longname>  (610) 
A71EV2A-x5389_A_201_v5

>  <ConformerSites alias>  (610) 
1b - A0911/A/147

>  <CanonSites alias>  (610) 
1 - Active Site

>  <CrystalformSites alias>  (610) 
F1a - A0375/A/201

>  <Quatassemblies alias>  (610) 
A1 - monomer

>  <Crystalforms alias>  (610) 
F1 - A71_2A_open

>  <ConformerSites upload name>  (610) 
1b - A71EV2A-x0911/A/147

>  <CanonSites upload name>  (610) 
1 - A71EV2A-x0911/A/147/1

>  <CrystalformSites upload name>  (610) 
F1a - A71EV2A-x0375/A/201/1

>  <Quatassemblies upload name>  (610) 
A1 - monomer

>  <Crystalforms upload name>  (610) 
F1 - A71_2A_open

>  <ConformerSites short tag>  (610) 
1b - A0911/A/147

>  <CanonSites short tag>  (610) 
1 - A0911/A/147/1

>  <CrystalformSites short tag>  (610) 
F1a - A0375/A/201

>  <Quatassemblies short tag>  (610) 
A1 - monomer

>  <Crystalforms short tag>  (610) 
F1 - A71_2A_open

>  <Centroid res>  (610) 
A71EV2A-x0911/A/133/A_v1

>  <Experiment code>  (610) 
A71EV2A-x5389

>  <Pose>  (610) 
A5389a

$$$$
A5393a
     RDKit          3D

 19 20  0  0  0  0  0  0  0  0999 V2000
   10.4960   16.8020   19.1710 O   0  0  0  0  0  0  0  0  0  0  0  0
   10.7740   15.6260   19.4270 C   0  0  0  0  0  0  0  0  0  0  0  0
   11.0450   14.7320   18.4910 N   0  0  0  0  0  0  0  0  0  0  0  0
   10.8300   15.1250   20.8600 C   0  0  1  0  0  0  0  0  0  0  0  0
   11.8950   15.8810   21.6720 C   0  0  0  0  0  0  0  0  0  0  0  0
   12.0120   15.3130   23.0940 C   0  0  0  0  0  0  0  0  0  0  0  0
   10.6640   15.3310   23.7950 C   0  0  0  0  0  0  0  0  0  0  0  0
    9.5030   15.2790   21.6150 C   0  0  0  0  0  0  0  0  0  0  0  0
    9.6230   14.7060   22.9610 N   0  0  0  0  0  0  0  0  0  0  0  0
    8.8210   13.6900   23.3560 C   0  0  0  0  0  0  0  0  0  0  0  0
    7.8870   13.3000   22.6720 O   0  0  0  0  0  0  0  0  0  0  0  0
    9.1360   13.0480   24.6970 C   0  0  0  0  0  0  0  0  0  0  0  0
    8.1330   11.9870   25.1030 C   0  0  0  0  0  0  0  0  0  0  0  0
    8.2370   10.6610   24.6480 C   0  0  0  0  0  0  0  0  0  0  0  0
    9.3660   10.2040   23.7560 C   0  0  0  0  0  0  0  0  0  0  0  0
    7.1060   12.3320   25.9820 C   0  0  0  0  0  0  0  0  0  0  0  0
    6.1870   11.3850   26.4080 C   0  0  0  0  0  0  0  0  0  0  0  0
    6.2770   10.0890   25.9530 C   0  0  0  0  0  0  0  0  0  0  0  0
    7.2890    9.7320   25.0790 C   0  0  0  0  0  0  0  0  0  0  0  0
 15 14  1  0
 14 19  2  0
 19 18  1  0
 18 17  2  0
 17 16  1  0
 16 13  2  0
 14 13  1  0
 13 12  1  0
 12 10  1  0
 11 10  2  0
 10  9  1  0
  9  7  1  0
  7  6  1  0
  6  5  1  0
  5  4  1  0
  4  2  1  6
  3  2  1  0
  2  1  2  0
  8  4  1  0
  9  8  1  0
M  END
>  <id>  (611) 
611

>  <inchikey>  (611) 
IFQADJNPEGLONQ-ZDUSSCGKSA-N

>  <alias>  (611) 
A5393a

>  <smiles>  (611) 
Cc1ccccc1CC(=O)N1CCC[C@H](C(N)=O)C1

>  <path>  (611) 
/opt/xchem-fragalysis-2/maxwin/BulkDock/TARGETS/A71EV2A/aligned_files/A5393a/A5393a.pdb

>  <distance_score>  (611) 
None

>  <energy_score>  (611) 
None

>  <compound>  (611) 
IFQADJNPEGLONQ-UHFFFAOYSA-N

>  <compound_id>  (611) 
436

>  <target>  (611) 
A71EV2A

>  <tags>  (611) 
['GOOD count', 'MEDIOCRE count', '[Other] S1 site', 'hits', '[Other] S2 site', '[Other] P3 compound design', '[Series] Piperidine series', 'Main status', 'BAD count', '[Other] upload_5 2025-04-10']

>  <inspirations>  (611) 
None

>  <subsites>  (611) 
None

>  <reference>  (611) 


>  <observation_longname>  (611) 
A71EV2A-x5393_A_201_v5

>  <ConformerSites alias>  (611) 
1b - A0911/A/147

>  <CanonSites alias>  (611) 
1 - Active Site

>  <CrystalformSites alias>  (611) 
F8h - A0884/A/147

>  <Quatassemblies alias>  (611) 
A1 - monomer

>  <Crystalforms alias>  (611) 
F8 - A712A_x4271_2.1_refmac1_1st_ref

>  <ConformerSites upload name>  (611) 
1b - A71EV2A-x0911/A/147

>  <CanonSites upload name>  (611) 
1 - A71EV2A-x0911/A/147/1

>  <CrystalformSites upload name>  (611) 
F8h - A71EV2A-x0884/A/147/1

>  <Quatassemblies upload name>  (611) 
A1 - monomer

>  <Crystalforms upload name>  (611) 
F8 - A712A_x4271_2.1_refmac1_1st_ref

>  <ConformerSites short tag>  (611) 
1b - A0911/A/147

>  <CanonSites short tag>  (611) 
1 - A0911/A/147/1

>  <CrystalformSites short tag>  (611) 
F8h - A0884/A/147

>  <Quatassemblies short tag>  (611) 
A1 - monomer

>  <Crystalforms short tag>  (611) 
F8 - A712A_x4271_2.1_refmac1_1st_ref

>  <Centroid res>  (611) 
A71EV2A-x0911/A/133/A_v1

>  <Experiment code>  (611) 
A71EV2A-x5393

>  <Pose>  (611) 
A5393a

$$$$
A5394a
     RDKit          3D

 19 20  0  0  0  0  0  0  0  0999 V2000
    9.4040   10.5260   23.4550 Cl  0  0  0  0  0  0  0  0  0  0  0  0
    8.0460   10.8120   24.5030 C   0  0  0  0  0  0  0  0  0  0  0  0
    7.2770    9.7290   24.8860 C   0  0  0  0  0  0  0  0  0  0  0  0
    6.2100    9.9270   25.7460 C   0  0  0  0  0  0  0  0  0  0  0  0
    5.9270   11.1900   26.2150 C   0  0  0  0  0  0  0  0  0  0  0  0
    6.7030   12.2690   25.8210 C   0  0  0  0  0  0  0  0  0  0  0  0
    7.7860   12.1010   24.9600 C   0  0  0  0  0  0  0  0  0  0  0  0
    8.7000   13.2650   24.6590 C   0  0  0  0  0  0  0  0  0  0  0  0
    8.5210   13.8110   23.2550 C   0  0  0  0  0  0  0  0  0  0  0  0
    7.6310   13.3990   22.5160 O   0  0  0  0  0  0  0  0  0  0  0  0
    9.3790   14.7860   22.8740 N   0  0  0  0  0  0  0  0  0  0  0  0
   10.4260   15.3660   23.7310 C   0  0  0  0  0  0  0  0  0  0  0  0
   11.8030   15.1880   23.1130 C   0  0  0  0  0  0  0  0  0  0  0  0
   11.8190   15.7140   21.6650 C   0  0  0  0  0  0  0  0  0  0  0  0
    9.3480   15.3010   21.5040 C   0  0  0  0  0  0  0  0  0  0  0  0
   10.7010   15.0620   20.8240 C   0  0  1  0  0  0  0  0  0  0  0  0
   10.7010   15.5650   19.3900 C   0  0  0  0  0  0  0  0  0  0  0  0
   10.3950   16.7320   19.1220 O   0  0  0  0  0  0  0  0  0  0  0  0
   11.0140   14.6690   18.4590 N   0  0  0  0  0  0  0  0  0  0  0  0
 19 17  1  0
 18 17  2  0
 16 17  1  6
 16 14  1  0
 14 13  1  0
 13 12  1  0
 12 11  1  0
 11  9  1  0
 10  9  2  0
  9  8  1  0
  8  7  1  0
  7  6  2  0
  6  5  1  0
  5  4  2  0
  4  3  1  0
  3  2  2  0
  7  2  1  0
  2  1  1  0
 15 11  1  0
 16 15  1  0
M  END
>  <id>  (612) 
612

>  <inchikey>  (612) 
BMLBKIFPNQZKDQ-NSHDSACASA-N

>  <alias>  (612) 
A5394a

>  <smiles>  (612) 
NC(=O)[C@H]1CCCN(C(=O)Cc2ccccc2Cl)C1

>  <path>  (612) 
/opt/xchem-fragalysis-2/maxwin/BulkDock/TARGETS/A71EV2A/aligned_files/A5394a/A5394a_hippo.pdb

>  <distance_score>  (612) 
None

>  <energy_score>  (612) 
None

>  <compound>  (612) 
BMLBKIFPNQZKDQ-UHFFFAOYSA-N

>  <compound_id>  (612) 
437

>  <target>  (612) 
A71EV2A

>  <tags>  (612) 
['GOOD count', 'MEDIOCRE count', '[Other] S1 site', 'hits', '[Other] S2 site', '[Other] P3 compound design', '[Series] Piperidine series', 'Main status', 'BAD count', '[Other] upload_5 2025-04-10']

>  <inspirations>  (612) 
None

>  <subsites>  (612) 
None

>  <reference>  (612) 


>  <observation_longname>  (612) 
A71EV2A-x5394_A_201_v5

>  <ConformerSites alias>  (612) 
1b - A0911/A/147

>  <CanonSites alias>  (612) 
1 - Active Site

>  <CrystalformSites alias>  (612) 
F7q - A4303/A/201

>  <Quatassemblies alias>  (612) 
A1 - monomer

>  <Crystalforms alias>  (612) 
F7 - A712A_x4207_8.1_refmac1_1st_ref

>  <ConformerSites upload name>  (612) 
1b - A71EV2A-x0911/A/147

>  <CanonSites upload name>  (612) 
1 - A71EV2A-x0911/A/147/1

>  <CrystalformSites upload name>  (612) 
F7q - A71EV2A-x4303/A/201/1

>  <Quatassemblies upload name>  (612) 
A1 - monomer

>  <Crystalforms upload name>  (612) 
F7 - A712A_x4207_8.1_refmac1_1st_ref

>  <ConformerSites short tag>  (612) 
1b - A0911/A/147

>  <CanonSites short tag>  (612) 
1 - A0911/A/147/1

>  <CrystalformSites short tag>  (612) 
F7q - A4303/A/201

>  <Quatassemblies short tag>  (612) 
A1 - monomer

>  <Crystalforms short tag>  (612) 
F7 - A712A_x4207_8.1_refmac1_1st_ref

>  <Centroid res>  (612) 
A71EV2A-x0911/A/133/A_v1

>  <Experiment code>  (612) 
A71EV2A-x5394

>  <Pose>  (612) 
A5394a

$$$$
A5394b
     RDKit          3D

 19 20  0  0  0  0  0  0  0  0999 V2000
    9.7150   10.4790   23.5060 Cl  0  0  0  0  0  0  0  0  0  0  0  0
    8.4080   10.7620   24.6110 C   0  0  0  0  0  0  0  0  0  0  0  0
    7.6370    9.6780   24.9970 C   0  0  0  0  0  0  0  0  0  0  0  0
    6.6060    9.8710   25.9000 C   0  0  0  0  0  0  0  0  0  0  0  0
    6.3570   11.1250   26.4020 C   0  0  0  0  0  0  0  0  0  0  0  0
    7.1330   12.2000   26.0080 C   0  0  0  0  0  0  0  0  0  0  0  0
    8.1820   12.0430   25.1030 C   0  0  0  0  0  0  0  0  0  0  0  0
    9.0800   13.2160   24.7650 C   0  0  0  0  0  0  0  0  0  0  0  0
    8.8290   13.7540   23.3660 C   0  0  0  0  0  0  0  0  0  0  0  0
    7.9350   13.2990   22.6620 O   0  0  0  0  0  0  0  0  0  0  0  0
    9.6400   14.7520   22.9400 N   0  0  0  0  0  0  0  0  0  0  0  0
   10.6860   15.4020   23.7500 C   0  0  0  0  0  0  0  0  0  0  0  0
   12.0460   15.2600   23.0790 C   0  0  0  0  0  0  0  0  0  0  0  0
   11.9910   15.7470   21.6150 C   0  0  0  0  0  0  0  0  0  0  0  0
    9.5370   15.2540   21.5680 C   0  0  0  0  0  0  0  0  0  0  0  0
   10.8630   15.0420   20.8340 C   0  0  1  0  0  0  0  0  0  0  0  0
   10.7780   15.5540   19.4060 C   0  0  0  0  0  0  0  0  0  0  0  0
   10.4230   16.7170   19.1640 O   0  0  0  0  0  0  0  0  0  0  0  0
   11.0690   14.6710   18.4570 N   0  0  0  0  0  0  0  0  0  0  0  0
 19 17  1  0
 18 17  2  0
 16 17  1  6
 16 14  1  0
 14 13  1  0
 13 12  1  0
 12 11  1  0
 11  9  1  0
 10  9  2  0
  9  8  1  0
  8  7  1  0
  7  6  2  0
  6  5  1  0
  5  4  2  0
  4  3  1  0
  3  2  2  0
  7  2  1  0
  2  1  1  0
 15 11  1  0
 16 15  1  0
M  END
>  <id>  (613) 
613

>  <inchikey>  (613) 
BMLBKIFPNQZKDQ-NSHDSACASA-N

>  <alias>  (613) 
A5394b

>  <smiles>  (613) 
NC(=O)[C@H]1CCCN(C(=O)Cc2ccccc2Cl)C1

>  <path>  (613) 
/opt/xchem-fragalysis-2/maxwin/BulkDock/TARGETS/A71EV2A/aligned_files/A5394b/A5394b_hippo.pdb

>  <distance_score>  (613) 
None

>  <energy_score>  (613) 
None

>  <compound>  (613) 
BMLBKIFPNQZKDQ-UHFFFAOYSA-N

>  <compound_id>  (613) 
437

>  <target>  (613) 
A71EV2A

>  <tags>  (613) 
['GOOD count', 'MEDIOCRE count', '[Other] S1 site', 'hits', '[Other] S2 site', '[Other] P3 compound design', '[Series] Piperidine series', 'Main status', 'BAD count', '[Other] upload_5 2025-04-10']

>  <inspirations>  (613) 
None

>  <subsites>  (613) 
None

>  <reference>  (613) 


>  <observation_longname>  (613) 
A71EV2A-x5394_C_201_v5

>  <ConformerSites alias>  (613) 
1b - A0911/A/147

>  <CanonSites alias>  (613) 
1 - Active Site

>  <CrystalformSites alias>  (613) 
F7r - A4303/C/201

>  <Quatassemblies alias>  (613) 
A1 - monomer

>  <Crystalforms alias>  (613) 
F7 - A712A_x4207_8.1_refmac1_1st_ref

>  <ConformerSites upload name>  (613) 
1b - A71EV2A-x0911/A/147

>  <CanonSites upload name>  (613) 
1 - A71EV2A-x0911/A/147/1

>  <CrystalformSites upload name>  (613) 
F7r - A71EV2A-x4303/C/201/1

>  <Quatassemblies upload name>  (613) 
A1 - monomer

>  <Crystalforms upload name>  (613) 
F7 - A712A_x4207_8.1_refmac1_1st_ref

>  <ConformerSites short tag>  (613) 
1b - A0911/A/147

>  <CanonSites short tag>  (613) 
1 - A0911/A/147/1

>  <CrystalformSites short tag>  (613) 
F7r - A4303/C/201

>  <Quatassemblies short tag>  (613) 
A1 - monomer

>  <Crystalforms short tag>  (613) 
F7 - A712A_x4207_8.1_refmac1_1st_ref

>  <Centroid res>  (613) 
A71EV2A-x0911/A/133/A_v1

>  <Experiment code>  (613) 
A71EV2A-x5394

>  <Pose>  (613) 
A5394a

$$$$
A5402a
     RDKit          3D

 19 20  0  0  0  0  0  0  0  0999 V2000
    9.0320   10.7180   23.4020 F   0  0  0  0  0  0  0  0  0  0  0  0
    8.0880   10.8910   24.3620 C   0  0  0  0  0  0  0  0  0  0  0  0
    7.3720    9.8110   24.8200 C   0  0  0  0  0  0  0  0  0  0  0  0
    6.3860   10.0260   25.7740 C   0  0  0  0  0  0  0  0  0  0  0  0
    6.1420   11.2980   26.2540 C   0  0  0  0  0  0  0  0  0  0  0  0
    6.8730   12.3760   25.7830 C   0  0  0  0  0  0  0  0  0  0  0  0
    7.8630   12.1680   24.8300 C   0  0  0  0  0  0  0  0  0  0  0  0
    8.6610   13.2280   24.3780 O   0  0  0  0  0  0  0  0  0  0  0  0
    8.4460   13.6890   23.1110 C   0  0  0  0  0  0  0  0  0  0  0  0
    7.5500   13.3190   22.3880 O   0  0  0  0  0  0  0  0  0  0  0  0
    9.3180   14.6710   22.8090 N   0  0  0  0  0  0  0  0  0  0  0  0
   10.3410   15.1840   23.7340 C   0  0  0  0  0  0  0  0  0  0  0  0
   11.7320   15.0630   23.1360 C   0  0  0  0  0  0  0  0  0  0  0  0
   11.7760   15.6520   21.7100 C   0  0  0  0  0  0  0  0  0  0  0  0
    9.3300   15.2800   21.4770 C   0  0  0  0  0  0  0  0  0  0  0  0
   10.6900   15.0340   20.8180 C   0  0  1  0  0  0  0  0  0  0  0  0
   10.7250   15.5920   19.4050 C   0  0  0  0  0  0  0  0  0  0  0  0
   10.4410   16.7740   19.1740 O   0  0  0  0  0  0  0  0  0  0  0  0
   11.0490   14.7320   18.4590 N   0  0  0  0  0  0  0  0  0  0  0  0
 19 17  1  0
 18 17  2  0
 16 17  1  6
 16 14  1  0
 14 13  1  0
 13 12  1  0
 12 11  1  0
 11  9  1  0
 10  9  2  0
  9  8  1  0
  8  7  1  0
  7  6  2  0
  6  5  1  0
  5  4  2  0
  4  3  1  0
  3  2  2  0
  7  2  1  0
  2  1  1  0
 15 11  1  0
 16 15  1  0
M  END
>  <id>  (614) 
614

>  <inchikey>  (614) 
LODQSLABSDFKGY-VIFPVBQESA-N

>  <alias>  (614) 
A5402a

>  <smiles>  (614) 
NC(=O)[C@H]1CCCN(C(=O)Oc2ccccc2F)C1

>  <path>  (614) 
/opt/xchem-fragalysis-2/maxwin/BulkDock/TARGETS/A71EV2A/aligned_files/A5402a/A5402a.pdb

>  <distance_score>  (614) 
None

>  <energy_score>  (614) 
None

>  <compound>  (614) 
LODQSLABSDFKGY-UHFFFAOYSA-N

>  <compound_id>  (614) 
438

>  <target>  (614) 
A71EV2A

>  <tags>  (614) 
['GOOD count', 'MEDIOCRE count', '[Other] S1 site', 'hits', '[Other] S2 site', '[Other] P3 compound design', '[Series] Piperidine series', 'Main status', 'BAD count', '[Other] upload_5 2025-04-10']

>  <inspirations>  (614) 
None

>  <subsites>  (614) 
None

>  <reference>  (614) 


>  <observation_longname>  (614) 
A71EV2A-x5402_A_201_v5

>  <ConformerSites alias>  (614) 
1b - A0911/A/147

>  <CanonSites alias>  (614) 
1 - Active Site

>  <CrystalformSites alias>  (614) 
F8h - A0884/A/147

>  <Quatassemblies alias>  (614) 
A1 - monomer

>  <Crystalforms alias>  (614) 
F8 - A712A_x4271_2.1_refmac1_1st_ref

>  <ConformerSites upload name>  (614) 
1b - A71EV2A-x0911/A/147

>  <CanonSites upload name>  (614) 
1 - A71EV2A-x0911/A/147/1

>  <CrystalformSites upload name>  (614) 
F8h - A71EV2A-x0884/A/147/1

>  <Quatassemblies upload name>  (614) 
A1 - monomer

>  <Crystalforms upload name>  (614) 
F8 - A712A_x4271_2.1_refmac1_1st_ref

>  <ConformerSites short tag>  (614) 
1b - A0911/A/147

>  <CanonSites short tag>  (614) 
1 - A0911/A/147/1

>  <CrystalformSites short tag>  (614) 
F8h - A0884/A/147

>  <Quatassemblies short tag>  (614) 
A1 - monomer

>  <Crystalforms short tag>  (614) 
F8 - A712A_x4271_2.1_refmac1_1st_ref

>  <Centroid res>  (614) 
A71EV2A-x0911/A/133/A_v1

>  <Experiment code>  (614) 
A71EV2A-x5402

>  <Pose>  (614) 
A5402a

$$$$
A5424a
     RDKit          3D

 18 19  0  0  0  0  0  0  0  0999 V2000
   10.1560   16.7840   19.2970 O   0  0  0  0  0  0  0  0  0  0  0  0
   10.5550   15.6480   19.5630 C   0  0  0  0  0  0  0  0  0  0  0  0
   11.1140   14.8600   18.6570 N   0  0  0  0  0  0  0  0  0  0  0  0
   10.3950   15.0630   20.9570 C   0  0  1  0  0  0  0  0  0  0  0  0
   11.5720   15.4490   21.8680 C   0  0  0  0  0  0  0  0  0  0  0  0
   11.4370   14.8000   23.2560 C   0  0  0  0  0  0  0  0  0  0  0  0
   10.0850   15.1240   23.8820 C   0  0  0  0  0  0  0  0  0  0  0  0
    9.0830   15.4650   21.6450 C   0  0  0  0  0  0  0  0  0  0  0  0
    8.9760   14.8220   22.9590 N   0  0  0  0  0  0  0  0  0  0  0  0
    7.9110   14.0380   23.2720 C   0  0  0  0  0  0  0  0  0  0  0  0
    7.0300   13.7920   22.4640 O   0  0  0  0  0  0  0  0  0  0  0  0
    7.8470   13.4400   24.6630 C   0  0  0  0  0  0  0  0  0  0  0  0
    7.9810   11.9460   24.6100 C   0  0  0  0  0  0  0  0  0  0  0  0
    7.1630   10.9980   25.1820 C   0  0  0  0  0  0  0  0  0  0  0  0
    7.5490    9.6700   24.8680 C   0  0  0  0  0  0  0  0  0  0  0  0
    9.2360   11.1870   23.6960 S   0  0  0  0  0  0  0  0  0  0  0  0
    8.6500    9.6000   24.0610 C   0  0  0  0  0  0  0  0  0  0  0  0
    9.2930    8.3920   23.4520 C   0  0  0  0  0  0  0  0  0  0  0  0
 18 17  1  0
 17 15  2  0
 15 14  1  0
 14 13  2  0
 13 12  1  0
 12 10  1  0
 11 10  2  0
 10  9  1  0
  9  7  1  0
  7  6  1  0
  6  5  1  0
  5  4  1  0
  4  2  1  6
  3  2  1  0
  2  1  2  0
  8  4  1  0
  9  8  1  0
 16 13  1  0
 17 16  1  0
M  END
>  <id>  (615) 
615

>  <inchikey>  (615) 
VZOYCHBEALAQTG-JTQLQIEISA-N

>  <alias>  (615) 
A5424a

>  <smiles>  (615) 
Cc1ccc(CC(=O)N2CCC[C@H](C(N)=O)C2)s1

>  <path>  (615) 
/opt/xchem-fragalysis-2/maxwin/BulkDock/TARGETS/A71EV2A/aligned_files/A5424a/A5424a_hippo.pdb

>  <distance_score>  (615) 
None

>  <energy_score>  (615) 
None

>  <compound>  (615) 
VZOYCHBEALAQTG-UHFFFAOYSA-N

>  <compound_id>  (615) 
439

>  <target>  (615) 
A71EV2A

>  <tags>  (615) 
['GOOD count', 'MEDIOCRE count', '[Other] S1 site', 'hits', '[Other] S2 site', '[Other] P3 compound design', '[Series] Piperidine series', 'Main status', 'BAD count', '[Other] upload_5 2025-04-10']

>  <inspirations>  (615) 
None

>  <subsites>  (615) 
None

>  <reference>  (615) 


>  <observation_longname>  (615) 
A71EV2A-x5424_A_201_v5

>  <ConformerSites alias>  (615) 
1b - A0911/A/147

>  <CanonSites alias>  (615) 
1 - Active Site

>  <CrystalformSites alias>  (615) 
F7q - A4303/A/201

>  <Quatassemblies alias>  (615) 
A1 - monomer

>  <Crystalforms alias>  (615) 
F7 - A712A_x4207_8.1_refmac1_1st_ref

>  <ConformerSites upload name>  (615) 
1b - A71EV2A-x0911/A/147

>  <CanonSites upload name>  (615) 
1 - A71EV2A-x0911/A/147/1

>  <CrystalformSites upload name>  (615) 
F7q - A71EV2A-x4303/A/201/1

>  <Quatassemblies upload name>  (615) 
A1 - monomer

>  <Crystalforms upload name>  (615) 
F7 - A712A_x4207_8.1_refmac1_1st_ref

>  <ConformerSites short tag>  (615) 
1b - A0911/A/147

>  <CanonSites short tag>  (615) 
1 - A0911/A/147/1

>  <CrystalformSites short tag>  (615) 
F7q - A4303/A/201

>  <Quatassemblies short tag>  (615) 
A1 - monomer

>  <Crystalforms short tag>  (615) 
F7 - A712A_x4207_8.1_refmac1_1st_ref

>  <Centroid res>  (615) 
A71EV2A-x0911/A/133/A_v1

>  <Experiment code>  (615) 
A71EV2A-x5424

>  <Pose>  (615) 
A5424a

$$$$
A5424b
     RDKit          3D

 18 19  0  0  0  0  0  0  0  0999 V2000
   10.1620   16.7290   19.1790 O   0  0  0  0  0  0  0  0  0  0  0  0
   10.6280   15.6130   19.4420 C   0  0  0  0  0  0  0  0  0  0  0  0
   11.1590   14.8200   18.5240 N   0  0  0  0  0  0  0  0  0  0  0  0
   10.5790   15.0520   20.8530 C   0  0  1  0  0  0  0  0  0  0  0  0
   11.8060   15.4860   21.6750 C   0  0  0  0  0  0  0  0  0  0  0  0
   11.7640   14.8940   23.0930 C   0  0  0  0  0  0  0  0  0  0  0  0
   10.4360   15.2230   23.7850 C   0  0  0  0  0  0  0  0  0  0  0  0
    9.3030   15.4490   21.6040 C   0  0  0  0  0  0  0  0  0  0  0  0
    9.2910   14.8440   22.9400 N   0  0  0  0  0  0  0  0  0  0  0  0
    8.2680   14.0370   23.3160 C   0  0  0  0  0  0  0  0  0  0  0  0
    7.3520   13.7530   22.5560 O   0  0  0  0  0  0  0  0  0  0  0  0
    8.3080   13.4710   24.7240 C   0  0  0  0  0  0  0  0  0  0  0  0
    8.4420   11.9780   24.6790 C   0  0  0  0  0  0  0  0  0  0  0  0
    7.6430   11.0440   25.2850 C   0  0  0  0  0  0  0  0  0  0  0  0
    7.9950    9.7160   24.9560 C   0  0  0  0  0  0  0  0  0  0  0  0
    9.6500   11.2040   23.7120 S   0  0  0  0  0  0  0  0  0  0  0  0
    9.0550    9.6290   24.0990 C   0  0  0  0  0  0  0  0  0  0  0  0
    9.6540    8.4090   23.4640 C   0  0  0  0  0  0  0  0  0  0  0  0
 18 17  1  0
 17 15  2  0
 15 14  1  0
 14 13  2  0
 13 12  1  0
 12 10  1  0
 11 10  2  0
 10  9  1  0
  9  7  1  0
  7  6  1  0
  6  5  1  0
  5  4  1  0
  4  2  1  6
  3  2  1  0
  2  1  2  0
  8  4  1  0
  9  8  1  0
 16 13  1  0
 17 16  1  0
M  END
>  <id>  (616) 
616

>  <inchikey>  (616) 
VZOYCHBEALAQTG-JTQLQIEISA-N

>  <alias>  (616) 
A5424b

>  <smiles>  (616) 
Cc1ccc(CC(=O)N2CCC[C@H](C(N)=O)C2)s1

>  <path>  (616) 
/opt/xchem-fragalysis-2/maxwin/BulkDock/TARGETS/A71EV2A/aligned_files/A5424b/A5424b_hippo.pdb

>  <distance_score>  (616) 
None

>  <energy_score>  (616) 
None

>  <compound>  (616) 
VZOYCHBEALAQTG-UHFFFAOYSA-N

>  <compound_id>  (616) 
439

>  <target>  (616) 
A71EV2A

>  <tags>  (616) 
['GOOD count', 'MEDIOCRE count', '[Other] S1 site', 'hits', '[Other] S2 site', '[Other] P3 compound design', '[Series] Piperidine series', 'Main status', 'BAD count', '[Other] upload_5 2025-04-10']

>  <inspirations>  (616) 
None

>  <subsites>  (616) 
None

>  <reference>  (616) 


>  <observation_longname>  (616) 
A71EV2A-x5424_C_201_v5

>  <ConformerSites alias>  (616) 
1b - A0911/A/147

>  <CanonSites alias>  (616) 
1 - Active Site

>  <CrystalformSites alias>  (616) 
F7r - A4303/C/201

>  <Quatassemblies alias>  (616) 
A1 - monomer

>  <Crystalforms alias>  (616) 
F7 - A712A_x4207_8.1_refmac1_1st_ref

>  <ConformerSites upload name>  (616) 
1b - A71EV2A-x0911/A/147

>  <CanonSites upload name>  (616) 
1 - A71EV2A-x0911/A/147/1

>  <CrystalformSites upload name>  (616) 
F7r - A71EV2A-x4303/C/201/1

>  <Quatassemblies upload name>  (616) 
A1 - monomer

>  <Crystalforms upload name>  (616) 
F7 - A712A_x4207_8.1_refmac1_1st_ref

>  <ConformerSites short tag>  (616) 
1b - A0911/A/147

>  <CanonSites short tag>  (616) 
1 - A0911/A/147/1

>  <CrystalformSites short tag>  (616) 
F7r - A4303/C/201

>  <Quatassemblies short tag>  (616) 
A1 - monomer

>  <Crystalforms short tag>  (616) 
F7 - A712A_x4207_8.1_refmac1_1st_ref

>  <Centroid res>  (616) 
A71EV2A-x0911/A/133/A_v1

>  <Experiment code>  (616) 
A71EV2A-x5424

>  <Pose>  (616) 
A5424a

$$$$
A5425a
     RDKit          3D

 17 18  0  0  0  0  0  0  0  0999 V2000
    7.2560   13.3640   22.2880 O   0  0  0  0  0  0  0  0  0  0  0  0
    8.0930   13.7150   23.1030 C   0  0  0  0  0  0  0  0  0  0  0  0
    9.0210   14.6570   22.8160 N   0  0  0  0  0  0  0  0  0  0  0  0
   10.0360   15.1800   23.7480 C   0  0  0  0  0  0  0  0  0  0  0  0
   11.4480   15.0490   23.1930 C   0  0  0  0  0  0  0  0  0  0  0  0
   11.5480   15.6150   21.7700 C   0  0  0  0  0  0  0  0  0  0  0  0
    9.0650   15.2270   21.4680 C   0  0  0  0  0  0  0  0  0  0  0  0
   10.4570   14.9910   20.8830 C   0  0  1  0  0  0  0  0  0  0  0  0
   10.4870   15.5070   19.4560 C   0  0  0  0  0  0  0  0  0  0  0  0
   10.1830   16.6770   19.1900 O   0  0  0  0  0  0  0  0  0  0  0  0
   10.8260   14.6190   18.5350 N   0  0  0  0  0  0  0  0  0  0  0  0
    8.1260   13.1260   24.4990 C   0  0  0  0  0  0  0  0  0  0  0  0
    8.4420   11.6580   24.3970 C   0  0  0  0  0  0  0  0  0  0  0  0
    9.4770   11.1620   23.6680 C   0  0  0  0  0  0  0  0  0  0  0  0
    9.4890    9.4630   23.6570 S   0  0  0  0  0  0  0  0  0  0  0  0
    8.0990    9.3700   24.6640 C   0  0  0  0  0  0  0  0  0  0  0  0
    7.6580   10.6220   24.9810 C   0  0  0  0  0  0  0  0  0  0  0  0
 11  9  1  0
 10  9  2  0
  8  9  1  6
  8  6  1  0
  6  5  1  0
  5  4  1  0
  4  3  1  0
  3  2  1  0
  2  1  2  0
 12  2  1  0
 13 12  1  0
 13 17  1  0
 17 16  2  0
 16 15  1  0
 15 14  1  0
 14 13  2  0
  7  3  1  0
  8  7  1  0
M  END
>  <id>  (617) 
617

>  <inchikey>  (617) 
ZECAGGNKWBQSNM-JTQLQIEISA-N

>  <alias>  (617) 
A5425a

>  <smiles>  (617) 
NC(=O)[C@H]1CCCN(C(=O)Cc2ccsc2)C1

>  <path>  (617) 
/opt/xchem-fragalysis-2/maxwin/BulkDock/TARGETS/A71EV2A/aligned_files/A5425a/A5425a_hippo.pdb

>  <distance_score>  (617) 
None

>  <energy_score>  (617) 
None

>  <compound>  (617) 
ZECAGGNKWBQSNM-UHFFFAOYSA-N

>  <compound_id>  (617) 
440

>  <target>  (617) 
A71EV2A

>  <tags>  (617) 
['GOOD count', 'MEDIOCRE count', '[Other] S1 site', 'hits', '[Other] S2 site', '[Other] P3 compound design', '[Series] Piperidine series', 'Main status', 'BAD count', '[Other] upload_5 2025-04-10']

>  <inspirations>  (617) 
None

>  <subsites>  (617) 
None

>  <reference>  (617) 


>  <observation_longname>  (617) 
A71EV2A-x5425_A_201_v5

>  <ConformerSites alias>  (617) 
1b - A0911/A/147

>  <CanonSites alias>  (617) 
1 - Active Site

>  <CrystalformSites alias>  (617) 
F6o - A4214/A/201

>  <Quatassemblies alias>  (617) 
A1 - monomer

>  <Crystalforms alias>  (617) 
F6 - short_long_x4018

>  <ConformerSites upload name>  (617) 
1b - A71EV2A-x0911/A/147

>  <CanonSites upload name>  (617) 
1 - A71EV2A-x0911/A/147/1

>  <CrystalformSites upload name>  (617) 
F6o - A71EV2A-x4214/A/201/1

>  <Quatassemblies upload name>  (617) 
A1 - monomer

>  <Crystalforms upload name>  (617) 
F6 - short_long_x4018

>  <ConformerSites short tag>  (617) 
1b - A0911/A/147

>  <CanonSites short tag>  (617) 
1 - A0911/A/147/1

>  <CrystalformSites short tag>  (617) 
F6o - A4214/A/201

>  <Quatassemblies short tag>  (617) 
A1 - monomer

>  <Crystalforms short tag>  (617) 
F6 - short_long_x4018

>  <Centroid res>  (617) 
A71EV2A-x0911/A/133/A_v1

>  <Experiment code>  (617) 
A71EV2A-x5425

>  <Pose>  (617) 
A5425a

$$$$
A5425b
     RDKit          3D

 17 18  0  0  0  0  0  0  0  0999 V2000
    7.5880   13.2760   22.5030 O   0  0  0  0  0  0  0  0  0  0  0  0
    8.4640   13.6750   23.2560 C   0  0  0  0  0  0  0  0  0  0  0  0
    9.3270   14.6630   22.9120 N   0  0  0  0  0  0  0  0  0  0  0  0
   10.3440   15.2920   23.7790 C   0  0  0  0  0  0  0  0  0  0  0  0
   11.7460   15.1470   23.1830 C   0  0  0  0  0  0  0  0  0  0  0  0
   11.7800   15.6580   21.7310 C   0  0  0  0  0  0  0  0  0  0  0  0
    9.3020   15.2020   21.5530 C   0  0  0  0  0  0  0  0  0  0  0  0
   10.6720   14.9830   20.9030 C   0  0  1  0  0  0  0  0  0  0  0  0
   10.6280   15.4850   19.4730 C   0  0  0  0  0  0  0  0  0  0  0  0
   10.2890   16.6550   19.2130 O   0  0  0  0  0  0  0  0  0  0  0  0
   10.9360   14.5900   18.5420 N   0  0  0  0  0  0  0  0  0  0  0  0
    8.6120   13.0900   24.6460 C   0  0  0  0  0  0  0  0  0  0  0  0
    8.8780   11.6180   24.4710 C   0  0  0  0  0  0  0  0  0  0  0  0
    9.8580   11.1230   23.6670 C   0  0  0  0  0  0  0  0  0  0  0  0
    9.8910    9.4230   23.6720 S   0  0  0  0  0  0  0  0  0  0  0  0
    8.5580    9.3270   24.7290 C   0  0  0  0  0  0  0  0  0  0  0  0
    8.1240   10.5840   25.0780 C   0  0  0  0  0  0  0  0  0  0  0  0
 11  9  1  0
 10  9  2  0
  8  9  1  6
  8  6  1  0
  6  5  1  0
  5  4  1  0
  4  3  1  0
  3  2  1  0
  2  1  2  0
 12  2  1  0
 13 12  1  0
 13 17  1  0
 17 16  2  0
 16 15  1  0
 15 14  1  0
 14 13  2  0
  7  3  1  0
  8  7  1  0
M  END
>  <id>  (618) 
618

>  <inchikey>  (618) 
ZECAGGNKWBQSNM-JTQLQIEISA-N

>  <alias>  (618) 
A5425b

>  <smiles>  (618) 
NC(=O)[C@H]1CCCN(C(=O)Cc2ccsc2)C1

>  <path>  (618) 
/opt/xchem-fragalysis-2/maxwin/BulkDock/TARGETS/A71EV2A/aligned_files/A5425b/A5425b_hippo.pdb

>  <distance_score>  (618) 
None

>  <energy_score>  (618) 
None

>  <compound>  (618) 
ZECAGGNKWBQSNM-UHFFFAOYSA-N

>  <compound_id>  (618) 
440

>  <target>  (618) 
A71EV2A

>  <tags>  (618) 
['GOOD count', 'MEDIOCRE count', '[Other] S1 site', 'hits', '[Other] S2 site', '[Other] P3 compound design', '[Series] Piperidine series', 'Main status', 'BAD count', '[Other] upload_5 2025-04-10']

>  <inspirations>  (618) 
None

>  <subsites>  (618) 
None

>  <reference>  (618) 


>  <observation_longname>  (618) 
A71EV2A-x5425_C_201_v5

>  <ConformerSites alias>  (618) 
1b - A0911/A/147

>  <CanonSites alias>  (618) 
1 - Active Site

>  <CrystalformSites alias>  (618) 
F6p - A4214/C/201

>  <Quatassemblies alias>  (618) 
A1 - monomer

>  <Crystalforms alias>  (618) 
F6 - short_long_x4018

>  <ConformerSites upload name>  (618) 
1b - A71EV2A-x0911/A/147

>  <CanonSites upload name>  (618) 
1 - A71EV2A-x0911/A/147/1

>  <CrystalformSites upload name>  (618) 
F6p - A71EV2A-x4214/C/201/1

>  <Quatassemblies upload name>  (618) 
A1 - monomer

>  <Crystalforms upload name>  (618) 
F6 - short_long_x4018

>  <ConformerSites short tag>  (618) 
1b - A0911/A/147

>  <CanonSites short tag>  (618) 
1 - A0911/A/147/1

>  <CrystalformSites short tag>  (618) 
F6p - A4214/C/201

>  <Quatassemblies short tag>  (618) 
A1 - monomer

>  <Crystalforms short tag>  (618) 
F6 - short_long_x4018

>  <Centroid res>  (618) 
A71EV2A-x0911/A/133/A_v1

>  <Experiment code>  (618) 
A71EV2A-x5425

>  <Pose>  (618) 
A5425a

$$$$
A5427a
     RDKit          3D

 19 20  0  0  0  0  0  0  0  0999 V2000
    9.3930   10.8910   23.2830 Cl  0  0  0  0  0  0  0  0  0  0  0  0
    8.0900   11.1710   24.3950 C   0  0  0  0  0  0  0  0  0  0  0  0
    7.5820   10.0990   25.1060 C   0  0  0  0  0  0  0  0  0  0  0  0
    6.5780   10.3140   26.0350 C   0  0  0  0  0  0  0  0  0  0  0  0
    6.0980   11.5920   26.2550 C   0  0  0  0  0  0  0  0  0  0  0  0
    6.6210   12.6430   25.5240 C   0  0  0  0  0  0  0  0  0  0  0  0
    6.0170   14.2370   25.8390 Cl  0  0  0  0  0  0  0  0  0  0  0  0
    7.6120   12.4710   24.5520 C   0  0  0  0  0  0  0  0  0  0  0  0
    8.0660   13.6010   23.6540 C   0  0  0  0  0  0  0  0  0  0  0  0
    9.4510   14.1100   24.0120 C   0  0  0  0  0  0  0  0  0  0  0  0
    9.8760   14.0340   25.1590 O   0  0  0  0  0  0  0  0  0  0  0  0
   10.1840   14.6400   23.0070 N   0  0  0  0  0  0  0  0  0  0  0  0
   11.5670   15.1160   23.1620 C   0  0  0  0  0  0  0  0  0  0  0  0
   11.9150   15.6370   21.7690 C   0  0  0  0  0  0  0  0  0  0  0  0
    9.6960   14.8060   21.6340 C   0  0  0  0  0  0  0  0  0  0  0  0
   11.0000   14.8300   20.8370 C   0  0  1  0  0  0  0  0  0  0  0  0
   10.8180   15.4240   19.4500 C   0  0  0  0  0  0  0  0  0  0  0  0
   10.2750   16.5200   19.2910 O   0  0  0  0  0  0  0  0  0  0  0  0
   11.2350   14.6710   18.4430 N   0  0  0  0  0  0  0  0  0  0  0  0
 19 17  1  0
 18 17  2  0
 16 17  1  6
 16 14  1  0
 14 13  1  0
 13 12  1  0
 12 10  1  0
 11 10  2  0
 10  9  1  0
  9  8  1  0
  8  6  2  0
  7  6  1  0
  6  5  1  0
  5  4  2  0
  4  3  1  0
  3  2  2  0
  8  2  1  0
  2  1  1  0
 15 12  1  0
 16 15  1  0
M  END
>  <id>  (619) 
619

>  <inchikey>  (619) 
BZVULGRWTNSUAM-QMMMGPOBSA-N

>  <alias>  (619) 
A5427a

>  <smiles>  (619) 
NC(=O)[C@H]1CCN(C(=O)Cc2c(Cl)cccc2Cl)C1

>  <path>  (619) 
/opt/xchem-fragalysis-2/maxwin/BulkDock/TARGETS/A71EV2A/aligned_files/A5427a/A5427a.pdb

>  <distance_score>  (619) 
None

>  <energy_score>  (619) 
None

>  <compound>  (619) 
BZVULGRWTNSUAM-UHFFFAOYSA-N

>  <compound_id>  (619) 
441

>  <target>  (619) 
A71EV2A

>  <tags>  (619) 
['GOOD count', 'MEDIOCRE count', '[Other] S1 site', 'hits', '[Other] S2 site', '[Other] P3 compound design', '[Series] Piperidine series', 'Main status', 'BAD count', '[Other] upload_5 2025-04-10']

>  <inspirations>  (619) 
None

>  <subsites>  (619) 
None

>  <reference>  (619) 


>  <observation_longname>  (619) 
A71EV2A-x5427_A_201_v5

>  <ConformerSites alias>  (619) 
1b - A0911/A/147

>  <CanonSites alias>  (619) 
1 - Active Site

>  <CrystalformSites alias>  (619) 
F1a - A0375/A/201

>  <Quatassemblies alias>  (619) 
A1 - monomer

>  <Crystalforms alias>  (619) 
F1 - A71_2A_open

>  <ConformerSites upload name>  (619) 
1b - A71EV2A-x0911/A/147

>  <CanonSites upload name>  (619) 
1 - A71EV2A-x0911/A/147/1

>  <CrystalformSites upload name>  (619) 
F1a - A71EV2A-x0375/A/201/1

>  <Quatassemblies upload name>  (619) 
A1 - monomer

>  <Crystalforms upload name>  (619) 
F1 - A71_2A_open

>  <ConformerSites short tag>  (619) 
1b - A0911/A/147

>  <CanonSites short tag>  (619) 
1 - A0911/A/147/1

>  <CrystalformSites short tag>  (619) 
F1a - A0375/A/201

>  <Quatassemblies short tag>  (619) 
A1 - monomer

>  <Crystalforms short tag>  (619) 
F1 - A71_2A_open

>  <Centroid res>  (619) 
A71EV2A-x0911/A/133/A_v1

>  <Experiment code>  (619) 
A71EV2A-x5427

>  <Pose>  (619) 
A5427a

$$$$
A5449a
     RDKit          3D

 24 25  0  0  0  0  0  0  0  0999 V2000
   10.3290   16.6690   19.1300 O   0  0  0  0  0  0  0  0  0  0  0  0
   10.7150   15.5220   19.3900 C   0  0  0  0  0  0  0  0  0  0  0  0
   11.0810   14.6570   18.4420 N   0  0  0  0  0  0  0  0  0  0  0  0
   10.7310   14.9990   20.8170 C   0  0  1  0  0  0  0  0  0  0  0  0
   11.8480   15.6550   21.6540 C   0  0  0  0  0  0  0  0  0  0  0  0
   11.8370   15.0790   23.0780 C   0  0  0  0  0  0  0  0  0  0  0  0
   10.4670   15.2590   23.7070 C   0  0  0  0  0  0  0  0  0  0  0  0
    9.3670   15.2120   21.4790 C   0  0  0  0  0  0  0  0  0  0  0  0
    9.3920   14.7050   22.8560 N   0  0  0  0  0  0  0  0  0  0  0  0
    8.5140   13.7550   23.2460 C   0  0  0  0  0  0  0  0  0  0  0  0
    7.6370   13.3400   22.5080 O   0  0  0  0  0  0  0  0  0  0  0  0
    8.6290   13.2780   24.6810 C   0  0  0  0  0  0  0  0  0  0  0  0
    7.6780   12.1480   25.0190 C   0  0  0  0  0  0  0  0  0  0  0  0
    7.9060   10.8150   24.6430 C   0  0  0  0  0  0  0  0  0  0  0  0
    9.3220   10.5150   23.6210 S   0  0  0  0  0  0  0  0  0  0  0  0
    9.3170    8.7390   23.3830 C   0  0  0  0  0  0  0  0  0  0  0  0
    6.5500   12.4400   25.7970 C   0  0  0  0  0  0  0  0  0  0  0  0
    5.6810   11.4310   26.1890 C   0  0  0  0  0  0  0  0  0  0  0  0
    4.2240   11.8570   27.1140 S   0  0  0  0  0  0  0  0  0  0  0  0
    3.8240   13.1890   26.7430 O   0  0  0  0  0  0  0  0  0  0  0  0
    3.2650   10.7980   26.9670 O   0  0  0  0  0  0  0  0  0  0  0  0
    4.7970   11.8780   28.7730 C   0  0  0  0  0  0  0  0  0  0  0  0
    5.9250   10.1080   25.8300 C   0  0  0  0  0  0  0  0  0  0  0  0
    7.0340    9.8090   25.0510 C   0  0  0  0  0  0  0  0  0  0  0  0
 16 15  1  0
 15 14  1  0
 14 24  2  0
 24 23  1  0
 23 18  2  0
 19 18  1  0
 22 19  1  0
 20 19  2  0
 21 19  2  0
 18 17  1  0
 17 13  2  0
 14 13  1  0
 13 12  1  0
 12 10  1  0
 11 10  2  0
 10  9  1  0
  9  7  1  0
  7  6  1  0
  6  5  1  0
  5  4  1  0
  4  2  1  6
  3  2  1  0
  2  1  2  0
  8  4  1  0
  9  8  1  0
M  END
>  <id>  (620) 
620

>  <inchikey>  (620) 
KPHFGQCKSPIQRV-NSHDSACASA-N

>  <alias>  (620) 
A5449a

>  <smiles>  (620) 
CSc1ccc(S(C)(=O)=O)cc1CC(=O)N1CCC[C@H](C(N)=O)C1

>  <path>  (620) 
/opt/xchem-fragalysis-2/maxwin/BulkDock/TARGETS/A71EV2A/aligned_files/A5449a/A5449a_hippo.pdb

>  <distance_score>  (620) 
None

>  <energy_score>  (620) 
None

>  <compound>  (620) 
KPHFGQCKSPIQRV-UHFFFAOYSA-N

>  <compound_id>  (620) 
442

>  <target>  (620) 
A71EV2A

>  <tags>  (620) 
['GOOD count', 'MEDIOCRE count', '[Other] S1 site', 'hits', '[Other] S2 site', '[Other] P3 compound design', '[Series] Piperidine series', 'Main status', 'BAD count', '[Other] upload_5 2025-04-10']

>  <inspirations>  (620) 
None

>  <subsites>  (620) 
None

>  <reference>  (620) 


>  <observation_longname>  (620) 
A71EV2A-x5449_A_201_v5

>  <ConformerSites alias>  (620) 
1b - A0911/A/147

>  <CanonSites alias>  (620) 
1 - Active Site

>  <CrystalformSites alias>  (620) 
F7q - A4303/A/201

>  <Quatassemblies alias>  (620) 
A1 - monomer

>  <Crystalforms alias>  (620) 
F7 - A712A_x4207_8.1_refmac1_1st_ref

>  <ConformerSites upload name>  (620) 
1b - A71EV2A-x0911/A/147

>  <CanonSites upload name>  (620) 
1 - A71EV2A-x0911/A/147/1

>  <CrystalformSites upload name>  (620) 
F7q - A71EV2A-x4303/A/201/1

>  <Quatassemblies upload name>  (620) 
A1 - monomer

>  <Crystalforms upload name>  (620) 
F7 - A712A_x4207_8.1_refmac1_1st_ref

>  <ConformerSites short tag>  (620) 
1b - A0911/A/147

>  <CanonSites short tag>  (620) 
1 - A0911/A/147/1

>  <CrystalformSites short tag>  (620) 
F7q - A4303/A/201

>  <Quatassemblies short tag>  (620) 
A1 - monomer

>  <Crystalforms short tag>  (620) 
F7 - A712A_x4207_8.1_refmac1_1st_ref

>  <Centroid res>  (620) 
A71EV2A-x0911/A/133/A_v1

>  <Experiment code>  (620) 
A71EV2A-x5449

>  <Pose>  (620) 
A5449a

$$$$
A5449b
     RDKit          3D

 24 25  0  0  0  0  0  0  0  0999 V2000
   10.3830   16.6390   19.1520 O   0  0  0  0  0  0  0  0  0  0  0  0
   10.7760   15.4840   19.4010 C   0  0  0  0  0  0  0  0  0  0  0  0
   11.0980   14.6020   18.4470 N   0  0  0  0  0  0  0  0  0  0  0  0
   10.8840   14.9850   20.8320 C   0  0  1  0  0  0  0  0  0  0  0  0
   12.0190   15.6970   21.6050 C   0  0  0  0  0  0  0  0  0  0  0  0
   12.1030   15.1550   23.0420 C   0  0  0  0  0  0  0  0  0  0  0  0
   10.7700   15.3310   23.7420 C   0  0  0  0  0  0  0  0  0  0  0  0
    9.5630   15.1770   21.5870 C   0  0  0  0  0  0  0  0  0  0  0  0
    9.6910   14.6840   22.9630 N   0  0  0  0  0  0  0  0  0  0  0  0
    8.8740   13.7070   23.4200 C   0  0  0  0  0  0  0  0  0  0  0  0
    7.9440   13.2710   22.7370 O   0  0  0  0  0  0  0  0  0  0  0  0
    9.1250   13.2170   24.8410 C   0  0  0  0  0  0  0  0  0  0  0  0
    8.2170   12.0740   25.2560 C   0  0  0  0  0  0  0  0  0  0  0  0
    8.3990   10.7580   24.8010 C   0  0  0  0  0  0  0  0  0  0  0  0
    9.7320   10.4920   23.6690 S   0  0  0  0  0  0  0  0  0  0  0  0
    9.6770    8.6950   23.4080 C   0  0  0  0  0  0  0  0  0  0  0  0
    7.1890   12.3300   26.1730 C   0  0  0  0  0  0  0  0  0  0  0  0
    6.3610   11.3020   26.6100 C   0  0  0  0  0  0  0  0  0  0  0  0
    5.0450   11.6570   27.7520 S   0  0  0  0  0  0  0  0  0  0  0  0
    4.6090   13.0030   27.5190 O   0  0  0  0  0  0  0  0  0  0  0  0
    4.0640   10.6120   27.6410 O   0  0  0  0  0  0  0  0  0  0  0  0
    5.7850   11.5760   29.3410 C   0  0  0  0  0  0  0  0  0  0  0  0
    6.5470   10.0030   26.1570 C   0  0  0  0  0  0  0  0  0  0  0  0
    7.5620    9.7340   25.2480 C   0  0  0  0  0  0  0  0  0  0  0  0
 16 15  1  0
 15 14  1  0
 14 24  2  0
 24 23  1  0
 23 18  2  0
 19 18  1  0
 22 19  1  0
 20 19  2  0
 21 19  2  0
 18 17  1  0
 17 13  2  0
 14 13  1  0
 13 12  1  0
 12 10  1  0
 11 10  2  0
 10  9  1  0
  9  7  1  0
  7  6  1  0
  6  5  1  0
  5  4  1  0
  4  2  1  6
  3  2  1  0
  2  1  2  0
  8  4  1  0
  9  8  1  0
M  END
>  <id>  (621) 
621

>  <inchikey>  (621) 
KPHFGQCKSPIQRV-NSHDSACASA-N

>  <alias>  (621) 
A5449b

>  <smiles>  (621) 
CSc1ccc(S(C)(=O)=O)cc1CC(=O)N1CCC[C@H](C(N)=O)C1

>  <path>  (621) 
/opt/xchem-fragalysis-2/maxwin/BulkDock/TARGETS/A71EV2A/aligned_files/A5449b/A5449b.pdb

>  <distance_score>  (621) 
None

>  <energy_score>  (621) 
None

>  <compound>  (621) 
KPHFGQCKSPIQRV-UHFFFAOYSA-N

>  <compound_id>  (621) 
442

>  <target>  (621) 
A71EV2A

>  <tags>  (621) 
['GOOD count', 'MEDIOCRE count', '[Other] S1 site', 'hits', '[Other] S2 site', '[Other] P3 compound design', '[Series] Piperidine series', 'Main status', 'BAD count', '[Other] upload_5 2025-04-10']

>  <inspirations>  (621) 
None

>  <subsites>  (621) 
None

>  <reference>  (621) 


>  <observation_longname>  (621) 
A71EV2A-x5449_C_201_v5

>  <ConformerSites alias>  (621) 
1b - A0911/A/147

>  <CanonSites alias>  (621) 
1 - Active Site

>  <CrystalformSites alias>  (621) 
F7r - A4303/C/201

>  <Quatassemblies alias>  (621) 
A1 - monomer

>  <Crystalforms alias>  (621) 
F7 - A712A_x4207_8.1_refmac1_1st_ref

>  <ConformerSites upload name>  (621) 
1b - A71EV2A-x0911/A/147

>  <CanonSites upload name>  (621) 
1 - A71EV2A-x0911/A/147/1

>  <CrystalformSites upload name>  (621) 
F7r - A71EV2A-x4303/C/201/1

>  <Quatassemblies upload name>  (621) 
A1 - monomer

>  <Crystalforms upload name>  (621) 
F7 - A712A_x4207_8.1_refmac1_1st_ref

>  <ConformerSites short tag>  (621) 
1b - A0911/A/147

>  <CanonSites short tag>  (621) 
1 - A0911/A/147/1

>  <CrystalformSites short tag>  (621) 
F7r - A4303/C/201

>  <Quatassemblies short tag>  (621) 
A1 - monomer

>  <Crystalforms short tag>  (621) 
F7 - A712A_x4207_8.1_refmac1_1st_ref

>  <Centroid res>  (621) 
A71EV2A-x0911/A/133/A_v1

>  <Experiment code>  (621) 
A71EV2A-x5449

>  <Pose>  (621) 
A5449a

$$$$
A5460a
     RDKit          3D

 20 22  0  0  0  0  0  0  0  0999 V2000
   11.5050   14.4920   25.0890 O   0  0  0  0  0  0  0  0  0  0  0  0
   11.3140   14.7800   23.9110 C   0  0  0  0  0  0  0  0  0  0  0  0
   12.4000   15.4460   23.1090 C   0  0  0  0  0  0  0  0  0  0  0  0
   12.0000   15.9240   21.7120 C   0  0  0  0  0  0  0  0  0  0  0  0
   10.1170   14.5280   23.2870 N   0  0  0  0  0  0  0  0  0  0  0  0
    9.8180   14.8300   21.8650 C   0  0  0  0  0  0  0  0  0  0  0  0
   11.0850   14.9160   21.0060 C   0  0  1  0  0  0  0  0  0  0  0  0
   10.7200   15.3850   19.6070 C   0  0  0  0  0  0  0  0  0  0  0  0
   10.2130   16.4990   19.4160 O   0  0  0  0  0  0  0  0  0  0  0  0
   10.9550   14.5250   18.6290 N   0  0  0  0  0  0  0  0  0  0  0  0
    9.0380   13.9840   24.0520 C   0  0  0  0  0  0  0  0  0  0  0  0
    8.8340   12.5740   24.0270 C   0  0  0  0  0  0  0  0  0  0  0  0
    9.6370   11.6760   23.2730 C   0  0  0  0  0  0  0  0  0  0  0  0
    9.4580   10.3250   23.3630 C   0  0  0  0  0  0  0  0  0  0  0  0
    8.4740    9.8000   24.1770 C   0  0  0  0  0  0  0  0  0  0  0  0
    7.6810   10.6200   24.9310 C   0  0  0  0  0  0  0  0  0  0  0  0
    7.8390   12.0250   24.8840 C   0  0  0  0  0  0  0  0  0  0  0  0
    7.1010   12.8970   25.7330 C   0  0  0  0  0  0  0  0  0  0  0  0
    7.3330   14.2460   25.7250 C   0  0  0  0  0  0  0  0  0  0  0  0
    8.2880   14.7920   24.8810 C   0  0  0  0  0  0  0  0  0  0  0  0
 10  8  1  0
  9  8  2  0
  7  8  1  6
  7  4  1  0
  4  3  1  0
  3  2  1  0
  2  1  2  0
  5  2  1  0
 11  5  1  0
 11 20  1  0
 20 19  2  0
 19 18  1  0
 18 17  2  0
 17 16  1  0
 16 15  2  0
 15 14  1  0
 14 13  2  0
 13 12  1  0
 12 11  2  0
 17 12  1  0
  6  5  1  0
  7  6  1  0
M  END
>  <id>  (622) 
622

>  <inchikey>  (622) 
FZAOHMJVDYJROW-LBPRGKRZSA-N

>  <alias>  (622) 
A5460a

>  <smiles>  (622) 
NC(=O)[C@H]1CCC(=O)N(c2cccc3ccccc23)C1

>  <path>  (622) 
/opt/xchem-fragalysis-2/maxwin/BulkDock/TARGETS/A71EV2A/aligned_files/A5460a/A5460a.pdb

>  <distance_score>  (622) 
None

>  <energy_score>  (622) 
None

>  <compound>  (622) 
FZAOHMJVDYJROW-UHFFFAOYSA-N

>  <compound_id>  (622) 
443

>  <target>  (622) 
A71EV2A

>  <tags>  (622) 
['GOOD count', 'MEDIOCRE count', '[Other] S1 site', 'hits', '[Other] S2 site', '[Other] P3 compound design', '[Series] Piperidine series', 'Main status', 'BAD count', '[Other] upload_5 2025-04-10']

>  <inspirations>  (622) 
None

>  <subsites>  (622) 
None

>  <reference>  (622) 


>  <observation_longname>  (622) 
A71EV2A-x5460_A_201_v5

>  <ConformerSites alias>  (622) 
1b - A0911/A/147

>  <CanonSites alias>  (622) 
1 - Active Site

>  <CrystalformSites alias>  (622) 
F8h - A0884/A/147

>  <Quatassemblies alias>  (622) 
A1 - monomer

>  <Crystalforms alias>  (622) 
F8 - A712A_x4271_2.1_refmac1_1st_ref

>  <ConformerSites upload name>  (622) 
1b - A71EV2A-x0911/A/147

>  <CanonSites upload name>  (622) 
1 - A71EV2A-x0911/A/147/1

>  <CrystalformSites upload name>  (622) 
F8h - A71EV2A-x0884/A/147/1

>  <Quatassemblies upload name>  (622) 
A1 - monomer

>  <Crystalforms upload name>  (622) 
F8 - A712A_x4271_2.1_refmac1_1st_ref

>  <ConformerSites short tag>  (622) 
1b - A0911/A/147

>  <CanonSites short tag>  (622) 
1 - A0911/A/147/1

>  <CrystalformSites short tag>  (622) 
F8h - A0884/A/147

>  <Quatassemblies short tag>  (622) 
A1 - monomer

>  <Crystalforms short tag>  (622) 
F8 - A712A_x4271_2.1_refmac1_1st_ref

>  <Centroid res>  (622) 
A71EV2A-x0911/A/133/A_v1

>  <Experiment code>  (622) 
A71EV2A-x5460

>  <Pose>  (622) 
A5460a

$$$$
A5466a
     RDKit          3D

 21 22  0  0  0  0  0  0  0  0999 V2000
   10.5150   16.7200   19.1760 O   0  0  0  0  0  0  0  0  0  0  0  0
   10.7340   15.5170   19.3330 C   0  0  0  0  0  0  0  0  0  0  0  0
   10.8970   14.6770   18.3260 N   0  0  0  0  0  0  0  0  0  0  0  0
   10.7640   14.8990   20.7190 C   0  0  1  0  0  0  0  0  0  0  0  0
   11.8480   15.5410   21.6030 C   0  0  0  0  0  0  0  0  0  0  0  0
   11.7800   15.0250   23.0550 C   0  0  0  0  0  0  0  0  0  0  0  0
   10.3770   15.1820   23.6200 C   0  0  0  0  0  0  0  0  0  0  0  0
    9.3950   15.1630   21.3520 C   0  0  0  0  0  0  0  0  0  0  0  0
    9.3770   14.6080   22.7050 N   0  0  0  0  0  0  0  0  0  0  0  0
    8.5320   13.6130   23.0450 C   0  0  0  0  0  0  0  0  0  0  0  0
    7.6530   13.1560   22.3550 O   0  0  0  0  0  0  0  0  0  0  0  0
    8.8650   13.0740   24.2520 O   0  0  0  0  0  0  0  0  0  0  0  0
    8.0050   12.0960   24.7640 C   0  0  0  0  0  0  0  0  0  0  0  0
    8.1630   10.7320   24.3930 C   0  0  0  0  0  0  0  0  0  0  0  0
    9.2530   10.2740   23.4660 C   0  0  0  0  0  0  0  0  0  0  0  0
    7.2630    9.8280   25.0190 C   0  0  0  0  0  0  0  0  0  0  0  0
    6.3550   10.2270   25.9440 C   0  0  0  0  0  0  0  0  0  0  0  0
    7.0820   12.5060   25.6630 C   0  0  0  0  0  0  0  0  0  0  0  0
    6.2490   11.5990   26.3230 C   0  0  0  0  0  0  0  0  0  0  0  0
    5.4980   12.0330   27.3640 C   0  0  0  0  0  0  0  0  0  0  0  0
    4.8770   12.4200   28.2930 C   0  0  0  0  0  0  0  0  0  0  0  0
 21 20  3  0
 20 19  1  0
 19 17  2  0
 17 16  1  0
 16 14  2  0
 15 14  1  0
 14 13  1  0
 13 12  1  0
 12 10  1  0
 11 10  2  0
 10  9  1  0
  9  7  1  0
  7  6  1  0
  6  5  1  0
  5  4  1  0
  4  2  1  6
  3  2  1  0
  2  1  2  0
  8  4  1  0
  9  8  1  0
 18 13  2  0
 19 18  1  0
M  END
>  <id>  (623) 
623

>  <inchikey>  (623) 
DRIPPOHCCVQYFA-ZDUSSCGKSA-N

>  <alias>  (623) 
A5466a

>  <smiles>  (623) 
C#Cc1ccc(C)c(OC(=O)N2CCC[C@H](C(N)=O)C2)c1

>  <path>  (623) 
/opt/xchem-fragalysis-2/maxwin/BulkDock/TARGETS/A71EV2A/aligned_files/A5466a/A5466a.pdb

>  <distance_score>  (623) 
None

>  <energy_score>  (623) 
None

>  <compound>  (623) 
DRIPPOHCCVQYFA-UHFFFAOYSA-N

>  <compound_id>  (623) 
444

>  <target>  (623) 
A71EV2A

>  <tags>  (623) 
['GOOD count', 'MEDIOCRE count', '[Other] S1 site', 'hits', '[Other] S2 site', '[Other] P3 compound design', '[Series] Piperidine series', 'Main status', 'BAD count', '[Other] upload_5 2025-04-10']

>  <inspirations>  (623) 
None

>  <subsites>  (623) 
None

>  <reference>  (623) 


>  <observation_longname>  (623) 
A71EV2A-x5466_A_201_v5

>  <ConformerSites alias>  (623) 
1b - A0911/A/147

>  <CanonSites alias>  (623) 
1 - Active Site

>  <CrystalformSites alias>  (623) 
F8h - A0884/A/147

>  <Quatassemblies alias>  (623) 
A1 - monomer

>  <Crystalforms alias>  (623) 
F8 - A712A_x4271_2.1_refmac1_1st_ref

>  <ConformerSites upload name>  (623) 
1b - A71EV2A-x0911/A/147

>  <CanonSites upload name>  (623) 
1 - A71EV2A-x0911/A/147/1

>  <CrystalformSites upload name>  (623) 
F8h - A71EV2A-x0884/A/147/1

>  <Quatassemblies upload name>  (623) 
A1 - monomer

>  <Crystalforms upload name>  (623) 
F8 - A712A_x4271_2.1_refmac1_1st_ref

>  <ConformerSites short tag>  (623) 
1b - A0911/A/147

>  <CanonSites short tag>  (623) 
1 - A0911/A/147/1

>  <CrystalformSites short tag>  (623) 
F8h - A0884/A/147

>  <Quatassemblies short tag>  (623) 
A1 - monomer

>  <Crystalforms short tag>  (623) 
F8 - A712A_x4271_2.1_refmac1_1st_ref

>  <Centroid res>  (623) 
A71EV2A-x0911/A/133/A_v1

>  <Experiment code>  (623) 
A71EV2A-x5466

>  <Pose>  (623) 
A5466a

$$$$
A5475a
     RDKit          3D

 23 25  0  0  0  0  0  0  0  0999 V2000
   10.1720   16.5760   19.1860 O   0  0  0  0  0  0  0  0  0  0  0  0
   10.4950   15.4040   19.4390 C   0  0  0  0  0  0  0  0  0  0  0  0
   10.7630   14.5210   18.4840 N   0  0  0  0  0  0  0  0  0  0  0  0
   10.5980   14.9000   20.8700 C   0  0  1  0  0  0  0  0  0  0  0  0
   11.7450   15.5780   21.6390 C   0  0  0  0  0  0  0  0  0  0  0  0
   11.7900   15.0540   23.0840 C   0  0  0  0  0  0  0  0  0  0  0  0
   10.4210   15.1860   23.7500 C   0  0  0  0  0  0  0  0  0  0  0  0
    9.2550   15.1060   21.5880 C   0  0  0  0  0  0  0  0  0  0  0  0
    9.3520   14.5660   22.9460 N   0  0  0  0  0  0  0  0  0  0  0  0
    8.5760   13.5410   23.3610 C   0  0  0  0  0  0  0  0  0  0  0  0
    7.7120   13.0950   22.6300 O   0  0  0  0  0  0  0  0  0  0  0  0
    8.7560   13.0590   24.8010 C   0  0  1  0  0  0  0  0  0  0  0  0
    7.4440   12.6790   25.4520 C   0  0  0  0  0  0  0  0  0  0  0  0
    6.4770   13.6440   25.7170 C   0  0  0  0  0  0  0  0  0  0  0  0
    5.3260   13.3250   26.4350 C   0  0  0  0  0  0  0  0  0  0  0  0
    4.0480   14.5060   26.7520 S   0  0  0  0  0  0  0  0  0  0  0  0
    4.2660   15.7260   25.4640 C   0  0  0  0  0  0  0  0  0  0  0  0
    9.8200   11.9560   24.9530 C   0  0  0  0  0  0  0  0  0  0  0  0
    9.1980   10.6120   24.7010 C   0  0  0  0  0  0  0  0  0  0  0  0
    8.0790   10.3410   25.6000 O   0  0  0  0  0  0  0  0  0  0  0  0
    7.2200   11.3780   25.8900 C   0  0  0  0  0  0  0  0  0  0  0  0
    6.0830   11.0550   26.6300 C   0  0  0  0  0  0  0  0  0  0  0  0
    5.1410   12.0330   26.8990 C   0  0  0  0  0  0  0  0  0  0  0  0
 17 16  1  0
 16 15  1  0
 15 23  2  0
 23 22  1  0
 22 21  2  0
 21 13  1  0
 14 13  2  0
 15 14  1  0
 13 12  1  0
 12 10  1  6
 11 10  2  0
 10  9  1  0
  9  7  1  0
  7  6  1  0
  6  5  1  0
  5  4  1  0
  4  2  1  6
  3  2  1  0
  2  1  2  0
  8  4  1  0
  9  8  1  0
 18 12  1  0
 19 18  1  0
 20 19  1  0
 21 20  1  0
M  END
>  <id>  (624) 
624

>  <inchikey>  (624) 
WXZBSEHLNDUWMH-WCQYABFASA-N

>  <alias>  (624) 
A5475a

>  <smiles>  (624) 
CSc1ccc2c(c1)[C@H](C(=O)N1CCC[C@H](C(N)=O)C1)CCO2

>  <path>  (624) 
/opt/xchem-fragalysis-2/maxwin/BulkDock/TARGETS/A71EV2A/aligned_files/A5475a/A5475a_hippo.pdb

>  <distance_score>  (624) 
None

>  <energy_score>  (624) 
None

>  <compound>  (624) 
WXZBSEHLNDUWMH-UHFFFAOYSA-N

>  <compound_id>  (624) 
445

>  <target>  (624) 
A71EV2A

>  <tags>  (624) 
['GOOD count', 'MEDIOCRE count', '[Other] S1 site', 'hits', '[Other] S2 site', '[Other] P3 compound design', '[Series] Piperidine series', 'Main status', 'BAD count', '[Other] upload_5 2025-04-10']

>  <inspirations>  (624) 
None

>  <subsites>  (624) 
None

>  <reference>  (624) 


>  <observation_longname>  (624) 
A71EV2A-x5475_A_201_v5

>  <ConformerSites alias>  (624) 
1b - A0911/A/147

>  <CanonSites alias>  (624) 
1 - Active Site

>  <CrystalformSites alias>  (624) 
F7q - A4303/A/201

>  <Quatassemblies alias>  (624) 
A1 - monomer

>  <Crystalforms alias>  (624) 
F7 - A712A_x4207_8.1_refmac1_1st_ref

>  <ConformerSites upload name>  (624) 
1b - A71EV2A-x0911/A/147

>  <CanonSites upload name>  (624) 
1 - A71EV2A-x0911/A/147/1

>  <CrystalformSites upload name>  (624) 
F7q - A71EV2A-x4303/A/201/1

>  <Quatassemblies upload name>  (624) 
A1 - monomer

>  <Crystalforms upload name>  (624) 
F7 - A712A_x4207_8.1_refmac1_1st_ref

>  <ConformerSites short tag>  (624) 
1b - A0911/A/147

>  <CanonSites short tag>  (624) 
1 - A0911/A/147/1

>  <CrystalformSites short tag>  (624) 
F7q - A4303/A/201

>  <Quatassemblies short tag>  (624) 
A1 - monomer

>  <Crystalforms short tag>  (624) 
F7 - A712A_x4207_8.1_refmac1_1st_ref

>  <Centroid res>  (624) 
A71EV2A-x0911/A/133/A_v1

>  <Experiment code>  (624) 
A71EV2A-x5475

>  <Pose>  (624) 
A5475a

$$$$
A5475b
     RDKit          3D

 23 25  0  0  0  0  0  0  0  0999 V2000
   10.3410   16.6820   19.1730 O   0  0  0  0  0  0  0  0  0  0  0  0
   10.6500   15.5010   19.4210 C   0  0  0  0  0  0  0  0  0  0  0  0
   10.8390   14.5830   18.4660 N   0  0  0  0  0  0  0  0  0  0  0  0
   10.7780   15.0090   20.8500 C   0  0  1  0  0  0  0  0  0  0  0  0
   11.8880   15.7610   21.6120 C   0  0  0  0  0  0  0  0  0  0  0  0
   11.9530   15.2720   23.0620 C   0  0  0  0  0  0  0  0  0  0  0  0
   10.5860   15.3810   23.7320 C   0  0  0  0  0  0  0  0  0  0  0  0
    9.4330   15.1500   21.5710 C   0  0  0  0  0  0  0  0  0  0  0  0
    9.5530   14.6700   22.9550 N   0  0  0  0  0  0  0  0  0  0  0  0
    8.7680   13.6650   23.4060 C   0  0  0  0  0  0  0  0  0  0  0  0
    7.9100   13.1490   22.6880 O   0  0  0  0  0  0  0  0  0  0  0  0
    8.9550   13.2030   24.8490 C   0  0  1  0  0  0  0  0  0  0  0  0
    7.6180   12.8010   25.4500 C   0  0  0  0  0  0  0  0  0  0  0  0
    6.6560   13.7640   25.7520 C   0  0  0  0  0  0  0  0  0  0  0  0
    5.4680   13.4130   26.3960 C   0  0  0  0  0  0  0  0  0  0  0  0
    4.2380   14.6320   26.7640 S   0  0  0  0  0  0  0  0  0  0  0  0
    4.4160   15.8220   25.4420 C   0  0  0  0  0  0  0  0  0  0  0  0
    9.9960   12.0550   24.9450 C   0  0  0  0  0  0  0  0  0  0  0  0
    9.3410   10.7270   24.6520 C   0  0  0  0  0  0  0  0  0  0  0  0
    8.2300   10.4380   25.5320 O   0  0  0  0  0  0  0  0  0  0  0  0
    7.3570   11.4700   25.7980 C   0  0  0  0  0  0  0  0  0  0  0  0
    6.1900   11.1160   26.4700 C   0  0  0  0  0  0  0  0  0  0  0  0
    5.2530   12.0910   26.7720 C   0  0  0  0  0  0  0  0  0  0  0  0
 17 16  1  0
 16 15  1  0
 15 23  2  0
 23 22  1  0
 22 21  2  0
 21 13  1  0
 14 13  2  0
 15 14  1  0
 13 12  1  0
 12 10  1  6
 11 10  2  0
 10  9  1  0
  9  7  1  0
  7  6  1  0
  6  5  1  0
  5  4  1  0
  4  2  1  6
  3  2  1  0
  2  1  2  0
  8  4  1  0
  9  8  1  0
 18 12  1  0
 19 18  1  0
 20 19  1  0
 21 20  1  0
M  END
>  <id>  (625) 
625

>  <inchikey>  (625) 
WXZBSEHLNDUWMH-WCQYABFASA-N

>  <alias>  (625) 
A5475b

>  <smiles>  (625) 
CSc1ccc2c(c1)[C@H](C(=O)N1CCC[C@H](C(N)=O)C1)CCO2

>  <path>  (625) 
/opt/xchem-fragalysis-2/maxwin/BulkDock/TARGETS/A71EV2A/aligned_files/A5475b/A5475b_hippo.pdb

>  <distance_score>  (625) 
None

>  <energy_score>  (625) 
None

>  <compound>  (625) 
WXZBSEHLNDUWMH-UHFFFAOYSA-N

>  <compound_id>  (625) 
445

>  <target>  (625) 
A71EV2A

>  <tags>  (625) 
['GOOD count', 'MEDIOCRE count', '[Other] S1 site', 'hits', '[Other] S2 site', '[Other] P3 compound design', '[Series] Piperidine series', 'Main status', 'BAD count', '[Other] upload_5 2025-04-10']

>  <inspirations>  (625) 
None

>  <subsites>  (625) 
None

>  <reference>  (625) 


>  <observation_longname>  (625) 
A71EV2A-x5475_C_201_v5

>  <ConformerSites alias>  (625) 
1b - A0911/A/147

>  <CanonSites alias>  (625) 
1 - Active Site

>  <CrystalformSites alias>  (625) 
F7r - A4303/C/201

>  <Quatassemblies alias>  (625) 
A1 - monomer

>  <Crystalforms alias>  (625) 
F7 - A712A_x4207_8.1_refmac1_1st_ref

>  <ConformerSites upload name>  (625) 
1b - A71EV2A-x0911/A/147

>  <CanonSites upload name>  (625) 
1 - A71EV2A-x0911/A/147/1

>  <CrystalformSites upload name>  (625) 
F7r - A71EV2A-x4303/C/201/1

>  <Quatassemblies upload name>  (625) 
A1 - monomer

>  <Crystalforms upload name>  (625) 
F7 - A712A_x4207_8.1_refmac1_1st_ref

>  <ConformerSites short tag>  (625) 
1b - A0911/A/147

>  <CanonSites short tag>  (625) 
1 - A0911/A/147/1

>  <CrystalformSites short tag>  (625) 
F7r - A4303/C/201

>  <Quatassemblies short tag>  (625) 
A1 - monomer

>  <Crystalforms short tag>  (625) 
F7 - A712A_x4207_8.1_refmac1_1st_ref

>  <Centroid res>  (625) 
A71EV2A-x0911/A/133/A_v1

>  <Experiment code>  (625) 
A71EV2A-x5475

>  <Pose>  (625) 
A5475a

$$$$
A5488a
     RDKit          3D

 23 24  0  0  0  0  0  0  0  0999 V2000
    7.5590   13.3720   22.5760 O   0  0  0  0  0  0  0  0  0  0  0  0
    8.4830   13.7460   23.2930 C   0  0  0  0  0  0  0  0  0  0  0  0
    9.5270   14.4770   22.7890 N   0  0  0  0  0  0  0  0  0  0  0  0
    9.4810   14.8590   21.3680 C   0  0  0  0  0  0  0  0  0  0  0  0
   10.8600   15.2050   20.7970 C   0  0  1  0  0  0  0  0  0  0  0  0
   10.7260   15.6200   19.3420 C   0  0  0  0  0  0  0  0  0  0  0  0
   10.2630   16.7250   19.0330 O   0  0  0  0  0  0  0  0  0  0  0  0
   11.1260   14.7280   18.4500 N   0  0  0  0  0  0  0  0  0  0  0  0
   11.5860   16.2890   21.6200 C   0  0  0  0  0  0  0  0  0  0  0  0
   11.0810   16.3670   23.0660 C   0  0  0  0  0  0  0  0  0  0  0  0
   10.6510   14.9960   23.6030 C   0  0  2  0  0  0  0  0  0  0  0  0
   11.8410   14.0520   23.7080 C   0  0  0  0  0  0  0  0  0  0  0  0
   12.0820   13.7560   25.0610 O   0  0  0  0  0  0  0  0  0  0  0  0
   12.9920   14.6450   25.6920 C   0  0  0  0  0  0  0  0  0  0  0  0
    8.4720   13.4130   24.7770 C   0  0  0  0  0  0  0  0  0  0  0  0
    7.6790   12.1640   25.1010 C   0  0  0  0  0  0  0  0  0  0  0  0
    8.0290   10.8780   24.6560 C   0  0  0  0  0  0  0  0  0  0  0  0
    9.3590   10.6840   23.5110 S   0  0  0  0  0  0  0  0  0  0  0  0
    9.5310    8.9080   23.3560 C   0  0  0  0  0  0  0  0  0  0  0  0
    7.3130    9.7640   25.0900 C   0  0  0  0  0  0  0  0  0  0  0  0
    6.2490    9.9200   25.9590 C   0  0  0  0  0  0  0  0  0  0  0  0
    5.8870   11.1720   26.3900 C   0  0  0  0  0  0  0  0  0  0  0  0
    6.5850   12.2850   25.9570 C   0  0  0  0  0  0  0  0  0  0  0  0
 14 13  1  0
 13 12  1  0
 11 12  1  6
 11 10  1  0
 10  9  1  0
  9  5  1  0
  5  6  1  6
  8  6  1  0
  7  6  2  0
  5  4  1  0
  4  3  1  0
 11  3  1  0
  3  2  1  0
  2  1  2  0
 15  2  1  0
 16 15  1  0
 16 23  2  0
 23 22  1  0
 22 21  2  0
 21 20  1  0
 20 17  2  0
 17 16  1  0
 18 17  1  0
 19 18  1  0
M  END
>  <id>  (626) 
626

>  <inchikey>  (626) 
RKVFQJXQPDQDSV-UONOGXRCSA-N

>  <alias>  (626) 
A5488a

>  <smiles>  (626) 
COC[C@H]1CC[C@H](C(N)=O)CN1C(=O)Cc1ccccc1SC

>  <path>  (626) 
/opt/xchem-fragalysis-2/maxwin/BulkDock/TARGETS/A71EV2A/aligned_files/A5488a/A5488a.pdb

>  <distance_score>  (626) 
None

>  <energy_score>  (626) 
None

>  <compound>  (626) 
RKVFQJXQPDQDSV-UHFFFAOYSA-N

>  <compound_id>  (626) 
446

>  <target>  (626) 
A71EV2A

>  <tags>  (626) 
['GOOD count', 'MEDIOCRE count', '[Other] S1 site', 'hits', '[Other] S2 site', '[Other] P3 compound design', '[Series] Piperidine series', 'Main status', 'BAD count', '[Other] upload_5 2025-04-10']

>  <inspirations>  (626) 
None

>  <subsites>  (626) 
None

>  <reference>  (626) 


>  <observation_longname>  (626) 
A71EV2A-x5488_A_201_v5

>  <ConformerSites alias>  (626) 
1b - A0911/A/147

>  <CanonSites alias>  (626) 
1 - Active Site

>  <CrystalformSites alias>  (626) 
F8h - A0884/A/147

>  <Quatassemblies alias>  (626) 
A1 - monomer

>  <Crystalforms alias>  (626) 
F8 - A712A_x4271_2.1_refmac1_1st_ref

>  <ConformerSites upload name>  (626) 
1b - A71EV2A-x0911/A/147

>  <CanonSites upload name>  (626) 
1 - A71EV2A-x0911/A/147/1

>  <CrystalformSites upload name>  (626) 
F8h - A71EV2A-x0884/A/147/1

>  <Quatassemblies upload name>  (626) 
A1 - monomer

>  <Crystalforms upload name>  (626) 
F8 - A712A_x4271_2.1_refmac1_1st_ref

>  <ConformerSites short tag>  (626) 
1b - A0911/A/147

>  <CanonSites short tag>  (626) 
1 - A0911/A/147/1

>  <CrystalformSites short tag>  (626) 
F8h - A0884/A/147

>  <Quatassemblies short tag>  (626) 
A1 - monomer

>  <Crystalforms short tag>  (626) 
F8 - A712A_x4271_2.1_refmac1_1st_ref

>  <Centroid res>  (626) 
A71EV2A-x0911/A/133/A_v1

>  <Experiment code>  (626) 
A71EV2A-x5488

>  <Pose>  (626) 
A5488a

$$$$
A5509a
     RDKit          3D

 26 28  0  0  0  0  0  0  0  0999 V2000
   10.4120   16.7180   19.1180 O   0  0  0  0  0  0  0  0  0  0  0  0
   10.7430   15.5590   19.3820 C   0  0  0  0  0  0  0  0  0  0  0  0
   11.1210   14.6900   18.4540 N   0  0  0  0  0  0  0  0  0  0  0  0
   10.7270   15.0440   20.8100 C   0  0  1  0  0  0  0  0  0  0  0  0
   11.7590   15.7790   21.6780 C   0  0  0  0  0  0  0  0  0  0  0  0
   11.7540   15.2490   23.1180 C   0  0  0  0  0  0  0  0  0  0  0  0
   10.3540   15.3160   23.7190 C   0  0  0  0  0  0  0  0  0  0  0  0
    9.3590   15.2910   21.4590 C   0  0  0  0  0  0  0  0  0  0  0  0
    9.3450   14.7350   22.8170 N   0  0  0  0  0  0  0  0  0  0  0  0
    8.4390   13.7930   23.1630 C   0  0  0  0  0  0  0  0  0  0  0  0
    7.6300   13.3470   22.3620 O   0  0  0  0  0  0  0  0  0  0  0  0
    8.4200   13.3570   24.6190 C   0  0  0  0  0  0  0  0  0  0  0  0
    7.5570   12.1390   24.8650 C   0  0  0  0  0  0  0  0  0  0  0  0
    7.9550   10.8360   24.5290 C   0  0  0  0  0  0  0  0  0  0  0  0
    9.4280   10.6370   23.5660 S   0  0  0  0  0  0  0  0  0  0  0  0
    9.5430    8.8640   23.3210 C   0  0  0  0  0  0  0  0  0  0  0  0
    6.3460   12.3080   25.5440 C   0  0  0  0  0  0  0  0  0  0  0  0
    5.5410   11.2280   25.9170 C   0  0  0  0  0  0  0  0  0  0  0  0
    5.9840    9.9470   25.6010 C   0  0  0  0  0  0  0  0  0  0  0  0
    7.1720    9.7480   24.9160 C   0  0  0  0  0  0  0  0  0  0  0  0
    4.2230   11.4450   26.5740 C   0  0  0  0  0  0  0  0  0  0  0  0
    3.5850   12.6840   26.5390 C   0  0  0  0  0  0  0  0  0  0  0  0
    2.3540   12.8300   27.1540 C   0  0  0  0  0  0  0  0  0  0  0  0
    1.7170   11.8380   27.7870 N   0  0  0  0  0  0  0  0  0  0  0  0
    2.3340   10.6540   27.8220 C   0  0  0  0  0  0  0  0  0  0  0  0
    3.5660   10.4120   27.2430 C   0  0  0  0  0  0  0  0  0  0  0  0
 16 15  1  0
 15 14  1  0
 14 20  2  0
 20 19  1  0
 19 18  2  0
 21 18  1  0
 21 26  2  0
 26 25  1  0
 25 24  2  0
 24 23  1  0
 23 22  2  0
 22 21  1  0
 18 17  1  0
 17 13  2  0
 14 13  1  0
 13 12  1  0
 12 10  1  0
 11 10  2  0
 10  9  1  0
  9  7  1  0
  7  6  1  0
  6  5  1  0
  5  4  1  0
  4  2  1  6
  3  2  1  0
  2  1  2  0
  8  4  1  0
  9  8  1  0
M  END
>  <id>  (627) 
627

>  <inchikey>  (627) 
HVWKDQZRTVELIM-INIZCTEOSA-N

>  <alias>  (627) 
A5509a

>  <smiles>  (627) 
CSc1ccc(-c2ccncc2)cc1CC(=O)N1CCC[C@H](C(N)=O)C1

>  <path>  (627) 
/opt/xchem-fragalysis-2/maxwin/BulkDock/TARGETS/A71EV2A/aligned_files/A5509a/A5509a.pdb

>  <distance_score>  (627) 
None

>  <energy_score>  (627) 
None

>  <compound>  (627) 
HVWKDQZRTVELIM-UHFFFAOYSA-N

>  <compound_id>  (627) 
447

>  <target>  (627) 
A71EV2A

>  <tags>  (627) 
['GOOD count', 'MEDIOCRE count', '[Other] S1 site', 'hits', '[Other] S2 site', '[Other] upload_4 2025-04-02', '[Other] P3 compound design', '[Series] Piperidine series', 'Main status', 'BAD count']

>  <inspirations>  (627) 
None

>  <subsites>  (627) 
None

>  <reference>  (627) 


>  <observation_longname>  (627) 
A71EV2A-x5509_A_201_v4

>  <ConformerSites alias>  (627) 
1b - A0911/A/147

>  <CanonSites alias>  (627) 
1 - Active Site

>  <CrystalformSites alias>  (627) 
F8h - A0884/A/147

>  <Quatassemblies alias>  (627) 
A1 - monomer

>  <Crystalforms alias>  (627) 
F8 - A712A_x4271_2.1_refmac1_1st_ref

>  <ConformerSites upload name>  (627) 
1b - A71EV2A-x0911/A/147

>  <CanonSites upload name>  (627) 
1 - A71EV2A-x0911/A/147/1

>  <CrystalformSites upload name>  (627) 
F8h - A71EV2A-x0884/A/147/1

>  <Quatassemblies upload name>  (627) 
A1 - monomer

>  <Crystalforms upload name>  (627) 
F8 - A712A_x4271_2.1_refmac1_1st_ref

>  <ConformerSites short tag>  (627) 
1b - A0911/A/147

>  <CanonSites short tag>  (627) 
1 - A0911/A/147/1

>  <CrystalformSites short tag>  (627) 
F8h - A0884/A/147

>  <Quatassemblies short tag>  (627) 
A1 - monomer

>  <Crystalforms short tag>  (627) 
F8 - A712A_x4271_2.1_refmac1_1st_ref

>  <Centroid res>  (627) 
A71EV2A-x0911/A/133/A_v1

>  <Experiment code>  (627) 
A71EV2A-x5509

>  <Pose>  (627) 
A5509a

$$$$
A5512a
     RDKit          3D

 29 31  0  0  0  0  0  0  0  0999 V2000
   10.4370   16.6960   19.1810 O   0  0  0  0  0  0  0  0  0  0  0  0
   10.7780   15.5420   19.4410 C   0  0  0  0  0  0  0  0  0  0  0  0
   11.1440   14.6790   18.5070 N   0  0  0  0  0  0  0  0  0  0  0  0
   10.7410   15.0160   20.8660 C   0  0  1  0  0  0  0  0  0  0  0  0
   11.8390   15.6570   21.7300 C   0  0  0  0  0  0  0  0  0  0  0  0
   11.7740   15.1440   23.1800 C   0  0  0  0  0  0  0  0  0  0  0  0
   10.3810   15.3330   23.7620 C   0  0  0  0  0  0  0  0  0  0  0  0
    9.3640   15.2450   21.5050 C   0  0  0  0  0  0  0  0  0  0  0  0
    9.3580   14.7440   22.8830 N   0  0  0  0  0  0  0  0  0  0  0  0
    8.4670   13.8030   23.2680 C   0  0  0  0  0  0  0  0  0  0  0  0
    7.6610   13.3190   22.4900 O   0  0  0  0  0  0  0  0  0  0  0  0
    8.5120   13.3690   24.7220 C   0  0  0  0  0  0  0  0  0  0  0  0
    7.5590   12.2310   25.0020 C   0  0  0  0  0  0  0  0  0  0  0  0
    7.8110   10.8950   24.6560 C   0  0  0  0  0  0  0  0  0  0  0  0
    9.2950   10.5340   23.7600 S   0  0  0  0  0  0  0  0  0  0  0  0
    9.1770    8.7750   23.4200 C   0  0  0  0  0  0  0  0  0  0  0  0
    6.3790   12.5360   25.6870 C   0  0  0  0  0  0  0  0  0  0  0  0
    5.4600   11.5490   26.0270 C   0  0  0  0  0  0  0  0  0  0  0  0
    5.7410   10.2250   25.6990 C   0  0  0  0  0  0  0  0  0  0  0  0
    6.9090    9.8960   25.0260 C   0  0  0  0  0  0  0  0  0  0  0  0
    4.1660   11.9990   26.6380 C   0  0  0  0  0  0  0  0  0  0  0  0
    3.7830   13.1600   26.5140 O   0  0  0  0  0  0  0  0  0  0  0  0
    3.4630   11.0610   27.3100 N   0  0  0  0  0  0  0  0  0  0  0  0
    2.2120   11.2370   27.9640 C   0  0  0  0  0  0  0  0  0  0  0  0
    1.2890   12.2350   27.6580 C   0  0  0  0  0  0  0  0  0  0  0  0
    0.0900   12.2560   28.3470 C   0  0  0  0  0  0  0  0  0  0  0  0
   -0.2390   11.3730   29.2930 N   0  0  0  0  0  0  0  0  0  0  0  0
    0.6750   10.4500   29.6010 C   0  0  0  0  0  0  0  0  0  0  0  0
    1.9020   10.3410   28.9770 C   0  0  0  0  0  0  0  0  0  0  0  0
 16 15  1  0
 15 14  1  0
 14 20  2  0
 20 19  1  0
 19 18  2  0
 21 18  1  0
 22 21  2  0
 23 21  1  0
 24 23  1  0
 24 29  2  0
 29 28  1  0
 28 27  2  0
 27 26  1  0
 26 25  2  0
 25 24  1  0
 18 17  1  0
 17 13  2  0
 14 13  1  0
 13 12  1  0
 12 10  1  0
 11 10  2  0
 10  9  1  0
  9  7  1  0
  7  6  1  0
  6  5  1  0
  5  4  1  0
  4  2  1  6
  3  2  1  0
  2  1  2  0
  8  4  1  0
  9  8  1  0
M  END
>  <id>  (628) 
628

>  <inchikey>  (628) 
BPONMQRHGPSDQC-HNNXBMFYSA-N

>  <alias>  (628) 
A5512a

>  <smiles>  (628) 
CSc1ccc(C(=O)Nc2ccncc2)cc1CC(=O)N1CCC[C@H](C(N)=O)C1

>  <path>  (628) 
/opt/xchem-fragalysis-2/maxwin/BulkDock/TARGETS/A71EV2A/aligned_files/A5512a/A5512a_hippo.pdb

>  <distance_score>  (628) 
None

>  <energy_score>  (628) 
None

>  <compound>  (628) 
BPONMQRHGPSDQC-UHFFFAOYSA-N

>  <compound_id>  (628) 
448

>  <target>  (628) 
A71EV2A

>  <tags>  (628) 
['GOOD count', 'MEDIOCRE count', '[Other] S1 site', 'hits', '[Other] S2 site', '[Other] P3 compound design', '[Series] Piperidine series', 'Main status', 'BAD count', '[Other] upload_5 2025-04-10']

>  <inspirations>  (628) 
None

>  <subsites>  (628) 
None

>  <reference>  (628) 


>  <observation_longname>  (628) 
A71EV2A-x5512_A_201_v5

>  <ConformerSites alias>  (628) 
1b - A0911/A/147

>  <CanonSites alias>  (628) 
1 - Active Site

>  <CrystalformSites alias>  (628) 
F7q - A4303/A/201

>  <Quatassemblies alias>  (628) 
A1 - monomer

>  <Crystalforms alias>  (628) 
F7 - A712A_x4207_8.1_refmac1_1st_ref

>  <ConformerSites upload name>  (628) 
1b - A71EV2A-x0911/A/147

>  <CanonSites upload name>  (628) 
1 - A71EV2A-x0911/A/147/1

>  <CrystalformSites upload name>  (628) 
F7q - A71EV2A-x4303/A/201/1

>  <Quatassemblies upload name>  (628) 
A1 - monomer

>  <Crystalforms upload name>  (628) 
F7 - A712A_x4207_8.1_refmac1_1st_ref

>  <ConformerSites short tag>  (628) 
1b - A0911/A/147

>  <CanonSites short tag>  (628) 
1 - A0911/A/147/1

>  <CrystalformSites short tag>  (628) 
F7q - A4303/A/201

>  <Quatassemblies short tag>  (628) 
A1 - monomer

>  <Crystalforms short tag>  (628) 
F7 - A712A_x4207_8.1_refmac1_1st_ref

>  <Centroid res>  (628) 
A71EV2A-x0911/A/133/A_v1

>  <Experiment code>  (628) 
A71EV2A-x5512

>  <Pose>  (628) 
A5512a

$$$$
A5512b
     RDKit          3D

 29 31  0  0  0  0  0  0  0  0999 V2000
   10.5240   16.7610   19.2170 O   0  0  0  0  0  0  0  0  0  0  0  0
   10.8650   15.5940   19.4570 C   0  0  0  0  0  0  0  0  0  0  0  0
   11.2080   14.7300   18.5140 N   0  0  0  0  0  0  0  0  0  0  0  0
   10.8560   15.0510   20.8770 C   0  0  1  0  0  0  0  0  0  0  0  0
   11.9540   15.7070   21.7360 C   0  0  0  0  0  0  0  0  0  0  0  0
   11.9100   15.2050   23.1930 C   0  0  0  0  0  0  0  0  0  0  0  0
   10.5120   15.3580   23.7830 C   0  0  0  0  0  0  0  0  0  0  0  0
    9.4910   15.2780   21.5360 C   0  0  0  0  0  0  0  0  0  0  0  0
    9.4950   14.7540   22.9040 N   0  0  0  0  0  0  0  0  0  0  0  0
    8.5850   13.8230   23.2870 C   0  0  0  0  0  0  0  0  0  0  0  0
    7.7760   13.3540   22.5110 O   0  0  0  0  0  0  0  0  0  0  0  0
    8.5970   13.3970   24.7420 C   0  0  0  0  0  0  0  0  0  0  0  0
    7.6110   12.2770   25.0100 C   0  0  0  0  0  0  0  0  0  0  0  0
    7.8550   10.9380   24.6660 C   0  0  0  0  0  0  0  0  0  0  0  0
    9.3570   10.5890   23.7860 S   0  0  0  0  0  0  0  0  0  0  0  0
    9.2460    8.8270   23.4390 C   0  0  0  0  0  0  0  0  0  0  0  0
    6.4170   12.5880   25.6720 C   0  0  0  0  0  0  0  0  0  0  0  0
    5.4730   11.6100   25.9850 C   0  0  0  0  0  0  0  0  0  0  0  0
    5.7550   10.2820   25.6710 C   0  0  0  0  0  0  0  0  0  0  0  0
    6.9330    9.9460   25.0180 C   0  0  0  0  0  0  0  0  0  0  0  0
    4.1550   12.0700   26.5470 C   0  0  0  0  0  0  0  0  0  0  0  0
    3.7820   13.2340   26.3980 O   0  0  0  0  0  0  0  0  0  0  0  0
    3.4060   11.1260   27.1840 N   0  0  0  0  0  0  0  0  0  0  0  0
    2.0930   11.2620   27.7370 C   0  0  0  0  0  0  0  0  0  0  0  0
    1.6610   10.2570   28.5890 C   0  0  0  0  0  0  0  0  0  0  0  0
    0.4220   10.3840   29.1890 C   0  0  0  0  0  0  0  0  0  0  0  0
   -0.3970   11.4170   28.9910 N   0  0  0  0  0  0  0  0  0  0  0  0
    0.0120   12.3530   28.1330 C   0  0  0  0  0  0  0  0  0  0  0  0
    1.2320   12.3230   27.4850 C   0  0  0  0  0  0  0  0  0  0  0  0
 16 15  1  0
 15 14  1  0
 14 20  2  0
 20 19  1  0
 19 18  2  0
 21 18  1  0
 22 21  2  0
 23 21  1  0
 24 23  1  0
 24 29  2  0
 29 28  1  0
 28 27  2  0
 27 26  1  0
 26 25  2  0
 25 24  1  0
 18 17  1  0
 17 13  2  0
 14 13  1  0
 13 12  1  0
 12 10  1  0
 11 10  2  0
 10  9  1  0
  9  7  1  0
  7  6  1  0
  6  5  1  0
  5  4  1  0
  4  2  1  6
  3  2  1  0
  2  1  2  0
  8  4  1  0
  9  8  1  0
M  END
>  <id>  (629) 
629

>  <inchikey>  (629) 
BPONMQRHGPSDQC-HNNXBMFYSA-N

>  <alias>  (629) 
A5512b

>  <smiles>  (629) 
CSc1ccc(C(=O)Nc2ccncc2)cc1CC(=O)N1CCC[C@H](C(N)=O)C1

>  <path>  (629) 
/opt/xchem-fragalysis-2/maxwin/BulkDock/TARGETS/A71EV2A/aligned_files/A5512b/A5512b_hippo.pdb

>  <distance_score>  (629) 
None

>  <energy_score>  (629) 
None

>  <compound>  (629) 
BPONMQRHGPSDQC-UHFFFAOYSA-N

>  <compound_id>  (629) 
448

>  <target>  (629) 
A71EV2A

>  <tags>  (629) 
['GOOD count', 'MEDIOCRE count', '[Other] S1 site', 'hits', '[Other] S2 site', '[Other] P3 compound design', '[Series] Piperidine series', 'Main status', 'BAD count', '[Other] upload_5 2025-04-10']

>  <inspirations>  (629) 
None

>  <subsites>  (629) 
None

>  <reference>  (629) 


>  <observation_longname>  (629) 
A71EV2A-x5512_C_201_v5

>  <ConformerSites alias>  (629) 
1b - A0911/A/147

>  <CanonSites alias>  (629) 
1 - Active Site

>  <CrystalformSites alias>  (629) 
F7r - A4303/C/201

>  <Quatassemblies alias>  (629) 
A1 - monomer

>  <Crystalforms alias>  (629) 
F7 - A712A_x4207_8.1_refmac1_1st_ref

>  <ConformerSites upload name>  (629) 
1b - A71EV2A-x0911/A/147

>  <CanonSites upload name>  (629) 
1 - A71EV2A-x0911/A/147/1

>  <CrystalformSites upload name>  (629) 
F7r - A71EV2A-x4303/C/201/1

>  <Quatassemblies upload name>  (629) 
A1 - monomer

>  <Crystalforms upload name>  (629) 
F7 - A712A_x4207_8.1_refmac1_1st_ref

>  <ConformerSites short tag>  (629) 
1b - A0911/A/147

>  <CanonSites short tag>  (629) 
1 - A0911/A/147/1

>  <CrystalformSites short tag>  (629) 
F7r - A4303/C/201

>  <Quatassemblies short tag>  (629) 
A1 - monomer

>  <Crystalforms short tag>  (629) 
F7 - A712A_x4207_8.1_refmac1_1st_ref

>  <Centroid res>  (629) 
A71EV2A-x0911/A/133/A_v1

>  <Experiment code>  (629) 
A71EV2A-x5512

>  <Pose>  (629) 
A5512a

$$$$
A5525a
     RDKit          3D

 25 27  0  0  0  0  0  0  0  0999 V2000
   10.3950   16.7080   19.1920 O   0  0  0  0  0  0  0  0  0  0  0  0
   10.7190   15.5430   19.4410 C   0  0  0  0  0  0  0  0  0  0  0  0
   11.0850   14.6820   18.5000 N   0  0  0  0  0  0  0  0  0  0  0  0
   10.6780   15.0020   20.8610 C   0  0  1  0  0  0  0  0  0  0  0  0
   11.8080   15.5960   21.7260 C   0  0  0  0  0  0  0  0  0  0  0  0
   11.7540   15.0550   23.1600 C   0  0  0  0  0  0  0  0  0  0  0  0
   10.3750   15.2670   23.7630 C   0  0  0  0  0  0  0  0  0  0  0  0
    9.3230   15.2880   21.5340 C   0  0  0  0  0  0  0  0  0  0  0  0
    9.3220   14.7260   22.8900 N   0  0  0  0  0  0  0  0  0  0  0  0
    8.4280   13.7750   23.2660 C   0  0  0  0  0  0  0  0  0  0  0  0
    7.6010   13.3250   22.4910 O   0  0  0  0  0  0  0  0  0  0  0  0
    8.4370   13.3530   24.7260 C   0  0  0  0  0  0  0  0  0  0  0  0
    7.5480   12.1570   24.9880 C   0  0  0  0  0  0  0  0  0  0  0  0
    7.8950   10.8410   24.6340 C   0  0  0  0  0  0  0  0  0  0  0  0
    9.4100   10.5920   23.7480 S   0  0  0  0  0  0  0  0  0  0  0  0
    9.4330    8.8230   23.4340 C   0  0  0  0  0  0  0  0  0  0  0  0
    6.3290   12.3750   25.6360 C   0  0  0  0  0  0  0  0  0  0  0  0
    5.4810   11.3230   25.9710 C   0  0  0  0  0  0  0  0  0  0  0  0
    5.8590   10.0220   25.6410 C   0  0  0  0  0  0  0  0  0  0  0  0
    7.0580    9.7810   24.9840 C   0  0  0  0  0  0  0  0  0  0  0  0
    4.1970   11.5860   26.6530 C   0  0  0  0  0  0  0  0  0  0  0  0
    3.5530   10.6110   27.3100 N   0  0  0  0  0  0  0  0  0  0  0  0
    2.3910   11.1720   27.7410 N   0  0  0  0  0  0  0  0  0  0  0  0
    2.3020   12.4610   27.3940 C   0  0  0  0  0  0  0  0  0  0  0  0
    3.4420   12.7790   26.6970 C   0  0  0  0  0  0  0  0  0  0  0  0
 16 15  1  0
 15 14  1  0
 14 20  2  0
 20 19  1  0
 19 18  2  0
 21 18  1  0
 21 25  1  0
 25 24  2  0
 24 23  1  0
 23 22  1  0
 22 21  2  0
 18 17  1  0
 17 13  2  0
 14 13  1  0
 13 12  1  0
 12 10  1  0
 11 10  2  0
 10  9  1  0
  9  7  1  0
  7  6  1  0
  6  5  1  0
  5  4  1  0
  4  2  1  6
  3  2  1  0
  2  1  2  0
  8  4  1  0
  9  8  1  0
M  END
>  <id>  (630) 
630

>  <inchikey>  (630) 
PUKFQANWMDYRDH-ZDUSSCGKSA-N

>  <alias>  (630) 
A5525a

>  <smiles>  (630) 
CSc1ccc(-c2cc[nH]n2)cc1CC(=O)N1CCC[C@H](C(N)=O)C1

>  <path>  (630) 
/opt/xchem-fragalysis-2/maxwin/BulkDock/TARGETS/A71EV2A/aligned_files/A5525a/A5525a_hippo.pdb

>  <distance_score>  (630) 
None

>  <energy_score>  (630) 
None

>  <compound>  (630) 
PUKFQANWMDYRDH-UHFFFAOYSA-N

>  <compound_id>  (630) 
449

>  <target>  (630) 
A71EV2A

>  <tags>  (630) 
['GOOD count', 'MEDIOCRE count', '[Other] S1 site', 'hits', '[Other] S2 site', '[Other] upload_4 2025-04-02', '[Other] P3 compound design', '[Series] Piperidine series', 'Main status', 'BAD count']

>  <inspirations>  (630) 
None

>  <subsites>  (630) 
None

>  <reference>  (630) 


>  <observation_longname>  (630) 
A71EV2A-x5525_A_201_v4

>  <ConformerSites alias>  (630) 
1b - A0911/A/147

>  <CanonSites alias>  (630) 
1 - Active Site

>  <CrystalformSites alias>  (630) 
F7q - A4303/A/201

>  <Quatassemblies alias>  (630) 
A1 - monomer

>  <Crystalforms alias>  (630) 
F7 - A712A_x4207_8.1_refmac1_1st_ref

>  <ConformerSites upload name>  (630) 
1b - A71EV2A-x0911/A/147

>  <CanonSites upload name>  (630) 
1 - A71EV2A-x0911/A/147/1

>  <CrystalformSites upload name>  (630) 
F7q - A71EV2A-x4303/A/201/1

>  <Quatassemblies upload name>  (630) 
A1 - monomer

>  <Crystalforms upload name>  (630) 
F7 - A712A_x4207_8.1_refmac1_1st_ref

>  <ConformerSites short tag>  (630) 
1b - A0911/A/147

>  <CanonSites short tag>  (630) 
1 - A0911/A/147/1

>  <CrystalformSites short tag>  (630) 
F7q - A4303/A/201

>  <Quatassemblies short tag>  (630) 
A1 - monomer

>  <Crystalforms short tag>  (630) 
F7 - A712A_x4207_8.1_refmac1_1st_ref

>  <Centroid res>  (630) 
A71EV2A-x0911/A/133/A_v1

>  <Experiment code>  (630) 
A71EV2A-x5525

>  <Pose>  (630) 
A5525a

$$$$
A5525b
     RDKit          3D

 25 27  0  0  0  0  0  0  0  0999 V2000
   10.4780   16.7670   19.2180 O   0  0  0  0  0  0  0  0  0  0  0  0
   10.8120   15.5950   19.4470 C   0  0  0  0  0  0  0  0  0  0  0  0
   11.1450   14.7300   18.4930 N   0  0  0  0  0  0  0  0  0  0  0  0
   10.8260   15.0460   20.8650 C   0  0  1  0  0  0  0  0  0  0  0  0
   11.9750   15.6600   21.6940 C   0  0  0  0  0  0  0  0  0  0  0  0
   11.9430   15.1820   23.1570 C   0  0  0  0  0  0  0  0  0  0  0  0
   10.5610   15.3880   23.7660 C   0  0  0  0  0  0  0  0  0  0  0  0
    9.4870   15.3250   21.5570 C   0  0  0  0  0  0  0  0  0  0  0  0
    9.5180   14.7860   22.9190 N   0  0  0  0  0  0  0  0  0  0  0  0
    8.6480   13.8200   23.3120 C   0  0  0  0  0  0  0  0  0  0  0  0
    7.8290   13.3360   22.5470 O   0  0  0  0  0  0  0  0  0  0  0  0
    8.7070   13.3940   24.7700 C   0  0  0  0  0  0  0  0  0  0  0  0
    7.8080   12.2100   25.0700 C   0  0  0  0  0  0  0  0  0  0  0  0
    8.1150   10.8920   24.6910 C   0  0  0  0  0  0  0  0  0  0  0  0
    9.5950   10.6350   23.7600 S   0  0  0  0  0  0  0  0  0  0  0  0
    9.5710    8.8700   23.4140 C   0  0  0  0  0  0  0  0  0  0  0  0
    6.6170   12.4420   25.7590 C   0  0  0  0  0  0  0  0  0  0  0  0
    5.7230   11.4130   26.0430 C   0  0  0  0  0  0  0  0  0  0  0  0
    6.0770   10.1050   25.7160 C   0  0  0  0  0  0  0  0  0  0  0  0
    7.2620    9.8430   25.0440 C   0  0  0  0  0  0  0  0  0  0  0  0
    4.3520   11.7340   26.4960 C   0  0  0  0  0  0  0  0  0  0  0  0
    3.7990   12.9240   26.2190 N   0  0  0  0  0  0  0  0  0  0  0  0
    2.5540   12.8730   26.7510 N   0  0  0  0  0  0  0  0  0  0  0  0
    2.3120   11.6970   27.3450 C   0  0  0  0  0  0  0  0  0  0  0  0
    3.4380   10.9280   27.2060 C   0  0  0  0  0  0  0  0  0  0  0  0
 16 15  1  0
 15 14  1  0
 14 20  2  0
 20 19  1  0
 19 18  2  0
 21 18  1  0
 21 25  1  0
 25 24  2  0
 24 23  1  0
 23 22  1  0
 22 21  2  0
 18 17  1  0
 17 13  2  0
 14 13  1  0
 13 12  1  0
 12 10  1  0
 11 10  2  0
 10  9  1  0
  9  7  1  0
  7  6  1  0
  6  5  1  0
  5  4  1  0
  4  2  1  6
  3  2  1  0
  2  1  2  0
  8  4  1  0
  9  8  1  0
M  END
>  <id>  (631) 
631

>  <inchikey>  (631) 
PUKFQANWMDYRDH-ZDUSSCGKSA-N

>  <alias>  (631) 
A5525b

>  <smiles>  (631) 
CSc1ccc(-c2cc[nH]n2)cc1CC(=O)N1CCC[C@H](C(N)=O)C1

>  <path>  (631) 
/opt/xchem-fragalysis-2/maxwin/BulkDock/TARGETS/A71EV2A/aligned_files/A5525b/A5525b_hippo.pdb

>  <distance_score>  (631) 
None

>  <energy_score>  (631) 
None

>  <compound>  (631) 
PUKFQANWMDYRDH-UHFFFAOYSA-N

>  <compound_id>  (631) 
449

>  <target>  (631) 
A71EV2A

>  <tags>  (631) 
['GOOD count', 'MEDIOCRE count', '[Other] S1 site', 'hits', '[Other] S2 site', '[Other] upload_4 2025-04-02', '[Other] P3 compound design', '[Series] Piperidine series', 'Main status', 'BAD count']

>  <inspirations>  (631) 
None

>  <subsites>  (631) 
None

>  <reference>  (631) 


>  <observation_longname>  (631) 
A71EV2A-x5525_C_201_v4

>  <ConformerSites alias>  (631) 
1b - A0911/A/147

>  <CanonSites alias>  (631) 
1 - Active Site

>  <CrystalformSites alias>  (631) 
F7r - A4303/C/201

>  <Quatassemblies alias>  (631) 
A1 - monomer

>  <Crystalforms alias>  (631) 
F7 - A712A_x4207_8.1_refmac1_1st_ref

>  <ConformerSites upload name>  (631) 
1b - A71EV2A-x0911/A/147

>  <CanonSites upload name>  (631) 
1 - A71EV2A-x0911/A/147/1

>  <CrystalformSites upload name>  (631) 
F7r - A71EV2A-x4303/C/201/1

>  <Quatassemblies upload name>  (631) 
A1 - monomer

>  <Crystalforms upload name>  (631) 
F7 - A712A_x4207_8.1_refmac1_1st_ref

>  <ConformerSites short tag>  (631) 
1b - A0911/A/147

>  <CanonSites short tag>  (631) 
1 - A0911/A/147/1

>  <CrystalformSites short tag>  (631) 
F7r - A4303/C/201

>  <Quatassemblies short tag>  (631) 
A1 - monomer

>  <Crystalforms short tag>  (631) 
F7 - A712A_x4207_8.1_refmac1_1st_ref

>  <Centroid res>  (631) 
A71EV2A-x0911/A/133/A_v1

>  <Experiment code>  (631) 
A71EV2A-x5525

>  <Pose>  (631) 
A5525a

$$$$
A5539a
     RDKit          3D

 21 22  0  0  0  0  0  0  0  0999 V2000
   10.3540   16.6610   19.2020 O   0  0  0  0  0  0  0  0  0  0  0  0
   10.7140   15.5020   19.4450 C   0  0  0  0  0  0  0  0  0  0  0  0
   11.0370   14.6210   18.5020 N   0  0  0  0  0  0  0  0  0  0  0  0
   10.6860   14.9580   20.8620 C   0  0  1  0  0  0  0  0  0  0  0  0
   11.7330   15.6460   21.7470 C   0  0  0  0  0  0  0  0  0  0  0  0
   11.6530   15.1030   23.1790 C   0  0  0  0  0  0  0  0  0  0  0  0
   10.2380   15.2670   23.7320 C   0  0  0  0  0  0  0  0  0  0  0  0
    9.2780   15.1790   21.4310 C   0  0  0  0  0  0  0  0  0  0  0  0
    9.2190   14.7180   22.8190 N   0  0  0  0  0  0  0  0  0  0  0  0
    8.3170   13.7890   23.1830 C   0  0  0  0  0  0  0  0  0  0  0  0
    7.4880   13.3190   22.4520 O   0  0  0  0  0  0  0  0  0  0  0  0
    8.3650   13.5410   24.5260 O   0  0  0  0  0  0  0  0  0  0  0  0
    7.5570   12.4940   24.9930 C   0  0  0  0  0  0  0  0  0  0  0  0
    6.2720   12.7240   25.4710 C   0  0  0  0  0  0  0  0  0  0  0  0
    5.5390   11.6560   25.9750 C   0  0  0  0  0  0  0  0  0  0  0  0
    6.0680   10.3800   25.9680 C   0  0  0  0  0  0  0  0  0  0  0  0
    7.3410   10.1490   25.4650 C   0  0  0  0  0  0  0  0  0  0  0  0
    8.1000   11.2100   24.9810 C   0  0  0  0  0  0  0  0  0  0  0  0
    9.7680   11.0560   24.3890 S   0  0  0  0  0  0  0  0  0  0  0  0
   10.0780    9.2680   24.3000 C   0  0  0  0  0  0  0  0  0  0  0  0
    9.4240    8.6530   23.1270 C   0  0  0  0  0  0  0  0  0  0  0  0
 21 20  1  0
 20 19  1  0
 19 18  1  0
 18 17  1  0
 17 16  2  0
 16 15  1  0
 15 14  2  0
 14 13  1  0
 18 13  2  0
 13 12  1  0
 12 10  1  0
 11 10  2  0
 10  9  1  0
  9  7  1  0
  7  6  1  0
  6  5  1  0
  5  4  1  0
  4  2  1  6
  3  2  1  0
  2  1  2  0
  8  4  1  0
  9  8  1  0
M  END
>  <id>  (632) 
632

>  <inchikey>  (632) 
UTSWDJSCDLAWRT-NSHDSACASA-N

>  <alias>  (632) 
A5539a

>  <smiles>  (632) 
CCSc1ccccc1OC(=O)N1CCC[C@H](C(N)=O)C1

>  <path>  (632) 
/opt/xchem-fragalysis-2/maxwin/BulkDock/TARGETS/A71EV2A/aligned_files/A5539a/A5539a_hippo.pdb

>  <distance_score>  (632) 
None

>  <energy_score>  (632) 
None

>  <compound>  (632) 
UTSWDJSCDLAWRT-UHFFFAOYSA-N

>  <compound_id>  (632) 
450

>  <target>  (632) 
A71EV2A

>  <tags>  (632) 
['GOOD count', 'MEDIOCRE count', '[Other] S1 site', 'hits', '[Other] S2 site', '[Other] P3 compound design', '[Series] Piperidine series', 'Main status', 'BAD count', '[Other] upload_5 2025-04-10']

>  <inspirations>  (632) 
None

>  <subsites>  (632) 
None

>  <reference>  (632) 


>  <observation_longname>  (632) 
A71EV2A-x5539_A_201_v5

>  <ConformerSites alias>  (632) 
1b - A0911/A/147

>  <CanonSites alias>  (632) 
1 - Active Site

>  <CrystalformSites alias>  (632) 
F7q - A4303/A/201

>  <Quatassemblies alias>  (632) 
A1 - monomer

>  <Crystalforms alias>  (632) 
F7 - A712A_x4207_8.1_refmac1_1st_ref

>  <ConformerSites upload name>  (632) 
1b - A71EV2A-x0911/A/147

>  <CanonSites upload name>  (632) 
1 - A71EV2A-x0911/A/147/1

>  <CrystalformSites upload name>  (632) 
F7q - A71EV2A-x4303/A/201/1

>  <Quatassemblies upload name>  (632) 
A1 - monomer

>  <Crystalforms upload name>  (632) 
F7 - A712A_x4207_8.1_refmac1_1st_ref

>  <ConformerSites short tag>  (632) 
1b - A0911/A/147

>  <CanonSites short tag>  (632) 
1 - A0911/A/147/1

>  <CrystalformSites short tag>  (632) 
F7q - A4303/A/201

>  <Quatassemblies short tag>  (632) 
A1 - monomer

>  <Crystalforms short tag>  (632) 
F7 - A712A_x4207_8.1_refmac1_1st_ref

>  <Centroid res>  (632) 
A71EV2A-x0911/A/133/A_v1

>  <Experiment code>  (632) 
A71EV2A-x5539

>  <Pose>  (632) 
A5539a

$$$$
A5539b
     RDKit          3D

 21 22  0  0  0  0  0  0  0  0999 V2000
   10.3490   16.6370   19.1980 O   0  0  0  0  0  0  0  0  0  0  0  0
   10.7390   15.4880   19.4350 C   0  0  0  0  0  0  0  0  0  0  0  0
   11.0440   14.6050   18.4900 N   0  0  0  0  0  0  0  0  0  0  0  0
   10.7950   14.9670   20.8600 C   0  0  1  0  0  0  0  0  0  0  0  0
   11.8530   15.7240   21.6760 C   0  0  0  0  0  0  0  0  0  0  0  0
   11.8530   15.2200   23.1340 C   0  0  0  0  0  0  0  0  0  0  0  0
   10.4600   15.3490   23.7460 C   0  0  0  0  0  0  0  0  0  0  0  0
    9.4160   15.1470   21.5060 C   0  0  0  0  0  0  0  0  0  0  0  0
    9.4530   14.6910   22.8970 N   0  0  0  0  0  0  0  0  0  0  0  0
    8.6040   13.7330   23.3190 C   0  0  0  0  0  0  0  0  0  0  0  0
    7.7590   13.2130   22.6350 O   0  0  0  0  0  0  0  0  0  0  0  0
    8.7800   13.4750   24.6550 O   0  0  0  0  0  0  0  0  0  0  0  0
    7.9840   12.4440   25.1930 C   0  0  0  0  0  0  0  0  0  0  0  0
    6.7510   12.7110   25.7730 C   0  0  0  0  0  0  0  0  0  0  0  0
    6.0150   11.6620   26.3150 C   0  0  0  0  0  0  0  0  0  0  0  0
    6.4940   10.3630   26.2520 C   0  0  0  0  0  0  0  0  0  0  0  0
    7.7190   10.0950   25.6540 C   0  0  0  0  0  0  0  0  0  0  0  0
    8.4820   11.1430   25.1320 C   0  0  0  0  0  0  0  0  0  0  0  0
   10.1150   10.9750   24.4440 S   0  0  0  0  0  0  0  0  0  0  0  0
   10.3340    9.1830   24.3130 C   0  0  0  0  0  0  0  0  0  0  0  0
    9.6010    8.6170   23.1530 C   0  0  0  0  0  0  0  0  0  0  0  0
 21 20  1  0
 20 19  1  0
 19 18  1  0
 18 17  1  0
 17 16  2  0
 16 15  1  0
 15 14  2  0
 14 13  1  0
 18 13  2  0
 13 12  1  0
 12 10  1  0
 11 10  2  0
 10  9  1  0
  9  7  1  0
  7  6  1  0
  6  5  1  0
  5  4  1  0
  4  2  1  6
  3  2  1  0
  2  1  2  0
  8  4  1  0
  9  8  1  0
M  END
>  <id>  (633) 
633

>  <inchikey>  (633) 
UTSWDJSCDLAWRT-NSHDSACASA-N

>  <alias>  (633) 
A5539b

>  <smiles>  (633) 
CCSc1ccccc1OC(=O)N1CCC[C@H](C(N)=O)C1

>  <path>  (633) 
/opt/xchem-fragalysis-2/maxwin/BulkDock/TARGETS/A71EV2A/aligned_files/A5539b/A5539b_hippo.pdb

>  <distance_score>  (633) 
None

>  <energy_score>  (633) 
None

>  <compound>  (633) 
UTSWDJSCDLAWRT-UHFFFAOYSA-N

>  <compound_id>  (633) 
450

>  <target>  (633) 
A71EV2A

>  <tags>  (633) 
['GOOD count', 'MEDIOCRE count', '[Other] S1 site', 'hits', '[Other] S2 site', '[Other] P3 compound design', '[Series] Piperidine series', 'Main status', 'BAD count', '[Other] upload_5 2025-04-10']

>  <inspirations>  (633) 
None

>  <subsites>  (633) 
None

>  <reference>  (633) 


>  <observation_longname>  (633) 
A71EV2A-x5539_C_201_v5

>  <ConformerSites alias>  (633) 
1b - A0911/A/147

>  <CanonSites alias>  (633) 
1 - Active Site

>  <CrystalformSites alias>  (633) 
F7r - A4303/C/201

>  <Quatassemblies alias>  (633) 
A1 - monomer

>  <Crystalforms alias>  (633) 
F7 - A712A_x4207_8.1_refmac1_1st_ref

>  <ConformerSites upload name>  (633) 
1b - A71EV2A-x0911/A/147

>  <CanonSites upload name>  (633) 
1 - A71EV2A-x0911/A/147/1

>  <CrystalformSites upload name>  (633) 
F7r - A71EV2A-x4303/C/201/1

>  <Quatassemblies upload name>  (633) 
A1 - monomer

>  <Crystalforms upload name>  (633) 
F7 - A712A_x4207_8.1_refmac1_1st_ref

>  <ConformerSites short tag>  (633) 
1b - A0911/A/147

>  <CanonSites short tag>  (633) 
1 - A0911/A/147/1

>  <CrystalformSites short tag>  (633) 
F7r - A4303/C/201

>  <Quatassemblies short tag>  (633) 
A1 - monomer

>  <Crystalforms short tag>  (633) 
F7 - A712A_x4207_8.1_refmac1_1st_ref

>  <Centroid res>  (633) 
A71EV2A-x0911/A/133/A_v1

>  <Experiment code>  (633) 
A71EV2A-x5539

>  <Pose>  (633) 
A5539a

$$$$
A5544a
     RDKit          3D

 25 27  0  0  0  0  0  0  0  0999 V2000
   10.3580   16.6630   19.1720 O   0  0  0  0  0  0  0  0  0  0  0  0
   10.7380   15.5120   19.4180 C   0  0  0  0  0  0  0  0  0  0  0  0
   11.1330   14.6650   18.4760 N   0  0  0  0  0  0  0  0  0  0  0  0
   10.7810   14.9880   20.8430 C   0  0  1  0  0  0  0  0  0  0  0  0
   11.8760   15.6970   21.6560 C   0  0  0  0  0  0  0  0  0  0  0  0
   11.9230   15.1910   23.1030 C   0  0  0  0  0  0  0  0  0  0  0  0
   10.5630   15.3160   23.7620 C   0  0  0  0  0  0  0  0  0  0  0  0
    9.4510   15.2350   21.5640 C   0  0  0  0  0  0  0  0  0  0  0  0
    9.5170   14.7030   22.9280 N   0  0  0  0  0  0  0  0  0  0  0  0
    8.6780   13.7190   23.3310 C   0  0  0  0  0  0  0  0  0  0  0  0
    7.7930   13.2860   22.6070 O   0  0  0  0  0  0  0  0  0  0  0  0
    8.8940   13.1700   24.7300 C   0  0  0  0  0  0  0  0  0  0  0  0
    7.9630   12.0300   25.0770 C   0  0  0  0  0  0  0  0  0  0  0  0
    8.2420   10.7090   24.6690 C   0  0  0  0  0  0  0  0  0  0  0  0
    9.5650   10.4770   23.5360 S   0  0  0  0  0  0  0  0  0  0  0  0
    9.5740    8.6940   23.3190 C   0  0  0  0  0  0  0  0  0  0  0  0
    6.8220   12.1920   25.9090 C   0  0  0  0  0  0  0  0  0  0  0  0
    6.0890   11.1390   26.3130 N   0  0  0  0  0  0  0  0  0  0  0  0
    6.4920    9.9420   25.8750 C   0  0  0  0  0  0  0  0  0  0  0  0
    7.5190    9.6530   25.0670 N   0  0  0  0  0  0  0  0  0  0  0  0
    6.3450   13.5510   26.3890 C   0  0  0  0  0  0  0  0  0  0  0  0
    6.8680   14.7940   26.0870 C   0  0  0  0  0  0  0  0  0  0  0  0
    6.1640   15.7180   26.7480 N   0  0  0  0  0  0  0  0  0  0  0  0
    5.1840   15.1570   27.4860 N   0  0  0  0  0  0  0  0  0  0  0  0
    5.2840   13.8450   27.2720 C   0  0  0  0  0  0  0  0  0  0  0  0
 16 15  1  0
 15 14  1  0
 14 20  2  0
 20 19  1  0
 19 18  2  0
 18 17  1  0
 21 17  1  0
 21 25  1  0
 25 24  2  0
 24 23  1  0
 23 22  1  0
 22 21  2  0
 17 13  2  0
 14 13  1  0
 13 12  1  0
 12 10  1  0
 11 10  2  0
 10  9  1  0
  9  7  1  0
  7  6  1  0
  6  5  1  0
  5  4  1  0
  4  2  1  6
  3  2  1  0
  2  1  2  0
  8  4  1  0
  9  8  1  0
M  END
>  <id>  (634) 
634

>  <inchikey>  (634) 
OKXAFTORYCFHDN-JTQLQIEISA-N

>  <alias>  (634) 
A5544a

>  <smiles>  (634) 
CSc1ncnc(-c2cn[nH]c2)c1CC(=O)N1CCC[C@H](C(N)=O)C1

>  <path>  (634) 
/opt/xchem-fragalysis-2/maxwin/BulkDock/TARGETS/A71EV2A/aligned_files/A5544a/A5544a.pdb

>  <distance_score>  (634) 
None

>  <energy_score>  (634) 
None

>  <compound>  (634) 
OKXAFTORYCFHDN-UHFFFAOYSA-N

>  <compound_id>  (634) 
451

>  <target>  (634) 
A71EV2A

>  <tags>  (634) 
['GOOD count', 'MEDIOCRE count', '[Other] S1 site', 'hits', '[Other] S2 site', '[Other] upload_4 2025-04-02', '[Other] P3 compound design', '[Series] Piperidine series', 'Main status', 'BAD count']

>  <inspirations>  (634) 
None

>  <subsites>  (634) 
None

>  <reference>  (634) 


>  <observation_longname>  (634) 
A71EV2A-x5544_A_201_v4

>  <ConformerSites alias>  (634) 
1b - A0911/A/147

>  <CanonSites alias>  (634) 
1 - Active Site

>  <CrystalformSites alias>  (634) 
F8h - A0884/A/147

>  <Quatassemblies alias>  (634) 
A1 - monomer

>  <Crystalforms alias>  (634) 
F8 - A712A_x4271_2.1_refmac1_1st_ref

>  <ConformerSites upload name>  (634) 
1b - A71EV2A-x0911/A/147

>  <CanonSites upload name>  (634) 
1 - A71EV2A-x0911/A/147/1

>  <CrystalformSites upload name>  (634) 
F8h - A71EV2A-x0884/A/147/1

>  <Quatassemblies upload name>  (634) 
A1 - monomer

>  <Crystalforms upload name>  (634) 
F8 - A712A_x4271_2.1_refmac1_1st_ref

>  <ConformerSites short tag>  (634) 
1b - A0911/A/147

>  <CanonSites short tag>  (634) 
1 - A0911/A/147/1

>  <CrystalformSites short tag>  (634) 
F8h - A0884/A/147

>  <Quatassemblies short tag>  (634) 
A1 - monomer

>  <Crystalforms short tag>  (634) 
F8 - A712A_x4271_2.1_refmac1_1st_ref

>  <Centroid res>  (634) 
A71EV2A-x0911/A/133/A_v1

>  <Experiment code>  (634) 
A71EV2A-x5544

>  <Pose>  (634) 
A5544a

$$$$
A5584a
     RDKit          3D

 24 26  0  0  0  0  0  0  0  0999 V2000
   10.4070   16.5850   19.2400 O   0  0  0  0  0  0  0  0  0  0  0  0
   10.7890   15.4280   19.4420 C   0  0  0  0  0  0  0  0  0  0  0  0
   11.0940   14.5910   18.4590 N   0  0  0  0  0  0  0  0  0  0  0  0
   10.8330   14.8490   20.8440 C   0  0  1  0  0  0  0  0  0  0  0  0
   11.8880   15.5280   21.7250 C   0  0  0  0  0  0  0  0  0  0  0  0
   11.8840   14.8980   23.1240 C   0  0  0  0  0  0  0  0  0  0  0  0
   10.4960   14.9590   23.7490 C   0  0  0  0  0  0  0  0  0  0  0  0
    9.4470   14.9970   21.4910 C   0  0  0  0  0  0  0  0  0  0  0  0
    9.4790   14.4150   22.8360 N   0  0  0  0  0  0  0  0  0  0  0  0
    8.4820   13.6070   23.2430 C   0  0  0  0  0  0  0  0  0  0  0  0
    7.5680   13.2520   22.5530 O   0  0  0  0  0  0  0  0  0  0  0  0
    8.6180   13.2920   24.5570 O   0  0  0  0  0  0  0  0  0  0  0  0
    7.6210   12.4830   25.1080 C   0  0  0  0  0  0  0  0  0  0  0  0
    7.6750   11.1140   24.9700 C   0  0  0  0  0  0  0  0  0  0  0  0
    8.5970   10.5830   24.1250 F   0  0  0  0  0  0  0  0  0  0  0  0
    6.7780   10.2810   25.5810 C   0  0  0  0  0  0  0  0  0  0  0  0
    6.6150   13.0360   25.8670 C   0  0  0  0  0  0  0  0  0  0  0  0
    5.6740   12.2210   26.4990 C   0  0  0  0  0  0  0  0  0  0  0  0
    5.7680   10.8270   26.3620 C   0  0  0  0  0  0  0  0  0  0  0  0
    4.7980    9.9130   27.0620 C   0  0  0  0  0  0  0  0  0  0  0  0
    3.5280   10.6570   27.4370 C   0  0  0  0  0  0  0  0  0  0  0  0
    4.5290   12.8550   27.2410 C   0  0  0  0  0  0  0  0  0  0  0  0
    3.8460   11.9140   28.1420 N   0  0  0  0  0  0  0  0  0  0  0  0
    4.6370   11.6830   29.3490 C   0  0  0  0  0  0  0  0  0  0  0  0
 24 23  1  0
 23 21  1  0
 21 20  1  0
 20 19  1  0
 19 16  1  0
 16 14  2  0
 15 14  1  0
 14 13  1  0
 13 12  1  0
 12 10  1  0
 11 10  2  0
 10  9  1  0
  9  7  1  0
  7  6  1  0
  6  5  1  0
  5  4  1  0
  4  2  1  6
  3  2  1  0
  2  1  2  0
  8  4  1  0
  9  8  1  0
 17 13  2  0
 18 17  1  0
 19 18  2  0
 22 18  1  0
 23 22  1  0
M  END
>  <id>  (635) 
635

>  <inchikey>  (635) 
DZKBOOWFKPXVOM-LBPRGKRZSA-N

>  <alias>  (635) 
A5584a

>  <smiles>  (635) 
CN1CCc2cc(F)c(OC(=O)N3CCC[C@H](C(N)=O)C3)cc2C1

>  <path>  (635) 
/opt/xchem-fragalysis-2/maxwin/BulkDock/TARGETS/A71EV2A/aligned_files/A5584a/A5584a_hippo.pdb

>  <distance_score>  (635) 
None

>  <energy_score>  (635) 
None

>  <compound>  (635) 
DZKBOOWFKPXVOM-UHFFFAOYSA-N

>  <compound_id>  (635) 
452

>  <target>  (635) 
A71EV2A

>  <tags>  (635) 
['GOOD count', 'MEDIOCRE count', '[Other] S1 site', 'hits', '[Other] S2 site', '[Other] P3 compound design', '[Series] Piperidine series', 'Main status', 'BAD count', '[Other] upload_5 2025-04-10']

>  <inspirations>  (635) 
None

>  <subsites>  (635) 
None

>  <reference>  (635) 


>  <observation_longname>  (635) 
A71EV2A-x5584_A_201_v5

>  <ConformerSites alias>  (635) 
1b - A0911/A/147

>  <CanonSites alias>  (635) 
1 - Active Site

>  <CrystalformSites alias>  (635) 
F6o - A4214/A/201

>  <Quatassemblies alias>  (635) 
A1 - monomer

>  <Crystalforms alias>  (635) 
F6 - short_long_x4018

>  <ConformerSites upload name>  (635) 
1b - A71EV2A-x0911/A/147

>  <CanonSites upload name>  (635) 
1 - A71EV2A-x0911/A/147/1

>  <CrystalformSites upload name>  (635) 
F6o - A71EV2A-x4214/A/201/1

>  <Quatassemblies upload name>  (635) 
A1 - monomer

>  <Crystalforms upload name>  (635) 
F6 - short_long_x4018

>  <ConformerSites short tag>  (635) 
1b - A0911/A/147

>  <CanonSites short tag>  (635) 
1 - A0911/A/147/1

>  <CrystalformSites short tag>  (635) 
F6o - A4214/A/201

>  <Quatassemblies short tag>  (635) 
A1 - monomer

>  <Crystalforms short tag>  (635) 
F6 - short_long_x4018

>  <Centroid res>  (635) 
A71EV2A-x0911/A/133/A_v1

>  <Experiment code>  (635) 
A71EV2A-x5584

>  <Pose>  (635) 
A5584a

$$$$
A5584b
     RDKit          3D

 24 26  0  0  0  0  0  0  0  0999 V2000
   10.4510   16.5820   19.2340 O   0  0  0  0  0  0  0  0  0  0  0  0
   10.8470   15.4270   19.4490 C   0  0  0  0  0  0  0  0  0  0  0  0
   11.1110   14.5600   18.4710 N   0  0  0  0  0  0  0  0  0  0  0  0
   10.9680   14.8870   20.8620 C   0  0  1  0  0  0  0  0  0  0  0  0
   11.9950   15.6640   21.7130 C   0  0  0  0  0  0  0  0  0  0  0  0
   12.0710   15.0860   23.1360 C   0  0  0  0  0  0  0  0  0  0  0  0
   10.6920   15.0890   23.7940 C   0  0  0  0  0  0  0  0  0  0  0  0
    9.6020   14.9520   21.5460 C   0  0  0  0  0  0  0  0  0  0  0  0
    9.6990   14.4440   22.9180 N   0  0  0  0  0  0  0  0  0  0  0  0
    8.7200   13.6480   23.3910 C   0  0  0  0  0  0  0  0  0  0  0  0
    7.7890   13.2280   22.7460 O   0  0  0  0  0  0  0  0  0  0  0  0
    8.9010   13.4130   24.7240 O   0  0  0  0  0  0  0  0  0  0  0  0
    7.9410   12.6080   25.3540 C   0  0  0  0  0  0  0  0  0  0  0  0
    7.9460   11.2410   25.1860 C   0  0  0  0  0  0  0  0  0  0  0  0
    8.8270   10.7090   24.3170 F   0  0  0  0  0  0  0  0  0  0  0  0
    7.0730   10.4190   25.8500 C   0  0  0  0  0  0  0  0  0  0  0  0
    7.0150   13.1740   26.2000 C   0  0  0  0  0  0  0  0  0  0  0  0
    6.1130   12.3710   26.9040 C   0  0  0  0  0  0  0  0  0  0  0  0
    6.1510   10.9770   26.7300 C   0  0  0  0  0  0  0  0  0  0  0  0
    5.2200   10.0770   27.5050 C   0  0  0  0  0  0  0  0  0  0  0  0
    4.0410   10.8540   28.0720 C   0  0  0  0  0  0  0  0  0  0  0  0
    5.0970   13.0180   27.8190 C   0  0  0  0  0  0  0  0  0  0  0  0
    4.4970   12.0620   28.7710 N   0  0  0  0  0  0  0  0  0  0  0  0
    5.4190   11.7500   29.8760 C   0  0  0  0  0  0  0  0  0  0  0  0
 24 23  1  0
 23 21  1  0
 21 20  1  0
 20 19  1  0
 19 16  1  0
 16 14  2  0
 15 14  1  0
 14 13  1  0
 13 12  1  0
 12 10  1  0
 11 10  2  0
 10  9  1  0
  9  7  1  0
  7  6  1  0
  6  5  1  0
  5  4  1  0
  4  2  1  6
  3  2  1  0
  2  1  2  0
  8  4  1  0
  9  8  1  0
 17 13  2  0
 18 17  1  0
 19 18  2  0
 22 18  1  0
 23 22  1  0
M  END
>  <id>  (636) 
636

>  <inchikey>  (636) 
DZKBOOWFKPXVOM-LBPRGKRZSA-N

>  <alias>  (636) 
A5584b

>  <smiles>  (636) 
CN1CCc2cc(F)c(OC(=O)N3CCC[C@H](C(N)=O)C3)cc2C1

>  <path>  (636) 
/opt/xchem-fragalysis-2/maxwin/BulkDock/TARGETS/A71EV2A/aligned_files/A5584b/A5584b_hippo.pdb

>  <distance_score>  (636) 
None

>  <energy_score>  (636) 
None

>  <compound>  (636) 
DZKBOOWFKPXVOM-UHFFFAOYSA-N

>  <compound_id>  (636) 
452

>  <target>  (636) 
A71EV2A

>  <tags>  (636) 
['GOOD count', 'MEDIOCRE count', '[Other] S1 site', 'hits', '[Other] S2 site', '[Other] P3 compound design', '[Series] Piperidine series', 'Main status', 'BAD count', '[Other] upload_5 2025-04-10']

>  <inspirations>  (636) 
None

>  <subsites>  (636) 
None

>  <reference>  (636) 


>  <observation_longname>  (636) 
A71EV2A-x5584_C_201_v5

>  <ConformerSites alias>  (636) 
1b - A0911/A/147

>  <CanonSites alias>  (636) 
1 - Active Site

>  <CrystalformSites alias>  (636) 
F6p - A4214/C/201

>  <Quatassemblies alias>  (636) 
A1 - monomer

>  <Crystalforms alias>  (636) 
F6 - short_long_x4018

>  <ConformerSites upload name>  (636) 
1b - A71EV2A-x0911/A/147

>  <CanonSites upload name>  (636) 
1 - A71EV2A-x0911/A/147/1

>  <CrystalformSites upload name>  (636) 
F6p - A71EV2A-x4214/C/201/1

>  <Quatassemblies upload name>  (636) 
A1 - monomer

>  <Crystalforms upload name>  (636) 
F6 - short_long_x4018

>  <ConformerSites short tag>  (636) 
1b - A0911/A/147

>  <CanonSites short tag>  (636) 
1 - A0911/A/147/1

>  <CrystalformSites short tag>  (636) 
F6p - A4214/C/201

>  <Quatassemblies short tag>  (636) 
A1 - monomer

>  <Crystalforms short tag>  (636) 
F6 - short_long_x4018

>  <Centroid res>  (636) 
A71EV2A-x0911/A/133/A_v1

>  <Experiment code>  (636) 
A71EV2A-x5584

>  <Pose>  (636) 
A5584a

$$$$
A5594a
     RDKit          3D

 20 21  0  0  0  0  0  0  0  0999 V2000
   10.3770   16.5950   19.2990 O   0  0  0  0  0  0  0  0  0  0  0  0
   10.7650   15.4440   19.5300 C   0  0  0  0  0  0  0  0  0  0  0  0
   11.1210   14.5990   18.5740 N   0  0  0  0  0  0  0  0  0  0  0  0
   10.7330   14.8680   20.9360 C   0  0  1  0  0  0  0  0  0  0  0  0
   11.7930   15.4860   21.8660 C   0  0  0  0  0  0  0  0  0  0  0  0
   11.6750   14.8660   23.2640 C   0  0  0  0  0  0  0  0  0  0  0  0
   10.2490   15.0090   23.8080 C   0  0  0  0  0  0  0  0  0  0  0  0
    9.3260   15.0790   21.5090 C   0  0  0  0  0  0  0  0  0  0  0  0
    9.2480   14.5010   22.8540 N   0  0  0  0  0  0  0  0  0  0  0  0
    8.2710   13.6310   23.1730 C   0  0  0  0  0  0  0  0  0  0  0  0
    7.4160   13.2560   22.4090 O   0  0  0  0  0  0  0  0  0  0  0  0
    8.3470   13.2610   24.4910 O   0  0  0  0  0  0  0  0  0  0  0  0
    7.3950   12.3400   24.9410 C   0  0  0  0  0  0  0  0  0  0  0  0
    7.6090   10.9840   24.6680 C   0  0  0  0  0  0  0  0  0  0  0  0
    8.7330   10.5730   23.8720 C   0  0  0  0  0  0  0  0  0  0  0  0
    9.6300   10.2900   23.2300 N   0  0  0  0  0  0  0  0  0  0  0  0
    6.2990   12.6920   25.7100 C   0  0  0  0  0  0  0  0  0  0  0  0
    5.4460   11.7940   26.2260 N   0  0  0  0  0  0  0  0  0  0  0  0
    5.6710   10.5020   25.9660 C   0  0  0  0  0  0  0  0  0  0  0  0
    6.7160   10.0530   25.1930 C   0  0  0  0  0  0  0  0  0  0  0  0
 16 15  3  0
 15 14  1  0
 14 20  2  0
 20 19  1  0
 19 18  2  0
 18 17  1  0
 17 13  2  0
 14 13  1  0
 13 12  1  0
 12 10  1  0
 11 10  2  0
 10  9  1  0
  9  7  1  0
  7  6  1  0
  6  5  1  0
  5  4  1  0
  4  2  1  6
  3  2  1  0
  2  1  2  0
  8  4  1  0
  9  8  1  0
M  END
>  <id>  (637) 
637

>  <inchikey>  (637) 
HIVMPDDOIHQVRV-JTQLQIEISA-N

>  <alias>  (637) 
A5594a

>  <smiles>  (637) 
N#Cc1ccncc1OC(=O)N1CCC[C@H](C(N)=O)C1

>  <path>  (637) 
/opt/xchem-fragalysis-2/maxwin/BulkDock/TARGETS/A71EV2A/aligned_files/A5594a/A5594a_hippo.pdb

>  <distance_score>  (637) 
None

>  <energy_score>  (637) 
None

>  <compound>  (637) 
HIVMPDDOIHQVRV-UHFFFAOYSA-N

>  <compound_id>  (637) 
453

>  <target>  (637) 
A71EV2A

>  <tags>  (637) 
['GOOD count', 'MEDIOCRE count', '[Other] S1 site', 'hits', '[Other] S2 site', '[Other] P3 compound design', '[Series] Piperidine series', 'Main status', 'BAD count', '[Other] upload_5 2025-04-10']

>  <inspirations>  (637) 
None

>  <subsites>  (637) 
None

>  <reference>  (637) 


>  <observation_longname>  (637) 
A71EV2A-x5594_A_201_v5

>  <ConformerSites alias>  (637) 
1b - A0911/A/147

>  <CanonSites alias>  (637) 
1 - Active Site

>  <CrystalformSites alias>  (637) 
F6o - A4214/A/201

>  <Quatassemblies alias>  (637) 
A1 - monomer

>  <Crystalforms alias>  (637) 
F6 - short_long_x4018

>  <ConformerSites upload name>  (637) 
1b - A71EV2A-x0911/A/147

>  <CanonSites upload name>  (637) 
1 - A71EV2A-x0911/A/147/1

>  <CrystalformSites upload name>  (637) 
F6o - A71EV2A-x4214/A/201/1

>  <Quatassemblies upload name>  (637) 
A1 - monomer

>  <Crystalforms upload name>  (637) 
F6 - short_long_x4018

>  <ConformerSites short tag>  (637) 
1b - A0911/A/147

>  <CanonSites short tag>  (637) 
1 - A0911/A/147/1

>  <CrystalformSites short tag>  (637) 
F6o - A4214/A/201

>  <Quatassemblies short tag>  (637) 
A1 - monomer

>  <Crystalforms short tag>  (637) 
F6 - short_long_x4018

>  <Centroid res>  (637) 
A71EV2A-x0911/A/133/A_v1

>  <Experiment code>  (637) 
A71EV2A-x5594

>  <Pose>  (637) 
A5594a

$$$$
A5594b
     RDKit          3D

 20 21  0  0  0  0  0  0  0  0999 V2000
   10.4610   16.5880   19.2490 O   0  0  0  0  0  0  0  0  0  0  0  0
   10.8420   15.4270   19.4750 C   0  0  0  0  0  0  0  0  0  0  0  0
   11.1150   14.5640   18.5020 N   0  0  0  0  0  0  0  0  0  0  0  0
   10.9110   14.8790   20.8910 C   0  0  1  0  0  0  0  0  0  0  0  0
   11.9620   15.5970   21.7630 C   0  0  0  0  0  0  0  0  0  0  0  0
   11.9460   15.0250   23.1980 C   0  0  0  0  0  0  0  0  0  0  0  0
   10.5440   15.1240   23.8010 C   0  0  0  0  0  0  0  0  0  0  0  0
    9.5320   15.0440   21.5330 C   0  0  0  0  0  0  0  0  0  0  0  0
    9.5550   14.5100   22.9000 N   0  0  0  0  0  0  0  0  0  0  0  0
    8.6030   13.6470   23.3060 C   0  0  0  0  0  0  0  0  0  0  0  0
    7.7070   13.2290   22.6160 O   0  0  0  0  0  0  0  0  0  0  0  0
    8.7250   13.3820   24.6480 O   0  0  0  0  0  0  0  0  0  0  0  0
    7.8400   12.4280   25.1690 C   0  0  0  0  0  0  0  0  0  0  0  0
    8.0300   11.0730   24.8580 C   0  0  0  0  0  0  0  0  0  0  0  0
    9.1090   10.6510   23.9990 C   0  0  0  0  0  0  0  0  0  0  0  0
    9.9650   10.3500   23.3010 N   0  0  0  0  0  0  0  0  0  0  0  0
    6.8120   12.7750   26.0250 C   0  0  0  0  0  0  0  0  0  0  0  0
    5.9910   11.8720   26.5870 N   0  0  0  0  0  0  0  0  0  0  0  0
    6.1760   10.5860   26.2720 C   0  0  0  0  0  0  0  0  0  0  0  0
    7.1610   10.1430   25.4220 C   0  0  0  0  0  0  0  0  0  0  0  0
 16 15  3  0
 15 14  1  0
 14 20  2  0
 20 19  1  0
 19 18  2  0
 18 17  1  0
 17 13  2  0
 14 13  1  0
 13 12  1  0
 12 10  1  0
 11 10  2  0
 10  9  1  0
  9  7  1  0
  7  6  1  0
  6  5  1  0
  5  4  1  0
  4  2  1  6
  3  2  1  0
  2  1  2  0
  8  4  1  0
  9  8  1  0
M  END
>  <id>  (638) 
638

>  <inchikey>  (638) 
HIVMPDDOIHQVRV-JTQLQIEISA-N

>  <alias>  (638) 
A5594b

>  <smiles>  (638) 
N#Cc1ccncc1OC(=O)N1CCC[C@H](C(N)=O)C1

>  <path>  (638) 
/opt/xchem-fragalysis-2/maxwin/BulkDock/TARGETS/A71EV2A/aligned_files/A5594b/A5594b_hippo.pdb

>  <distance_score>  (638) 
None

>  <energy_score>  (638) 
None

>  <compound>  (638) 
HIVMPDDOIHQVRV-UHFFFAOYSA-N

>  <compound_id>  (638) 
453

>  <target>  (638) 
A71EV2A

>  <tags>  (638) 
['GOOD count', 'MEDIOCRE count', '[Other] S1 site', 'hits', '[Other] S2 site', '[Other] P3 compound design', '[Series] Piperidine series', 'Main status', 'BAD count', '[Other] upload_5 2025-04-10']

>  <inspirations>  (638) 
None

>  <subsites>  (638) 
None

>  <reference>  (638) 


>  <observation_longname>  (638) 
A71EV2A-x5594_C_201_v5

>  <ConformerSites alias>  (638) 
1b - A0911/A/147

>  <CanonSites alias>  (638) 
1 - Active Site

>  <CrystalformSites alias>  (638) 
F6p - A4214/C/201

>  <Quatassemblies alias>  (638) 
A1 - monomer

>  <Crystalforms alias>  (638) 
F6 - short_long_x4018

>  <ConformerSites upload name>  (638) 
1b - A71EV2A-x0911/A/147

>  <CanonSites upload name>  (638) 
1 - A71EV2A-x0911/A/147/1

>  <CrystalformSites upload name>  (638) 
F6p - A71EV2A-x4214/C/201/1

>  <Quatassemblies upload name>  (638) 
A1 - monomer

>  <Crystalforms upload name>  (638) 
F6 - short_long_x4018

>  <ConformerSites short tag>  (638) 
1b - A0911/A/147

>  <CanonSites short tag>  (638) 
1 - A0911/A/147/1

>  <CrystalformSites short tag>  (638) 
F6p - A4214/C/201

>  <Quatassemblies short tag>  (638) 
A1 - monomer

>  <Crystalforms short tag>  (638) 
F6 - short_long_x4018

>  <Centroid res>  (638) 
A71EV2A-x0911/A/133/A_v1

>  <Experiment code>  (638) 
A71EV2A-x5594

>  <Pose>  (638) 
A5594a

$$$$
A5598a
     RDKit          3D

 26 28  0  0  0  0  0  0  0  0999 V2000
   10.2810   16.6330   19.2560 O   0  0  0  0  0  0  0  0  0  0  0  0
   10.6410   15.4720   19.4630 C   0  0  0  0  0  0  0  0  0  0  0  0
   11.0330   14.6540   18.4850 N   0  0  0  0  0  0  0  0  0  0  0  0
   10.6120   14.8810   20.8640 C   0  0  1  0  0  0  0  0  0  0  0  0
   11.7420   15.4430   21.7440 C   0  0  0  0  0  0  0  0  0  0  0  0
   11.6530   14.8790   23.1700 C   0  0  0  0  0  0  0  0  0  0  0  0
   10.2850   15.1520   23.7690 C   0  0  0  0  0  0  0  0  0  0  0  0
    9.2650   15.2380   21.5080 C   0  0  0  0  0  0  0  0  0  0  0  0
    9.1930   14.7120   22.8760 N   0  0  0  0  0  0  0  0  0  0  0  0
    8.3090   13.7050   23.1700 C   0  0  0  0  0  0  0  0  0  0  0  0
    7.5440   13.2600   22.3270 O   0  0  0  0  0  0  0  0  0  0  0  0
    8.2810   13.2870   24.4640 N   0  0  0  0  0  0  0  0  0  0  0  0
    7.5130   12.1940   24.9160 C   0  0  0  0  0  0  0  0  0  0  0  0
    7.9020   10.8960   24.5420 C   0  0  0  0  0  0  0  0  0  0  0  0
    9.3320   10.6910   23.5190 S   0  0  0  0  0  0  0  0  0  0  0  0
    9.3680    8.9180   23.2050 C   0  0  0  0  0  0  0  0  0  0  0  0
    6.4060   12.3610   25.7510 C   0  0  0  0  0  0  0  0  0  0  0  0
    5.6790   11.2660   26.2310 C   0  0  0  0  0  0  0  0  0  0  0  0
    6.0870    9.9890   25.8490 C   0  0  0  0  0  0  0  0  0  0  0  0
    7.1830    9.8040   25.0230 C   0  0  0  0  0  0  0  0  0  0  0  0
    4.5180   11.4390   27.0310 N   0  0  0  0  0  0  0  0  0  0  0  0
    3.9900   10.2780   27.7700 C   0  0  0  0  0  0  0  0  0  0  0  0
    2.5610   10.5080   28.2250 C   0  0  0  0  0  0  0  0  0  0  0  0
    2.4190   11.7440   28.9210 O   0  0  0  0  0  0  0  0  0  0  0  0
    2.7800   12.8270   28.0570 C   0  0  0  0  0  0  0  0  0  0  0  0
    4.2410   12.7420   27.6520 C   0  0  0  0  0  0  0  0  0  0  0  0
 16 15  1  0
 15 14  1  0
 14 20  2  0
 20 19  1  0
 19 18  2  0
 21 18  1  0
 21 26  1  0
 26 25  1  0
 25 24  1  0
 24 23  1  0
 23 22  1  0
 22 21  1  0
 18 17  1  0
 17 13  2  0
 14 13  1  0
 13 12  1  0
 12 10  1  0
 11 10  2  0
 10  9  1  0
  9  7  1  0
  7  6  1  0
  6  5  1  0
  5  4  1  0
  4  2  1  6
  3  2  1  0
  2  1  2  0
  8  4  1  0
  9  8  1  0
M  END
>  <id>  (639) 
639

>  <inchikey>  (639) 
DTYSDMKYQACGHV-ZDUSSCGKSA-N

>  <alias>  (639) 
A5598a

>  <smiles>  (639) 
CSc1ccc(N2CCOCC2)cc1NC(=O)N1CCC[C@H](C(N)=O)C1

>  <path>  (639) 
/opt/xchem-fragalysis-2/maxwin/BulkDock/TARGETS/A71EV2A/aligned_files/A5598a/A5598a_hippo.pdb

>  <distance_score>  (639) 
None

>  <energy_score>  (639) 
None

>  <compound>  (639) 
DTYSDMKYQACGHV-UHFFFAOYSA-N

>  <compound_id>  (639) 
454

>  <target>  (639) 
A71EV2A

>  <tags>  (639) 
['GOOD count', 'MEDIOCRE count', '[Other] S1 site', 'hits', '[Other] S2 site', '[Other] P3 compound design', '[Series] Piperidine series', 'Main status', 'BAD count', '[Other] upload_5 2025-04-10']

>  <inspirations>  (639) 
None

>  <subsites>  (639) 
None

>  <reference>  (639) 


>  <observation_longname>  (639) 
A71EV2A-x5598_A_201_v5

>  <ConformerSites alias>  (639) 
1b - A0911/A/147

>  <CanonSites alias>  (639) 
1 - Active Site

>  <CrystalformSites alias>  (639) 
F7q - A4303/A/201

>  <Quatassemblies alias>  (639) 
A1 - monomer

>  <Crystalforms alias>  (639) 
F7 - A712A_x4207_8.1_refmac1_1st_ref

>  <ConformerSites upload name>  (639) 
1b - A71EV2A-x0911/A/147

>  <CanonSites upload name>  (639) 
1 - A71EV2A-x0911/A/147/1

>  <CrystalformSites upload name>  (639) 
F7q - A71EV2A-x4303/A/201/1

>  <Quatassemblies upload name>  (639) 
A1 - monomer

>  <Crystalforms upload name>  (639) 
F7 - A712A_x4207_8.1_refmac1_1st_ref

>  <ConformerSites short tag>  (639) 
1b - A0911/A/147

>  <CanonSites short tag>  (639) 
1 - A0911/A/147/1

>  <CrystalformSites short tag>  (639) 
F7q - A4303/A/201

>  <Quatassemblies short tag>  (639) 
A1 - monomer

>  <Crystalforms short tag>  (639) 
F7 - A712A_x4207_8.1_refmac1_1st_ref

>  <Centroid res>  (639) 
A71EV2A-x0911/A/133/A_v1

>  <Experiment code>  (639) 
A71EV2A-x5598

>  <Pose>  (639) 
A5598a

$$$$
A5598b
     RDKit          3D

 26 28  0  0  0  0  0  0  0  0999 V2000
   10.3150   16.5750   19.3000 O   0  0  0  0  0  0  0  0  0  0  0  0
   10.7110   15.4190   19.5030 C   0  0  0  0  0  0  0  0  0  0  0  0
   11.0540   14.5910   18.5200 N   0  0  0  0  0  0  0  0  0  0  0  0
   10.7880   14.8530   20.9130 C   0  0  1  0  0  0  0  0  0  0  0  0
   11.9650   15.4650   21.6970 C   0  0  0  0  0  0  0  0  0  0  0  0
   12.0110   14.9250   23.1400 C   0  0  0  0  0  0  0  0  0  0  0  0
   10.6950   15.2050   23.8560 C   0  0  0  0  0  0  0  0  0  0  0  0
    9.5060   15.2040   21.6780 C   0  0  0  0  0  0  0  0  0  0  0  0
    9.5640   14.7060   23.0580 N   0  0  0  0  0  0  0  0  0  0  0  0
    8.7570   13.6680   23.4410 C   0  0  0  0  0  0  0  0  0  0  0  0
    7.9230   13.2060   22.6800 O   0  0  0  0  0  0  0  0  0  0  0  0
    8.8890   13.2250   24.7320 N   0  0  0  0  0  0  0  0  0  0  0  0
    8.1260   12.1430   25.2550 C   0  0  0  0  0  0  0  0  0  0  0  0
    8.4150   10.8400   24.8210 C   0  0  0  0  0  0  0  0  0  0  0  0
    9.7260   10.6160   23.6630 S   0  0  0  0  0  0  0  0  0  0  0  0
    9.7010    8.8490   23.3150 C   0  0  0  0  0  0  0  0  0  0  0  0
    7.1000   12.3390   26.1740 C   0  0  0  0  0  0  0  0  0  0  0  0
    6.3580   11.2730   26.6880 C   0  0  0  0  0  0  0  0  0  0  0  0
    6.6650    9.9810   26.2450 C   0  0  0  0  0  0  0  0  0  0  0  0
    7.6800    9.7690   25.3260 C   0  0  0  0  0  0  0  0  0  0  0  0
    5.3310   11.4940   27.6450 N   0  0  0  0  0  0  0  0  0  0  0  0
    4.6350   10.3340   28.2270 C   0  0  0  0  0  0  0  0  0  0  0  0
    3.8980   10.7440   29.4870 C   0  0  0  0  0  0  0  0  0  0  0  0
    3.0310   11.8640   29.2530 O   0  0  0  0  0  0  0  0  0  0  0  0
    3.7790   12.9970   28.8040 C   0  0  0  0  0  0  0  0  0  0  0  0
    4.4960   12.7010   27.5050 C   0  0  0  0  0  0  0  0  0  0  0  0
 16 15  1  0
 15 14  1  0
 14 20  2  0
 20 19  1  0
 19 18  2  0
 21 18  1  0
 21 26  1  0
 26 25  1  0
 25 24  1  0
 24 23  1  0
 23 22  1  0
 22 21  1  0
 18 17  1  0
 17 13  2  0
 14 13  1  0
 13 12  1  0
 12 10  1  0
 11 10  2  0
 10  9  1  0
  9  7  1  0
  7  6  1  0
  6  5  1  0
  5  4  1  0
  4  2  1  6
  3  2  1  0
  2  1  2  0
  8  4  1  0
  9  8  1  0
M  END
>  <id>  (640) 
640

>  <inchikey>  (640) 
DTYSDMKYQACGHV-ZDUSSCGKSA-N

>  <alias>  (640) 
A5598b

>  <smiles>  (640) 
CSc1ccc(N2CCOCC2)cc1NC(=O)N1CCC[C@H](C(N)=O)C1

>  <path>  (640) 
/opt/xchem-fragalysis-2/maxwin/BulkDock/TARGETS/A71EV2A/aligned_files/A5598b/A5598b_hippo.pdb

>  <distance_score>  (640) 
None

>  <energy_score>  (640) 
None

>  <compound>  (640) 
DTYSDMKYQACGHV-UHFFFAOYSA-N

>  <compound_id>  (640) 
454

>  <target>  (640) 
A71EV2A

>  <tags>  (640) 
['GOOD count', 'MEDIOCRE count', '[Other] S1 site', 'hits', '[Other] S2 site', '[Other] P3 compound design', '[Series] Piperidine series', 'Main status', 'BAD count', '[Other] upload_5 2025-04-10']

>  <inspirations>  (640) 
None

>  <subsites>  (640) 
None

>  <reference>  (640) 


>  <observation_longname>  (640) 
A71EV2A-x5598_C_201_v5

>  <ConformerSites alias>  (640) 
1b - A0911/A/147

>  <CanonSites alias>  (640) 
1 - Active Site

>  <CrystalformSites alias>  (640) 
F7r - A4303/C/201

>  <Quatassemblies alias>  (640) 
A1 - monomer

>  <Crystalforms alias>  (640) 
F7 - A712A_x4207_8.1_refmac1_1st_ref

>  <ConformerSites upload name>  (640) 
1b - A71EV2A-x0911/A/147

>  <CanonSites upload name>  (640) 
1 - A71EV2A-x0911/A/147/1

>  <CrystalformSites upload name>  (640) 
F7r - A71EV2A-x4303/C/201/1

>  <Quatassemblies upload name>  (640) 
A1 - monomer

>  <Crystalforms upload name>  (640) 
F7 - A712A_x4207_8.1_refmac1_1st_ref

>  <ConformerSites short tag>  (640) 
1b - A0911/A/147

>  <CanonSites short tag>  (640) 
1 - A0911/A/147/1

>  <CrystalformSites short tag>  (640) 
F7r - A4303/C/201

>  <Quatassemblies short tag>  (640) 
A1 - monomer

>  <Crystalforms short tag>  (640) 
F7 - A712A_x4207_8.1_refmac1_1st_ref

>  <Centroid res>  (640) 
A71EV2A-x0911/A/133/A_v1

>  <Experiment code>  (640) 
A71EV2A-x5598

>  <Pose>  (640) 
A5598a

$$$$
A5599a
     RDKit          3D

 22 24  0  0  0  0  0  0  0  0999 V2000
   10.3610   16.7360   19.1810 O   0  0  0  0  0  0  0  0  0  0  0  0
   10.6750   15.5690   19.4130 C   0  0  0  0  0  0  0  0  0  0  0  0
   10.9710   14.7010   18.4580 N   0  0  0  0  0  0  0  0  0  0  0  0
   10.6830   15.0280   20.8330 C   0  0  1  0  0  0  0  0  0  0  0  0
   11.7490   15.7180   21.7030 C   0  0  0  0  0  0  0  0  0  0  0  0
   11.7220   15.1530   23.1320 C   0  0  0  0  0  0  0  0  0  0  0  0
   10.3250   15.2880   23.7430 C   0  0  0  0  0  0  0  0  0  0  0  0
    9.3110   15.3160   21.4600 C   0  0  0  0  0  0  0  0  0  0  0  0
    9.2720   14.7990   22.8310 N   0  0  0  0  0  0  0  0  0  0  0  0
    8.4480   13.7700   23.1250 C   0  0  0  0  0  0  0  0  0  0  0  0
    7.5970   13.3340   22.3920 O   0  0  0  0  0  0  0  0  0  0  0  0
    8.6240   13.3510   24.4030 O   0  0  0  0  0  0  0  0  0  0  0  0
    7.8950   12.2290   24.7800 C   0  0  0  0  0  0  0  0  0  0  0  0
    6.7800   12.3680   25.6040 C   0  0  0  0  0  0  0  0  0  0  0  0
    6.2930   13.7180   26.0690 C   0  0  0  0  0  0  0  0  0  0  0  0
    8.3720   10.9940   24.3650 C   0  0  0  0  0  0  0  0  0  0  0  0
    9.5950   10.6570   23.5540 C   0  0  0  0  0  0  0  0  0  0  0  0
    9.7390    9.1540   23.7240 C   0  0  0  0  0  0  0  0  0  0  0  0
    8.3700    8.6410   24.1750 C   0  0  0  0  0  0  0  0  0  0  0  0
    7.7170    9.8530   24.7830 C   0  0  0  0  0  0  0  0  0  0  0  0
    6.6090    9.9500   25.6200 C   0  0  0  0  0  0  0  0  0  0  0  0
    6.1510   11.1950   26.0210 C   0  0  0  0  0  0  0  0  0  0  0  0
 15 14  1  0
 14 22  2  0
 22 21  1  0
 21 20  2  0
 20 16  1  0
 16 13  2  0
 14 13  1  0
 13 12  1  0
 12 10  1  0
 11 10  2  0
 10  9  1  0
  9  7  1  0
  7  6  1  0
  6  5  1  0
  5  4  1  0
  4  2  1  6
  3  2  1  0
  2  1  2  0
  8  4  1  0
  9  8  1  0
 17 16  1  0
 18 17  1  0
 19 18  1  0
 20 19  1  0
M  END
>  <id>  (641) 
641

>  <inchikey>  (641) 
DHLNTWFIHNKPQE-ZDUSSCGKSA-N

>  <alias>  (641) 
A5599a

>  <smiles>  (641) 
Cc1ccc2c(c1OC(=O)N1CCC[C@H](C(N)=O)C1)CCC2

>  <path>  (641) 
/opt/xchem-fragalysis-2/maxwin/BulkDock/TARGETS/A71EV2A/aligned_files/A5599a/A5599a_hippo.pdb

>  <distance_score>  (641) 
None

>  <energy_score>  (641) 
None

>  <compound>  (641) 
DHLNTWFIHNKPQE-UHFFFAOYSA-N

>  <compound_id>  (641) 
455

>  <target>  (641) 
A71EV2A

>  <tags>  (641) 
['GOOD count', 'MEDIOCRE count', '[Other] S1 site', 'hits', '[Other] S2 site', '[Other] P3 compound design', '[Series] Piperidine series', 'Main status', 'BAD count', '[Other] upload_5 2025-04-10']

>  <inspirations>  (641) 
None

>  <subsites>  (641) 
None

>  <reference>  (641) 


>  <observation_longname>  (641) 
A71EV2A-x5599_A_201_v5

>  <ConformerSites alias>  (641) 
1b - A0911/A/147

>  <CanonSites alias>  (641) 
1 - Active Site

>  <CrystalformSites alias>  (641) 
F7q - A4303/A/201

>  <Quatassemblies alias>  (641) 
A1 - monomer

>  <Crystalforms alias>  (641) 
F7 - A712A_x4207_8.1_refmac1_1st_ref

>  <ConformerSites upload name>  (641) 
1b - A71EV2A-x0911/A/147

>  <CanonSites upload name>  (641) 
1 - A71EV2A-x0911/A/147/1

>  <CrystalformSites upload name>  (641) 
F7q - A71EV2A-x4303/A/201/1

>  <Quatassemblies upload name>  (641) 
A1 - monomer

>  <Crystalforms upload name>  (641) 
F7 - A712A_x4207_8.1_refmac1_1st_ref

>  <ConformerSites short tag>  (641) 
1b - A0911/A/147

>  <CanonSites short tag>  (641) 
1 - A0911/A/147/1

>  <CrystalformSites short tag>  (641) 
F7q - A4303/A/201

>  <Quatassemblies short tag>  (641) 
A1 - monomer

>  <Crystalforms short tag>  (641) 
F7 - A712A_x4207_8.1_refmac1_1st_ref

>  <Centroid res>  (641) 
A71EV2A-x0911/A/133/A_v1

>  <Experiment code>  (641) 
A71EV2A-x5599

>  <Pose>  (641) 
A5599a

$$$$
A5599b
     RDKit          3D

 22 24  0  0  0  0  0  0  0  0999 V2000
   10.3600   16.7360   19.1920 O   0  0  0  0  0  0  0  0  0  0  0  0
   10.7240   15.5720   19.4070 C   0  0  0  0  0  0  0  0  0  0  0  0
   11.0240   14.7110   18.4430 N   0  0  0  0  0  0  0  0  0  0  0  0
   10.8100   15.0300   20.8230 C   0  0  1  0  0  0  0  0  0  0  0  0
   11.8900   15.7620   21.6410 C   0  0  0  0  0  0  0  0  0  0  0  0
   11.9290   15.2430   23.0870 C   0  0  0  0  0  0  0  0  0  0  0  0
   10.5500   15.3690   23.7370 C   0  0  0  0  0  0  0  0  0  0  0  0
    9.4610   15.2760   21.5110 C   0  0  0  0  0  0  0  0  0  0  0  0
    9.5050   14.7700   22.8830 N   0  0  0  0  0  0  0  0  0  0  0  0
    8.7330   13.7140   23.2290 C   0  0  0  0  0  0  0  0  0  0  0  0
    7.8530   13.2460   22.5400 O   0  0  0  0  0  0  0  0  0  0  0  0
    9.0070   13.2960   24.5050 O   0  0  0  0  0  0  0  0  0  0  0  0
    8.3030   12.1600   24.9180 C   0  0  0  0  0  0  0  0  0  0  0  0
    7.2270   12.2980   25.7970 C   0  0  0  0  0  0  0  0  0  0  0  0
    6.7780   13.6500   26.2950 C   0  0  0  0  0  0  0  0  0  0  0  0
    8.7410   10.9290   24.4620 C   0  0  0  0  0  0  0  0  0  0  0  0
    9.9220   10.5990   23.5940 C   0  0  0  0  0  0  0  0  0  0  0  0
   10.0580    9.0850   23.7350 C   0  0  0  0  0  0  0  0  0  0  0  0
    8.7020    8.5760   24.2290 C   0  0  0  0  0  0  0  0  0  0  0  0
    8.0880    9.7830   24.8840 C   0  0  0  0  0  0  0  0  0  0  0  0
    7.0170    9.8770   25.7700 C   0  0  0  0  0  0  0  0  0  0  0  0
    6.5960   11.1210   26.2150 C   0  0  0  0  0  0  0  0  0  0  0  0
 15 14  1  0
 14 22  2  0
 22 21  1  0
 21 20  2  0
 20 16  1  0
 16 13  2  0
 14 13  1  0
 13 12  1  0
 12 10  1  0
 11 10  2  0
 10  9  1  0
  9  7  1  0
  7  6  1  0
  6  5  1  0
  5  4  1  0
  4  2  1  6
  3  2  1  0
  2  1  2  0
  8  4  1  0
  9  8  1  0
 17 16  1  0
 18 17  1  0
 19 18  1  0
 20 19  1  0
M  END
>  <id>  (642) 
642

>  <inchikey>  (642) 
DHLNTWFIHNKPQE-ZDUSSCGKSA-N

>  <alias>  (642) 
A5599b

>  <smiles>  (642) 
Cc1ccc2c(c1OC(=O)N1CCC[C@H](C(N)=O)C1)CCC2

>  <path>  (642) 
/opt/xchem-fragalysis-2/maxwin/BulkDock/TARGETS/A71EV2A/aligned_files/A5599b/A5599b_hippo.pdb

>  <distance_score>  (642) 
None

>  <energy_score>  (642) 
None

>  <compound>  (642) 
DHLNTWFIHNKPQE-UHFFFAOYSA-N

>  <compound_id>  (642) 
455

>  <target>  (642) 
A71EV2A

>  <tags>  (642) 
['GOOD count', 'MEDIOCRE count', '[Other] S1 site', 'hits', '[Other] S2 site', '[Other] P3 compound design', '[Series] Piperidine series', 'Main status', 'BAD count', '[Other] upload_5 2025-04-10']

>  <inspirations>  (642) 
None

>  <subsites>  (642) 
None

>  <reference>  (642) 


>  <observation_longname>  (642) 
A71EV2A-x5599_C_201_v5

>  <ConformerSites alias>  (642) 
1b - A0911/A/147

>  <CanonSites alias>  (642) 
1 - Active Site

>  <CrystalformSites alias>  (642) 
F7r - A4303/C/201

>  <Quatassemblies alias>  (642) 
A1 - monomer

>  <Crystalforms alias>  (642) 
F7 - A712A_x4207_8.1_refmac1_1st_ref

>  <ConformerSites upload name>  (642) 
1b - A71EV2A-x0911/A/147

>  <CanonSites upload name>  (642) 
1 - A71EV2A-x0911/A/147/1

>  <CrystalformSites upload name>  (642) 
F7r - A71EV2A-x4303/C/201/1

>  <Quatassemblies upload name>  (642) 
A1 - monomer

>  <Crystalforms upload name>  (642) 
F7 - A712A_x4207_8.1_refmac1_1st_ref

>  <ConformerSites short tag>  (642) 
1b - A0911/A/147

>  <CanonSites short tag>  (642) 
1 - A0911/A/147/1

>  <CrystalformSites short tag>  (642) 
F7r - A4303/C/201

>  <Quatassemblies short tag>  (642) 
A1 - monomer

>  <Crystalforms short tag>  (642) 
F7 - A712A_x4207_8.1_refmac1_1st_ref

>  <Centroid res>  (642) 
A71EV2A-x0911/A/133/A_v1

>  <Experiment code>  (642) 
A71EV2A-x5599

>  <Pose>  (642) 
A5599a

$$$$
A5604a
     RDKit          3D

 25 27  0  0  0  0  0  0  0  0999 V2000
   10.4820   16.7260   19.1620 O   0  0  0  0  0  0  0  0  0  0  0  0
   10.7510   15.5470   19.4240 C   0  0  0  0  0  0  0  0  0  0  0  0
   11.0470   14.6560   18.4920 N   0  0  0  0  0  0  0  0  0  0  0  0
   10.7360   15.0360   20.8550 C   0  0  1  0  0  0  0  0  0  0  0  0
   11.6760   15.8550   21.7530 C   0  0  0  0  0  0  0  0  0  0  0  0
   11.6660   15.3340   23.1970 C   0  0  0  0  0  0  0  0  0  0  0  0
   10.2550   15.3140   23.7520 C   0  0  0  0  0  0  0  0  0  0  0  0
    9.3340   15.1470   21.4610 C   0  0  0  0  0  0  0  0  0  0  0  0
    9.3210   14.6380   22.8370 N   0  0  0  0  0  0  0  0  0  0  0  0
    8.4000   13.7200   23.2130 C   0  0  0  0  0  0  0  0  0  0  0  0
    7.6130   13.2300   22.4180 O   0  0  0  0  0  0  0  0  0  0  0  0
    8.3350   13.3710   24.6900 C   0  0  0  0  0  0  0  0  0  0  0  0
    7.4900   12.1460   24.9610 C   0  0  0  0  0  0  0  0  0  0  0  0
    7.8790   10.8350   24.6350 C   0  0  0  0  0  0  0  0  0  0  0  0
    9.3440   10.6130   23.6680 S   0  0  0  0  0  0  0  0  0  0  0  0
    9.4480    8.8360   23.4280 C   0  0  0  0  0  0  0  0  0  0  0  0
    6.2650   12.3380   25.6070 C   0  0  0  0  0  0  0  0  0  0  0  0
    5.4500   11.2590   25.9250 C   0  0  0  0  0  0  0  0  0  0  0  0
    5.8700    9.9670   25.6480 C   0  0  0  0  0  0  0  0  0  0  0  0
    7.0800    9.7540   25.0090 C   0  0  0  0  0  0  0  0  0  0  0  0
    4.1410   11.4870   26.4520 N   0  0  0  0  0  0  0  0  0  0  0  0
    3.5250   12.6900   26.2650 N   0  0  0  0  0  0  0  0  0  0  0  0
    2.3610   12.5560   26.8940 C   0  0  0  0  0  0  0  0  0  0  0  0
    2.2080   11.2960   27.4640 C   0  0  0  0  0  0  0  0  0  0  0  0
    3.3660   10.6300   27.1680 C   0  0  0  0  0  0  0  0  0  0  0  0
 16 15  1  0
 15 14  1  0
 14 20  2  0
 20 19  1  0
 19 18  2  0
 21 18  1  0
 21 25  1  0
 25 24  2  0
 24 23  1  0
 23 22  2  0
 22 21  1  0
 18 17  1  0
 17 13  2  0
 14 13  1  0
 13 12  1  0
 12 10  1  0
 11 10  2  0
 10  9  1  0
  9  7  1  0
  7  6  1  0
  6  5  1  0
  5  4  1  0
  4  2  1  6
  3  2  1  0
  2  1  2  0
  8  4  1  0
  9  8  1  0
M  END
>  <id>  (643) 
643

>  <inchikey>  (643) 
ABVHNYDJTCAVQG-ZDUSSCGKSA-N

>  <alias>  (643) 
A5604a

>  <smiles>  (643) 
CSc1ccc(-n2cccn2)cc1CC(=O)N1CCC[C@H](C(N)=O)C1

>  <path>  (643) 
/opt/xchem-fragalysis-2/maxwin/BulkDock/TARGETS/A71EV2A/aligned_files/A5604a/A5604a.pdb

>  <distance_score>  (643) 
None

>  <energy_score>  (643) 
None

>  <compound>  (643) 
ABVHNYDJTCAVQG-UHFFFAOYSA-N

>  <compound_id>  (643) 
456

>  <target>  (643) 
A71EV2A

>  <tags>  (643) 
['GOOD count', 'MEDIOCRE count', '[Other] S1 site', 'hits', '[Other] S2 site', '[Other] P3 compound design', '[Series] Piperidine series', 'Main status', 'BAD count', '[Other] upload_5 2025-04-10']

>  <inspirations>  (643) 
None

>  <subsites>  (643) 
None

>  <reference>  (643) 


>  <observation_longname>  (643) 
A71EV2A-x5604_A_201_v5

>  <ConformerSites alias>  (643) 
1b - A0911/A/147

>  <CanonSites alias>  (643) 
1 - Active Site

>  <CrystalformSites alias>  (643) 
F8h - A0884/A/147

>  <Quatassemblies alias>  (643) 
A1 - monomer

>  <Crystalforms alias>  (643) 
F8 - A712A_x4271_2.1_refmac1_1st_ref

>  <ConformerSites upload name>  (643) 
1b - A71EV2A-x0911/A/147

>  <CanonSites upload name>  (643) 
1 - A71EV2A-x0911/A/147/1

>  <CrystalformSites upload name>  (643) 
F8h - A71EV2A-x0884/A/147/1

>  <Quatassemblies upload name>  (643) 
A1 - monomer

>  <Crystalforms upload name>  (643) 
F8 - A712A_x4271_2.1_refmac1_1st_ref

>  <ConformerSites short tag>  (643) 
1b - A0911/A/147

>  <CanonSites short tag>  (643) 
1 - A0911/A/147/1

>  <CrystalformSites short tag>  (643) 
F8h - A0884/A/147

>  <Quatassemblies short tag>  (643) 
A1 - monomer

>  <Crystalforms short tag>  (643) 
F8 - A712A_x4271_2.1_refmac1_1st_ref

>  <Centroid res>  (643) 
A71EV2A-x0911/A/133/A_v1

>  <Experiment code>  (643) 
A71EV2A-x5604

>  <Pose>  (643) 
A5604a

$$$$
A5608a
     RDKit          3D

 16 17  0  0  0  0  0  0  0  0999 V2000
   10.9810   14.4960   25.0980 O   0  0  0  0  0  0  0  0  0  0  0  0
   10.9330   14.6830   23.8870 C   0  0  0  0  0  0  0  0  0  0  0  0
   12.1520   15.2150   23.1780 C   0  0  0  0  0  0  0  0  0  0  0  0
   11.9190   15.7570   21.7640 C   0  0  0  0  0  0  0  0  0  0  0  0
    9.8100   14.4560   23.1620 N   0  0  0  0  0  0  0  0  0  0  0  0
    9.6290   14.7550   21.7330 C   0  0  0  0  0  0  0  0  0  0  0  0
   10.9760   14.8300   20.9930 C   0  0  1  0  0  0  0  0  0  0  0  0
   10.7570   15.3300   19.5730 C   0  0  0  0  0  0  0  0  0  0  0  0
   10.3030   16.4610   19.3530 O   0  0  0  0  0  0  0  0  0  0  0  0
   11.0240   14.4600   18.6090 N   0  0  0  0  0  0  0  0  0  0  0  0
    8.6390   13.8800   23.8120 C   0  0  0  0  0  0  0  0  0  0  0  0
    8.6730   12.3740   23.9210 C   0  0  0  0  0  0  0  0  0  0  0  0
    9.6070   11.6340   23.2490 C   0  0  0  0  0  0  0  0  0  0  0  0
    9.3960    9.9590   23.4690 S   0  0  0  0  0  0  0  0  0  0  0  0
    8.0170   10.1990   24.5320 C   0  0  0  0  0  0  0  0  0  0  0  0
    7.7630   11.5440   24.6700 C   0  0  0  0  0  0  0  0  0  0  0  0
 10  8  1  0
  9  8  2  0
  7  8  1  6
  7  4  1  0
  4  3  1  0
  3  2  1  0
  2  1  2  0
  5  2  1  0
 11  5  1  0
 12 11  1  0
 12 16  1  0
 16 15  2  0
 15 14  1  0
 14 13  1  0
 13 12  2  0
  6  5  1  0
  7  6  1  0
M  END
>  <id>  (644) 
644

>  <inchikey>  (644) 
PBUUWCCSQUZBPD-VIFPVBQESA-N

>  <alias>  (644) 
A5608a

>  <smiles>  (644) 
NC(=O)[C@H]1CCC(=O)N(Cc2ccsc2)C1

>  <path>  (644) 
/opt/xchem-fragalysis-2/maxwin/BulkDock/TARGETS/A71EV2A/aligned_files/A5608a/A5608a_hippo.pdb

>  <distance_score>  (644) 
None

>  <energy_score>  (644) 
None

>  <compound>  (644) 
PBUUWCCSQUZBPD-UHFFFAOYSA-N

>  <compound_id>  (644) 
457

>  <target>  (644) 
A71EV2A

>  <tags>  (644) 
['GOOD count', 'MEDIOCRE count', '[Other] S1 site', 'hits', '[Other] S2 site', '[Other] Lactam Series', '[Other] P3 compound design', 'Main status', 'BAD count', '[Other] upload_5 2025-04-10']

>  <inspirations>  (644) 
None

>  <subsites>  (644) 
None

>  <reference>  (644) 


>  <observation_longname>  (644) 
A71EV2A-x5608_A_201_v5

>  <ConformerSites alias>  (644) 
1b - A0911/A/147

>  <CanonSites alias>  (644) 
1 - Active Site

>  <CrystalformSites alias>  (644) 
F6o - A4214/A/201

>  <Quatassemblies alias>  (644) 
A1 - monomer

>  <Crystalforms alias>  (644) 
F6 - short_long_x4018

>  <ConformerSites upload name>  (644) 
1b - A71EV2A-x0911/A/147

>  <CanonSites upload name>  (644) 
1 - A71EV2A-x0911/A/147/1

>  <CrystalformSites upload name>  (644) 
F6o - A71EV2A-x4214/A/201/1

>  <Quatassemblies upload name>  (644) 
A1 - monomer

>  <Crystalforms upload name>  (644) 
F6 - short_long_x4018

>  <ConformerSites short tag>  (644) 
1b - A0911/A/147

>  <CanonSites short tag>  (644) 
1 - A0911/A/147/1

>  <CrystalformSites short tag>  (644) 
F6o - A4214/A/201

>  <Quatassemblies short tag>  (644) 
A1 - monomer

>  <Crystalforms short tag>  (644) 
F6 - short_long_x4018

>  <Centroid res>  (644) 
A71EV2A-x0911/A/133/A_v1

>  <Experiment code>  (644) 
A71EV2A-x5608

>  <Pose>  (644) 
A5608a

$$$$
A5608b
     RDKit          3D

 16 17  0  0  0  0  0  0  0  0999 V2000
   11.2450   14.4690   25.0890 O   0  0  0  0  0  0  0  0  0  0  0  0
   11.1650   14.6900   23.8780 C   0  0  0  0  0  0  0  0  0  0  0  0
   12.3440   15.2820   23.1400 C   0  0  0  0  0  0  0  0  0  0  0  0
   12.0680   15.7920   21.7240 C   0  0  0  0  0  0  0  0  0  0  0  0
   10.0330   14.4480   23.1720 N   0  0  0  0  0  0  0  0  0  0  0  0
    9.8030   14.7380   21.7480 C   0  0  0  0  0  0  0  0  0  0  0  0
   11.1270   14.8320   20.9780 C   0  0  1  0  0  0  0  0  0  0  0  0
   10.8390   15.3300   19.5710 C   0  0  0  0  0  0  0  0  0  0  0  0
   10.3870   16.4700   19.3710 O   0  0  0  0  0  0  0  0  0  0  0  0
   11.0560   14.4600   18.6020 N   0  0  0  0  0  0  0  0  0  0  0  0
    8.8930   13.8460   23.8580 C   0  0  0  0  0  0  0  0  0  0  0  0
    8.9600   12.3350   23.9580 C   0  0  0  0  0  0  0  0  0  0  0  0
    9.8610   11.5980   23.2440 C   0  0  0  0  0  0  0  0  0  0  0  0
    9.6350    9.9140   23.4630 S   0  0  0  0  0  0  0  0  0  0  0  0
    8.3270   10.1630   24.5390 C   0  0  0  0  0  0  0  0  0  0  0  0
    8.0890   11.5060   24.7130 C   0  0  0  0  0  0  0  0  0  0  0  0
 10  8  1  0
  9  8  2  0
  7  8  1  6
  7  4  1  0
  4  3  1  0
  3  2  1  0
  2  1  2  0
  5  2  1  0
 11  5  1  0
 12 11  1  0
 12 16  1  0
 16 15  2  0
 15 14  1  0
 14 13  1  0
 13 12  2  0
  6  5  1  0
  7  6  1  0
M  END
>  <id>  (645) 
645

>  <inchikey>  (645) 
PBUUWCCSQUZBPD-VIFPVBQESA-N

>  <alias>  (645) 
A5608b

>  <smiles>  (645) 
NC(=O)[C@H]1CCC(=O)N(Cc2ccsc2)C1

>  <path>  (645) 
/opt/xchem-fragalysis-2/maxwin/BulkDock/TARGETS/A71EV2A/aligned_files/A5608b/A5608b_hippo.pdb

>  <distance_score>  (645) 
None

>  <energy_score>  (645) 
None

>  <compound>  (645) 
PBUUWCCSQUZBPD-UHFFFAOYSA-N

>  <compound_id>  (645) 
457

>  <target>  (645) 
A71EV2A

>  <tags>  (645) 
['GOOD count', 'MEDIOCRE count', '[Other] S1 site', 'hits', '[Other] S2 site', '[Other] Lactam Series', '[Other] P3 compound design', 'Main status', 'BAD count', '[Other] upload_5 2025-04-10']

>  <inspirations>  (645) 
None

>  <subsites>  (645) 
None

>  <reference>  (645) 


>  <observation_longname>  (645) 
A71EV2A-x5608_C_201_v5

>  <ConformerSites alias>  (645) 
1b - A0911/A/147

>  <CanonSites alias>  (645) 
1 - Active Site

>  <CrystalformSites alias>  (645) 
F6p - A4214/C/201

>  <Quatassemblies alias>  (645) 
A1 - monomer

>  <Crystalforms alias>  (645) 
F6 - short_long_x4018

>  <ConformerSites upload name>  (645) 
1b - A71EV2A-x0911/A/147

>  <CanonSites upload name>  (645) 
1 - A71EV2A-x0911/A/147/1

>  <CrystalformSites upload name>  (645) 
F6p - A71EV2A-x4214/C/201/1

>  <Quatassemblies upload name>  (645) 
A1 - monomer

>  <Crystalforms upload name>  (645) 
F6 - short_long_x4018

>  <ConformerSites short tag>  (645) 
1b - A0911/A/147

>  <CanonSites short tag>  (645) 
1 - A0911/A/147/1

>  <CrystalformSites short tag>  (645) 
F6p - A4214/C/201

>  <Quatassemblies short tag>  (645) 
A1 - monomer

>  <Crystalforms short tag>  (645) 
F6 - short_long_x4018

>  <Centroid res>  (645) 
A71EV2A-x0911/A/133/A_v1

>  <Experiment code>  (645) 
A71EV2A-x5608

>  <Pose>  (645) 
A5608a

$$$$
