A71EV2A-x3410_A_201_1_A71EV2A-x0911+A+147+1__LIG
     RDKit          3D

 21 23  0  0  0  0  0  0  0  0999 V2000
   11.6970   14.6390   24.4480 O   0  0  0  0  0  0  0  0  0  0  0  0
   11.2350   13.8330   23.6420 C   0  0  0  0  0  0  0  0  0  0  0  0
   10.0850   12.9580   24.0150 C   0  0  0  0  0  0  0  0  0  0  0  0
   10.0640   11.6480   23.5400 C   0  0  0  0  0  0  0  0  0  0  0  0
    9.0970   13.3990   24.9010 C   0  0  0  0  0  0  0  0  0  0  0  0
    8.0970   12.5480   25.3410 C   0  0  0  0  0  0  0  0  0  0  0  0
    8.0860   11.2190   24.9230 C   0  0  0  0  0  0  0  0  0  0  0  0
    9.0720   10.7980   24.0110 C   0  0  0  0  0  0  0  0  0  0  0  0
    8.8420    9.4810   23.7830 N   0  0  0  0  0  0  0  0  0  0  0  0
    9.6430    8.5600   22.9880 C   0  0  0  0  0  0  0  0  0  0  0  0
    7.7520    9.0220   24.4810 N   0  0  0  0  0  0  0  0  0  0  0  0
    7.3010   10.0490   25.1750 C   0  0  0  0  0  0  0  0  0  0  0  0
    6.1180    9.8950   26.1000 C   0  0  0  0  0  0  0  0  0  0  0  0
   11.7250   13.7010   22.4030 N   0  0  0  0  0  0  0  0  0  0  0  0
   12.7670   14.6050   21.9190 C   0  0  0  0  0  0  0  0  0  0  0  0
   12.7510   14.7150   20.4040 C   0  0  0  0  0  0  0  0  0  0  0  0
   11.5250   15.4260   19.9450 C   0  0  0  0  0  0  0  0  0  0  0  0
   10.9280   16.4290   20.7050 N   0  0  0  0  0  0  0  0  0  0  0  0
    9.8880   16.7540   20.0260 C   0  0  0  0  0  0  0  0  0  0  0  0
    9.7310   16.0860   18.8620 O   0  0  0  0  0  0  0  0  0  0  0  0
   10.8000   15.2410   18.8330 C   0  0  0  0  0  0  0  0  0  0  0  0
 13 12  1  0
 12 11  2  0
 11  9  1  0
 10  9  1  0
  9  8  1  0
  8  4  2  0
  4  3  1  0
  3  2  1  0
  2  1  2  0
 14  2  1  0
 15 14  1  0
 16 15  1  0
 17 16  1  0
 17 21  2  0
 21 20  1  0
 20 19  1  0
 19 18  2  0
 18 17  1  0
  5  3  2  0
  6  5  1  0
  7  6  2  0
 12  7  1  0
  8  7  1  0
M  END
$$$$
