A71EV2A-x2351_E_246_1_A71EV2A-x0911+A+147+1__LIG
     RDKit          3D

 14 15  0  0  0  0  0  0  0  0999 V2000
    5.6080   13.6730   25.9990 F   0  0  0  0  0  0  0  0  0  0  0  0
    6.3790   12.8180   25.2790 C   0  0  0  0  0  0  0  0  0  0  0  0
    7.3760   13.3540   24.4950 C   0  0  0  0  0  0  0  0  0  0  0  0
    6.1330   11.4690   25.3960 C   0  0  0  0  0  0  0  0  0  0  0  0
    6.9410   10.5860   24.7010 C   0  0  0  0  0  0  0  0  0  0  0  0
    7.9580   11.0910   23.9050 C   0  0  0  0  0  0  0  0  0  0  0  0
    8.8830   10.4710   23.1190 N   0  0  0  0  0  0  0  0  0  0  0  0
    9.0230    9.0490   22.8550 C   0  0  0  0  0  0  0  0  0  0  0  0
    8.1850   12.4650   23.7920 C   0  0  0  0  0  0  0  0  0  0  0  0
    9.3040   12.5790   22.8960 C   0  0  0  0  0  0  0  0  0  0  0  0
    9.7150   11.3750   22.4950 N   0  0  0  0  0  0  0  0  0  0  0  0
    9.9790   13.8300   22.4630 C   0  0  0  0  0  0  0  0  0  0  0  0
    9.5400   14.9290   22.8320 O   0  0  0  0  0  0  0  0  0  0  0  0
   11.0660   13.7110   21.7080 N   0  0  0  0  0  0  0  0  0  0  0  0
  8  7  1  0
  7 11  1  0
 11 10  2  0
 12 10  1  0
 14 12  1  0
 13 12  2  0
 10  9  1  0
  9  3  1  0
  3  2  2  0
  2  1  1  0
  4  2  1  0
  5  4  2  0
  6  5  1  0
  9  6  2  0
  7  6  1  0
M  END
$$$$
