A71EV2A-x5210_A_201_2_A71EV2A-x0911+A+147+1__LIG
     RDKit          3D

 20 22  0  0  0  0  0  0  0  0999 V2000
   11.1170   14.8530   25.1140 O   0  0  0  0  0  0  0  0  0  0  0  0
   11.0160   14.9520   23.8920 C   0  0  0  0  0  0  0  0  0  0  0  0
   12.2270   15.3230   23.0800 C   0  0  0  0  0  0  0  0  0  0  0  0
   11.9250   15.8470   21.6780 C   0  0  0  0  0  0  0  0  0  0  0  0
    9.8310   14.7530   23.2580 N   0  0  0  0  0  0  0  0  0  0  0  0
    9.5990   14.9590   21.8170 C   0  0  0  0  0  0  0  0  0  0  0  0
   10.9000   14.9430   20.9940 C   0  0  1  0  0  0  0  0  0  0  0  0
   10.6470   15.4130   19.5720 C   0  0  0  0  0  0  0  0  0  0  0  0
   10.2520   16.5620   19.3400 O   0  0  0  0  0  0  0  0  0  0  0  0
   10.8800   14.5350   18.6120 N   0  0  0  0  0  0  0  0  0  0  0  0
    8.6790   14.3500   24.0940 C   0  0  2  0  0  0  0  0  0  0  0  0
    8.4570   12.8540   24.0930 C   0  0  0  0  0  0  0  0  0  0  0  0
    9.4240   11.9880   23.5810 C   0  0  0  0  0  0  0  0  0  0  0  0
    9.2670   10.6150   23.6670 C   0  0  0  0  0  0  0  0  0  0  0  0
    8.1690   10.0930   24.3110 C   0  0  0  0  0  0  0  0  0  0  0  0
    7.2090   10.9410   24.8370 C   0  0  0  0  0  0  0  0  0  0  0  0
    7.3080   12.3220   24.6850 C   0  0  0  0  0  0  0  0  0  0  0  0
    6.1220   13.2060   25.0130 C   0  0  0  0  0  0  0  0  0  0  0  0
    6.3140   14.7190   24.8310 C   0  0  0  0  0  0  0  0  0  0  0  0
    7.3600   15.0490   23.7540 C   0  0  0  0  0  0  0  0  0  0  0  0
 10  8  1  0
  9  8  2  0
  7  8  1  6
  7  4  1  0
  4  3  1  0
  3  2  1  0
  2  1  2  0
  5  2  1  0
 11  5  1  6
 11 20  1  0
 20 19  1  0
 19 18  1  0
 18 17  1  0
 17 16  1  0
 16 15  2  0
 15 14  1  0
 14 13  2  0
 13 12  1  0
 17 12  2  0
 12 11  1  0
  6  5  1  0
  7  6  1  0
M  END
$$$$
