XX01ZVNS2B-x0806_B_301_1_XX01ZVNS2B-x4590+B+203+1__LIG
     RDKit          3D

 14 15  0  0  0  0  0  0  0  0999 V2000
   -3.8950    6.2800  -23.2330 N   0  0  0  0  0  0  0  0  0  0  0  0
   -3.8800    7.7260  -23.4870 C   0  0  1  0  0  0  0  0  0  0  0  0
   -2.4800    8.1480  -23.9180 C   0  0  0  0  0  0  0  0  0  0  0  0
   -4.8200    7.9580  -24.6350 C   0  0  0  0  0  0  0  0  0  0  0  0
   -4.6070    7.3230  -25.8180 N   0  0  0  0  0  0  0  0  0  0  0  0
   -5.5850    7.6110  -26.6440 N   0  0  0  0  0  0  0  0  0  0  0  0
   -6.4420    8.4190  -25.9780 N   0  0  0  0  0  0  0  0  0  0  0  0
   -5.9760    8.6770  -24.7360 C   0  0  0  0  0  0  0  0  0  0  0  0
   -7.7250    8.6940  -26.5340 C   0  0  0  0  0  0  0  0  0  0  0  0
   -8.2890    9.9530  -26.3870 C   0  0  0  0  0  0  0  0  0  0  0  0
   -9.5910   10.1650  -26.8000 C   0  0  0  0  0  0  0  0  0  0  0  0
  -10.3220    9.1410  -27.3610 C   0  0  0  0  0  0  0  0  0  0  0  0
   -9.7440    7.9040  -27.5500 C   0  0  0  0  0  0  0  0  0  0  0  0
   -8.4430    7.6730  -27.1400 C   0  0  0  0  0  0  0  0  0  0  0  0
  2  3  1  6
  2  1  1  0
  4  2  1  0
  4  8  2  0
  8  7  1  0
  7  6  1  0
  6  5  2  0
  5  4  1  0
  9  7  1  0
  9 14  2  0
 14 13  1  0
 13 12  2  0
 12 11  1  0
 11 10  2  0
 10  9  1  0
M  END
$$$$
