XX01ZVNS2B-x3956_B_203_1_XX01ZVNS2B-x4590+B+203+1__LIG
     RDKit          3D

 22 25  0  0  0  0  0  0  0  0999 V2000
   -6.8780    5.5230  -13.2220 O   0  0  0  0  0  0  0  0  0  0  0  0
   -7.6310    4.6730  -13.6920 C   0  0  0  0  0  0  0  0  0  0  0  0
   -7.7540    4.5000  -15.1770 C   0  0  0  0  0  0  0  0  0  0  0  0
   -6.6690    4.7500  -16.0270 C   0  0  0  0  0  0  0  0  0  0  0  0
   -5.2580    5.1650  -15.7520 C   0  0  0  0  0  0  0  0  0  0  0  0
   -8.9700    4.1100  -15.7360 C   0  0  0  0  0  0  0  0  0  0  0  0
   -9.1080    3.9810  -17.1130 C   0  0  0  0  0  0  0  0  0  0  0  0
   -8.0350    4.2290  -17.9620 C   0  0  0  0  0  0  0  0  0  0  0  0
   -6.8180    4.6090  -17.4020 C   0  0  0  0  0  0  0  0  0  0  0  0
   -5.6060    4.8810  -18.0280 N   0  0  0  0  0  0  0  0  0  0  0  0
   -4.6320    5.1800  -17.1290 C   0  0  0  0  0  0  0  0  0  0  0  0
   -3.4440    5.3610  -17.3990 O   0  0  0  0  0  0  0  0  0  0  0  0
   -8.3840    3.8430  -12.9250 N   0  0  0  0  0  0  0  0  0  0  0  0
   -8.4390    3.8140  -11.5030 C   0  0  0  0  0  0  0  0  0  0  0  0
   -8.5750    2.6270  -10.7990 C   0  0  0  0  0  0  0  0  0  0  0  0
   -8.7120    2.6610   -9.4120 C   0  0  0  0  0  0  0  0  0  0  0  0
   -9.0280    1.5620   -8.4420 C   0  0  0  0  0  0  0  0  0  0  0  0
   -8.7360    2.1980   -7.1660 N   0  0  0  0  0  0  0  0  0  0  0  0
   -8.7500    3.6450   -7.2910 C   0  0  0  0  0  0  0  0  0  0  0  0
   -8.6580    3.9030   -8.7580 C   0  0  0  0  0  0  0  0  0  0  0  0
   -8.5190    5.0530   -9.4350 N   0  0  0  0  0  0  0  0  0  0  0  0
   -8.4150    4.9960  -10.7710 C   0  0  0  0  0  0  0  0  0  0  0  0
 12 11  2  0
 11  5  1  0
  5  4  1  0
  4  9  2  0
  9  8  1  0
  8  7  2  0
  7  6  1  0
  6  3  2  0
  4  3  1  0
  3  2  1  0
  2  1  2  0
 13  2  1  0
 14 13  1  0
 14 22  2  0
 22 21  1  0
 21 20  2  0
 20 16  1  0
 16 15  2  0
 15 14  1  0
 17 16  1  0
 18 17  1  0
 19 18  1  0
 20 19  1  0
 10  9  1  0
 11 10  1  0
M  END
$$$$
