A71EV2A-x4017_A_201_1_A71EV2A-x0911+A+147+1__LIG
     RDKit          3D

 22 24  0  0  0  0  0  0  0  0999 V2000
   10.3770   16.6710   19.1290 O   0  0  0  0  0  0  0  0  0  0  0  0
   10.7690   15.5320   19.3900 C   0  0  0  0  0  0  0  0  0  0  0  0
   11.0080   14.6200   18.4590 N   0  0  0  0  0  0  0  0  0  0  0  0
   11.1240   15.1350   20.8140 C   0  0  1  0  0  0  0  0  0  0  0  0
   12.2630   16.0200   21.3260 C   0  0  0  0  0  0  0  0  0  0  0  0
   12.6780   15.6410   22.7420 C   0  0  0  0  0  0  0  0  0  0  0  0
   11.5020   15.7310   23.6700 C   0  0  0  0  0  0  0  0  0  0  0  0
    9.9540   15.2110   21.8040 C   0  0  0  0  0  0  0  0  0  0  0  0
   10.4210   14.8850   23.1610 N   0  0  0  0  0  0  0  0  0  0  0  0
   10.1350   13.7530   23.8530 C   0  0  0  0  0  0  0  0  0  0  0  0
   10.4210   13.6370   25.0440 O   0  0  0  0  0  0  0  0  0  0  0  0
    9.6320   12.7280   23.1290 N   0  0  0  0  0  0  0  0  0  0  0  0
    9.0970   11.5880   23.7420 C   0  0  0  0  0  0  0  0  0  0  0  0
    9.4520   10.2820   23.4090 C   0  0  0  0  0  0  0  0  0  0  0  0
    8.7160    9.2090   23.8950 C   0  0  0  0  0  0  0  0  0  0  0  0
    7.6400    9.4090   24.7470 C   0  0  0  0  0  0  0  0  0  0  0  0
    7.3280   10.7070   25.1190 C   0  0  0  0  0  0  0  0  0  0  0  0
    6.3750   11.2000   25.9490 N   0  0  0  0  0  0  0  0  0  0  0  0
    5.3920   10.4650   26.7290 C   0  0  0  0  0  0  0  0  0  0  0  0
    8.0400   11.8130   24.6280 C   0  0  0  0  0  0  0  0  0  0  0  0
    7.4160   12.9320   25.2340 C   0  0  0  0  0  0  0  0  0  0  0  0
    6.4270   12.5620   26.0170 N   0  0  0  0  0  0  0  0  0  0  0  0
 19 18  1  0
 18 22  1  0
 22 21  2  0
 21 20  1  0
 20 13  1  0
 13 12  1  0
 12 10  1  0
 11 10  2  0
 10  9  1  0
  9  7  1  0
  7  6  1  0
  6  5  1  0
  5  4  1  0
  4  2  1  6
  3  2  1  0
  2  1  2  0
  8  4  1  0
  9  8  1  0
 14 13  2  0
 15 14  1  0
 16 15  2  0
 17 16  1  0
 20 17  2  0
 18 17  1  0
M  END
$$$$
