A71EV2A-x4883_A_201_1_A71EV2A-x0911+A+147+1__LIG
     RDKit          3D

 20 21  0  0  0  0  0  0  0  0999 V2000
   10.2620   16.5860   19.2750 O   0  0  0  0  0  0  0  0  0  0  0  0
   10.6190   15.4250   19.5050 C   0  0  0  0  0  0  0  0  0  0  0  0
   10.9730   14.5670   18.5510 N   0  0  0  0  0  0  0  0  0  0  0  0
   10.6290   14.8730   20.9210 C   0  0  1  0  0  0  0  0  0  0  0  0
   11.7820   15.4520   21.7560 C   0  0  0  0  0  0  0  0  0  0  0  0
   11.7940   14.8390   23.1600 C   0  0  0  0  0  0  0  0  0  0  0  0
   10.4460   15.0390   23.8470 C   0  0  0  0  0  0  0  0  0  0  0  0
    9.3030   15.1590   21.6360 C   0  0  0  0  0  0  0  0  0  0  0  0
    9.3270   14.6000   22.9900 N   0  0  0  0  0  0  0  0  0  0  0  0
    8.4400   13.6150   23.3190 C   0  0  0  0  0  0  0  0  0  0  0  0
    7.6090   13.2050   22.5130 O   0  0  0  0  0  0  0  0  0  0  0  0
    8.5010   13.1600   24.5980 N   0  0  0  0  0  0  0  0  0  0  0  0
    7.7050   12.0870   25.0650 C   0  0  0  0  0  0  0  0  0  0  0  0
    7.9870   10.7820   24.6280 C   0  0  0  0  0  0  0  0  0  0  0  0
    9.3750   10.5450   23.5630 S   0  0  0  0  0  0  0  0  0  0  0  0
    9.3930    8.7480   23.3510 C   0  0  0  0  0  0  0  0  0  0  0  0
    6.6640   12.2760   25.9780 C   0  0  0  0  0  0  0  0  0  0  0  0
    5.9640   11.1610   26.4140 C   0  0  0  0  0  0  0  0  0  0  0  0
    6.3010    9.9180   25.9010 C   0  0  0  0  0  0  0  0  0  0  0  0
    7.2980    9.7130   25.0190 N   0  0  0  0  0  0  0  0  0  0  0  0
 16 15  1  0
 15 14  1  0
 14 20  2  0
 20 19  1  0
 19 18  2  0
 18 17  1  0
 17 13  2  0
 14 13  1  0
 13 12  1  0
 12 10  1  0
 11 10  2  0
 10  9  1  0
  9  7  1  0
  7  6  1  0
  6  5  1  0
  5  4  1  0
  4  2  1  6
  3  2  1  0
  2  1  2  0
  8  4  1  0
  9  8  1  0
M  END
$$$$
