A71EV2A-x4365_C_201_1_A71EV2A-x0911+A+147+1__LIG
     RDKit          3D

 22 24  0  0  0  0  0  0  0  0999 V2000
    8.0200   13.4600   22.6620 O   0  0  0  0  0  0  0  0  0  0  0  0
    8.9820   13.8830   23.3060 C   0  0  0  0  0  0  0  0  0  0  0  0
    9.7160   14.9430   22.9100 N   0  0  0  0  0  0  0  0  0  0  0  0
   10.7570   15.6180   23.6990 C   0  0  0  0  0  0  0  0  0  0  0  0
   12.1140   15.4260   23.0300 C   0  0  0  0  0  0  0  0  0  0  0  0
   12.0670   15.8730   21.5680 C   0  0  0  0  0  0  0  0  0  0  0  0
    9.6070   15.4200   21.5320 C   0  0  0  0  0  0  0  0  0  0  0  0
   10.9270   15.1640   20.8110 C   0  0  1  0  0  0  0  0  0  0  0  0
   10.7800   15.6760   19.3890 C   0  0  0  0  0  0  0  0  0  0  0  0
   10.4060   16.8330   19.1640 O   0  0  0  0  0  0  0  0  0  0  0  0
   10.9790   14.7760   18.4370 N   0  0  0  0  0  0  0  0  0  0  0  0
    9.4480   13.2090   24.5780 C   0  0  0  0  0  0  0  0  0  0  0  0
    8.6610   11.9360   24.7650 C   0  0  0  0  0  0  0  0  0  0  0  0
    7.5130   11.9230   25.5510 C   0  0  0  0  0  0  0  0  0  0  0  0
    7.1130   13.1260   26.0740 O   0  0  0  0  0  0  0  0  0  0  0  0
    6.2520   13.0190   27.2210 C   0  0  0  0  0  0  0  0  0  0  0  0
    5.1580   12.0110   26.9620 C   0  0  0  0  0  0  0  0  0  0  0  0
    5.6580   10.7220   26.5230 O   0  0  0  0  0  0  0  0  0  0  0  0
    6.7960   10.7490   25.7560 C   0  0  0  0  0  0  0  0  0  0  0  0
    7.2200    9.5700   25.1630 C   0  0  0  0  0  0  0  0  0  0  0  0
    8.3500    9.5760   24.3600 C   0  0  0  0  0  0  0  0  0  0  0  0
    9.0590   10.7480   24.1550 C   0  0  0  0  0  0  0  0  0  0  0  0
 11  9  1  0
 10  9  2  0
  8  9  1  6
  8  6  1  0
  6  5  1  0
  5  4  1  0
  4  3  1  0
  3  2  1  0
  2  1  2  0
 12  2  1  0
 13 12  1  0
 13 22  1  0
 22 21  2  0
 21 20  1  0
 20 19  2  0
 19 14  1  0
 14 13  2  0
 15 14  1  0
 16 15  1  0
 17 16  1  0
 18 17  1  0
 19 18  1  0
  7  3  1  0
  8  7  1  0
M  END
$$$$
