XX01ZVNS2B-x5339_B_203_6_XX01ZVNS2B-x4590+B+203+1__LIG
     RDKit          3D

 29 33  0  0  0  0  0  0  0  0999 V2000
  -10.3470    4.0100  -18.1210 Cl  0  0  0  0  0  0  0  0  0  0  0  0
   -8.8830    4.4290  -17.2640 C   0  0  0  0  0  0  0  0  0  0  0  0
   -8.9030    4.4840  -15.8760 C   0  0  0  0  0  0  0  0  0  0  0  0
   -7.7510    4.7250  -17.9970 C   0  0  0  0  0  0  0  0  0  0  0  0
   -6.6080    5.0760  -17.2980 C   0  0  0  0  0  0  0  0  0  0  0  0
   -5.3470    5.3620  -17.7420 N   0  0  0  0  0  0  0  0  0  0  0  0
   -4.8820    5.4900  -19.1260 C   0  0  0  0  0  0  0  0  0  0  0  0
   -3.4730    4.9310  -19.3040 C   0  0  0  0  0  0  0  0  0  0  0  0
   -3.0380    5.1090  -20.7470 C   0  0  0  0  0  0  0  0  0  0  0  0
   -3.1480    6.4860  -21.1720 O   0  0  0  0  0  0  0  0  0  0  0  0
   -4.4970    6.9780  -21.0680 C   0  0  0  0  0  0  0  0  0  0  0  0
   -4.9970    6.9210  -19.6390 C   0  0  0  0  0  0  0  0  0  0  0  0
   -4.4900    5.5870  -16.7000 N   0  0  0  0  0  0  0  0  0  0  0  0
   -5.2100    5.4650  -15.5980 C   0  0  0  0  0  0  0  0  0  0  0  0
   -6.5630    5.1440  -15.8940 C   0  0  0  0  0  0  0  0  0  0  0  0
   -7.7450    4.8600  -15.1720 C   0  0  0  0  0  0  0  0  0  0  0  0
   -7.7570    5.0140  -13.6750 C   0  0  0  0  0  0  0  0  0  0  0  0
   -6.9700    5.7850  -13.1220 O   0  0  0  0  0  0  0  0  0  0  0  0
   -8.5860    4.1950  -12.9790 N   0  0  0  0  0  0  0  0  0  0  0  0
   -8.6360    4.1020  -11.5570 C   0  0  0  0  0  0  0  0  0  0  0  0
   -8.7860    2.8520  -10.9830 C   0  0  0  0  0  0  0  0  0  0  0  0
   -8.8730    2.7190   -9.6040 C   0  0  0  0  0  0  0  0  0  0  0  0
   -8.7730    3.8230   -8.7700 C   0  0  0  0  0  0  0  0  0  0  0  0
   -8.6020    5.0720   -9.3520 C   0  0  0  0  0  0  0  0  0  0  0  0
   -8.5380    5.2160  -10.7290 C   0  0  0  0  0  0  0  0  0  0  0  0
   -8.9170    3.6730   -7.2650 C   0  0  0  0  0  0  0  0  0  0  0  0
   -8.6240    2.2870   -6.6310 C   0  0  0  0  0  0  0  0  0  0  0  0
   -7.8190    2.9590   -5.5680 N   0  0  0  0  0  0  0  0  0  0  0  0
   -7.7570    4.2010   -6.3830 C   0  0  0  0  0  0  0  0  0  0  0  0
 18 17  2  0
 19 17  1  0
 20 19  1  0
 20 25  2  0
 25 24  1  0
 24 23  2  0
 26 23  1  0
 26 29  1  0
 29 28  1  0
 28 27  1  0
 27 26  1  0
 23 22  1  0
 22 21  2  0
 21 20  1  0
 17 16  1  0
 16  3  1  0
  3  2  2  0
  2  1  1  0
  4  2  1  0
  5  4  2  0
  5 15  1  0
 16 15  2  0
 15 14  1  0
 14 13  2  0
 13  6  1  0
  6  5  1  0
  7  6  1  0
  7 12  1  0
 12 11  1  0
 11 10  1  0
 10  9  1  0
  9  8  1  0
  8  7  1  0
M  END
$$$$
