XX01ZVNS2B-x4954_B_203_6_XX01ZVNS2B-x4590+B+203+1__LIG
     RDKit          3D

 27 31  0  0  0  0  0  0  0  0999 V2000
   -9.7400    3.8240  -18.0260 Cl  0  0  0  0  0  0  0  0  0  0  0  0
   -8.3680    4.2180  -17.0420 C   0  0  0  0  0  0  0  0  0  0  0  0
   -8.4700    4.1430  -15.6640 C   0  0  0  0  0  0  0  0  0  0  0  0
   -7.1830    4.6350  -17.6520 C   0  0  0  0  0  0  0  0  0  0  0  0
   -6.0760    4.9700  -16.8560 C   0  0  0  0  0  0  0  0  0  0  0  0
   -5.0400    5.2820  -17.7980 C   0  0  0  0  0  0  0  0  0  0  0  0
   -3.5830    5.4980  -17.4750 C   0  0  0  0  0  0  0  0  0  0  0  0
   -2.8970    6.6040  -18.2870 C   0  0  0  0  0  0  0  0  0  0  0  0
   -2.4350    7.7760  -17.3880 C   0  0  0  0  0  0  0  0  0  0  0  0
   -1.1300    7.0740  -17.2810 N   0  0  0  0  0  0  0  0  0  0  0  0
   -1.3950    6.2970  -18.5170 C   0  0  0  0  0  0  0  0  0  0  0  0
   -5.4900    5.1950  -19.0310 N   0  0  0  0  0  0  0  0  0  0  0  0
   -6.7980    4.7930  -18.9410 N   0  0  0  0  0  0  0  0  0  0  0  0
   -6.1920    4.9150  -15.4670 C   0  0  0  0  0  0  0  0  0  0  0  0
   -7.3860    4.5140  -14.8680 C   0  0  0  0  0  0  0  0  0  0  0  0
   -7.3730    4.6670  -13.3810 C   0  0  0  0  0  0  0  0  0  0  0  0
   -6.5700    5.4280  -12.8470 O   0  0  0  0  0  0  0  0  0  0  0  0
   -8.2690    3.9240  -12.6820 N   0  0  0  0  0  0  0  0  0  0  0  0
   -8.4250    3.9120  -11.2650 C   0  0  0  0  0  0  0  0  0  0  0  0
   -8.7650    2.7420  -10.5900 C   0  0  0  0  0  0  0  0  0  0  0  0
   -8.8520    2.7310   -9.1970 C   0  0  0  0  0  0  0  0  0  0  0  0
   -9.1200    1.5910   -8.2570 C   0  0  0  0  0  0  0  0  0  0  0  0
   -8.8120    2.1950   -6.9600 N   0  0  0  0  0  0  0  0  0  0  0  0
   -8.7980    3.6520   -7.0100 C   0  0  0  0  0  0  0  0  0  0  0  0
   -8.6170    3.8970   -8.4810 C   0  0  0  0  0  0  0  0  0  0  0  0
   -8.2800    5.0670   -9.1530 C   0  0  0  0  0  0  0  0  0  0  0  0
   -8.1840    5.0760  -10.5370 C   0  0  0  0  0  0  0  0  0  0  0  0
 17 16  2  0
 18 16  1  0
 19 18  1  0
 19 27  2  0
 27 26  1  0
 26 25  2  0
 25 21  1  0
 21 20  2  0
 20 19  1  0
 22 21  1  0
 23 22  1  0
 24 23  1  0
 25 24  1  0
 16 15  1  0
 15  3  1  0
  3  2  2  0
  2  1  1  0
  4  2  1  0
  4 13  1  0
 13 12  1  0
 12  6  2  0
  7  6  1  0
  8  7  1  0
  8 11  1  0
 11 10  1  0
 10  9  1  0
  9  8  1  0
  6  5  1  0
  5  4  2  0
 14  5  1  0
 15 14  2  0
M  END
$$$$
