XX01ZVNS2B-x0772_B_301_1_XX01ZVNS2B-x4590+B+203+1__LIG
     RDKit          3D

 13 14  0  0  0  0  0  0  0  0999 V2000
   -6.2820    3.8240  -12.5210 O   0  0  0  0  0  0  0  0  0  0  0  0
   -7.4830    4.5530  -12.8090 S   0  0  0  0  0  0  0  0  0  0  0  0
   -8.7420    3.9410  -12.4980 O   0  0  0  0  0  0  0  0  0  0  0  0
   -7.4140    5.9370  -12.0000 N   0  0  0  0  0  0  0  0  0  0  0  0
   -7.4820    4.9130  -14.5390 C   0  0  0  0  0  0  0  0  0  0  0  0
   -8.5960    4.5740  -15.2910 C   0  0  0  0  0  0  0  0  0  0  0  0
   -8.4890    4.6050  -16.6720 C   0  0  0  0  0  0  0  0  0  0  0  0
   -9.6280    4.0600  -17.8610 S   0  0  0  0  0  0  0  0  0  0  0  0
   -8.4510    4.3970  -19.0870 C   0  0  0  0  0  0  0  0  0  0  0  0
   -7.3220    4.8820  -18.6990 N   0  0  0  0  0  0  0  0  0  0  0  0
   -7.3120    5.0110  -17.3090 C   0  0  0  0  0  0  0  0  0  0  0  0
   -6.2320    5.4230  -16.5290 C   0  0  0  0  0  0  0  0  0  0  0  0
   -6.3150    5.3690  -15.1460 C   0  0  0  0  0  0  0  0  0  0  0  0
  4  2  1  0
  3  2  2  0
  2  1  2  0
  5  2  1  0
  5 13  2  0
 13 12  1  0
 12 11  2  0
 11 10  1  0
 10  9  2  0
  9  8  1  0
  8  7  1  0
 11  7  1  0
  7  6  2  0
  6  5  1  0
M  END
$$$$
