A71EV2A-x4209_A_201_1_A71EV2A-x0911+A+147+1__LIG
     RDKit          3D

 21 22  0  0  0  0  0  0  0  0999 V2000
   11.0060   14.7650   18.4640 O   0  0  0  0  0  0  0  0  0  0  0  0
   10.6760   15.5320   19.3700 C   0  0  0  0  0  0  0  0  0  0  0  0
   10.2750   16.7760   19.1560 N   0  0  0  0  0  0  0  0  0  0  0  0
   10.7040   15.0840   20.8200 C   0  0  1  0  0  0  0  0  0  0  0  0
   11.7930   15.8110   21.6190 C   0  0  0  0  0  0  0  0  0  0  0  0
   11.8860   15.2720   23.0480 C   0  0  0  0  0  0  0  0  0  0  0  0
   10.5300   15.3050   23.7340 C   0  0  0  0  0  0  0  0  0  0  0  0
    9.3770   15.2790   21.5470 C   0  0  0  0  0  0  0  0  0  0  0  0
    9.4860   14.7030   22.8880 N   0  0  0  0  0  0  0  0  0  0  0  0
    8.7000   13.6610   23.2300 C   0  0  0  0  0  0  0  0  0  0  0  0
    7.7870   13.2710   22.5160 O   0  0  0  0  0  0  0  0  0  0  0  0
    9.0110   13.0030   24.5590 C   0  0  0  0  0  0  0  0  0  0  0  0
    7.9400   12.0260   24.9780 C   0  0  0  0  0  0  0  0  0  0  0  0
    8.0470   10.6780   24.6080 C   0  0  0  0  0  0  0  0  0  0  0  0
    9.0230   10.4110   23.6820 O   0  0  0  0  0  0  0  0  0  0  0  0
    9.3010    9.0470   23.3660 C   0  0  0  0  0  0  0  0  0  0  0  0
    6.8970   12.3850   25.8370 C   0  0  0  0  0  0  0  0  0  0  0  0
    6.6540   14.0610   26.2480 Cl  0  0  0  0  0  0  0  0  0  0  0  0
    6.0230   11.4500   26.3600 C   0  0  0  0  0  0  0  0  0  0  0  0
    6.1680   10.1210   26.0070 C   0  0  0  0  0  0  0  0  0  0  0  0
    7.1720    9.7290   25.1310 C   0  0  0  0  0  0  0  0  0  0  0  0
 16 15  1  0
 15 14  1  0
 14 21  2  0
 21 20  1  0
 20 19  2  0
 19 17  1  0
 18 17  1  0
 17 13  2  0
 14 13  1  0
 13 12  1  0
 12 10  1  0
 11 10  2  0
 10  9  1  0
  9  7  1  0
  7  6  1  0
  6  5  1  0
  5  4  1  0
  4  2  1  6
  3  2  1  0
  2  1  2  0
  8  4  1  0
  9  8  1  0
M  END
$$$$
