A71EV2A-x4012_C_201_1_A71EV2A-x0911+A+147+1__LIG
     RDKit          3D

 20 21  0  0  0  0  0  0  0  0999 V2000
   10.3970   16.6530   19.2580 O   0  0  0  0  0  0  0  0  0  0  0  0
   10.7640   15.4910   19.4900 C   0  0  0  0  0  0  0  0  0  0  0  0
   11.0570   14.6150   18.5280 N   0  0  0  0  0  0  0  0  0  0  0  0
   10.8280   14.9610   20.9110 C   0  0  1  0  0  0  0  0  0  0  0  0
   11.9720   15.6170   21.7030 C   0  0  0  0  0  0  0  0  0  0  0  0
   12.0530   15.0180   23.1110 C   0  0  0  0  0  0  0  0  0  0  0  0
   10.7250   15.1350   23.8380 C   0  0  0  0  0  0  0  0  0  0  0  0
    9.5060   15.1690   21.6490 C   0  0  0  0  0  0  0  0  0  0  0  0
    9.6180   14.6230   23.0060 N   0  0  0  0  0  0  0  0  0  0  0  0
    8.7540   13.6200   23.3650 C   0  0  0  0  0  0  0  0  0  0  0  0
    7.9240   13.1620   22.5850 O   0  0  0  0  0  0  0  0  0  0  0  0
    8.8570   13.1650   24.6370 N   0  0  0  0  0  0  0  0  0  0  0  0
    7.9990   12.1410   25.1450 C   0  0  0  0  0  0  0  0  0  0  0  0
    8.2000   10.8130   24.7170 C   0  0  0  0  0  0  0  0  0  0  0  0
    9.2180   10.6390   23.8150 O   0  0  0  0  0  0  0  0  0  0  0  0
    9.4810    9.3000   23.3630 C   0  0  0  0  0  0  0  0  0  0  0  0
    7.0270   12.4040   26.1040 C   0  0  0  0  0  0  0  0  0  0  0  0
    6.2800   11.3680   26.6390 C   0  0  0  0  0  0  0  0  0  0  0  0
    6.4760   10.0680   26.2100 C   0  0  0  0  0  0  0  0  0  0  0  0
    7.4260    9.7830   25.2400 C   0  0  0  0  0  0  0  0  0  0  0  0
 16 15  1  0
 15 14  1  0
 14 20  2  0
 20 19  1  0
 19 18  2  0
 18 17  1  0
 17 13  2  0
 14 13  1  0
 13 12  1  0
 12 10  1  0
 11 10  2  0
 10  9  1  0
  9  7  1  0
  7  6  1  0
  6  5  1  0
  5  4  1  0
  4  2  1  6
  3  2  1  0
  2  1  2  0
  8  4  1  0
  9  8  1  0
M  END
$$$$
