A71EV2A-x4309_C_201_1_A71EV2A-x0911+A+147+1__LIG
     RDKit          3D

 25 26  0  0  0  0  0  0  0  0999 V2000
   10.5030   16.6330   19.2990 O   0  0  0  0  0  0  0  0  0  0  0  0
   10.8970   15.4830   19.5130 C   0  0  0  0  0  0  0  0  0  0  0  0
   11.1920   14.6340   18.5370 N   0  0  0  0  0  0  0  0  0  0  0  0
   10.9610   14.9230   20.9240 C   0  0  1  0  0  0  0  0  0  0  0  0
   12.0390   15.6160   21.7800 C   0  0  0  0  0  0  0  0  0  0  0  0
   12.0970   15.0150   23.1900 C   0  0  0  0  0  0  0  0  0  0  0  0
   10.7350   15.0980   23.8740 C   0  0  0  0  0  0  0  0  0  0  0  0
    9.6230   15.0990   21.6450 C   0  0  0  0  0  0  0  0  0  0  0  0
    9.6990   14.5310   22.9960 N   0  0  0  0  0  0  0  0  0  0  0  0
    8.7650   13.6170   23.3830 C   0  0  0  0  0  0  0  0  0  0  0  0
    7.9150   13.2020   22.6070 O   0  0  0  0  0  0  0  0  0  0  0  0
    8.7970   13.2340   24.6920 N   0  0  0  0  0  0  0  0  0  0  0  0
    7.9210   12.2560   25.2300 C   0  0  0  0  0  0  0  0  0  0  0  0
    8.1390   10.9180   24.8190 C   0  0  0  0  0  0  0  0  0  0  0  0
    9.1860   10.7450   23.9490 O   0  0  0  0  0  0  0  0  0  0  0  0
    9.4670    9.4210   23.4910 C   0  0  0  0  0  0  0  0  0  0  0  0
    7.3450    9.8970   25.3210 C   0  0  0  0  0  0  0  0  0  0  0  0
    6.3470   10.1840   26.2380 C   0  0  0  0  0  0  0  0  0  0  0  0
    6.9140   12.5320   26.1570 C   0  0  0  0  0  0  0  0  0  0  0  0
    6.1480   11.4890   26.6560 C   0  0  0  0  0  0  0  0  0  0  0  0
    4.8880   11.8270   27.8400 S   0  0  0  0  0  0  0  0  0  0  0  0
    3.8710   10.8210   27.7050 O   0  0  0  0  0  0  0  0  0  0  0  0
    4.4910   13.2010   27.6840 O   0  0  0  0  0  0  0  0  0  0  0  0
    5.6110   11.6600   29.4460 C   0  0  0  0  0  0  0  0  0  0  0  0
    4.6040   11.7820   30.5610 C   0  0  0  0  0  0  0  0  0  0  0  0
 25 24  1  0
 24 21  1  0
 22 21  2  0
 23 21  2  0
 21 20  1  0
 20 18  2  0
 18 17  1  0
 17 14  2  0
 15 14  1  0
 16 15  1  0
 14 13  1  0
 13 12  1  0
 12 10  1  0
 11 10  2  0
 10  9  1  0
  9  7  1  0
  7  6  1  0
  6  5  1  0
  5  4  1  0
  4  2  1  6
  3  2  1  0
  2  1  2  0
  8  4  1  0
  9  8  1  0
 19 13  2  0
 20 19  1  0
M  END
$$$$
