A71EV2A-x3207_A_201_1_A71EV2A-x0911+A+147+1__LIG
     RDKit          3D

 19 20  0  0  0  0  0  0  0  0999 V2000
    7.8670   13.2600   22.5100 O   0  0  0  0  0  0  0  0  0  0  0  0
    8.7650   13.7120   23.2170 C   0  0  0  0  0  0  0  0  0  0  0  0
    9.5030   14.7790   22.8470 N   0  0  0  0  0  0  0  0  0  0  0  0
   10.5030   15.4670   23.6810 C   0  0  0  0  0  0  0  0  0  0  0  0
   11.8980   15.3280   23.0730 C   0  0  0  0  0  0  0  0  0  0  0  0
   11.9030   15.7520   21.5990 C   0  0  0  0  0  0  0  0  0  0  0  0
    9.4660   15.2780   21.4710 C   0  0  0  0  0  0  0  0  0  0  0  0
   10.8170   15.0140   20.7980 C   0  0  1  0  0  0  0  0  0  0  0  0
   10.7240   15.5090   19.3650 C   0  0  0  0  0  0  0  0  0  0  0  0
   10.3510   16.6550   19.1150 O   0  0  0  0  0  0  0  0  0  0  0  0
   10.9970   14.6210   18.4180 N   0  0  0  0  0  0  0  0  0  0  0  0
    9.1400   13.0660   24.5370 C   0  0  0  0  0  0  0  0  0  0  0  0
    8.7180   11.6180   24.5980 C   0  0  0  0  0  0  0  0  0  0  0  0
    7.7290   11.2140   25.4890 C   0  0  0  0  0  0  0  0  0  0  0  0
    7.3850    9.8630   25.5430 C   0  0  0  0  0  0  0  0  0  0  0  0
    6.4440    9.4250   26.3920 N   0  0  0  0  0  0  0  0  0  0  0  0
    7.9800    8.9320   24.7570 N   0  0  0  0  0  0  0  0  0  0  0  0
    8.9320    9.3480   23.9130 C   0  0  0  0  0  0  0  0  0  0  0  0
    9.3240   10.6610   23.8010 C   0  0  0  0  0  0  0  0  0  0  0  0
 11  9  1  0
 10  9  2  0
  8  9  1  6
  8  6  1  0
  6  5  1  0
  5  4  1  0
  4  3  1  0
  3  2  1  0
  2  1  2  0
 12  2  1  0
 13 12  1  0
 13 19  2  0
 19 18  1  0
 18 17  2  0
 17 15  1  0
 16 15  1  0
 15 14  2  0
 14 13  1  0
  7  3  1  0
  8  7  1  0
M  END
$$$$
