A71EV2A-x5210_C_201_2_A71EV2A-x0911+A+147+1__LIG
     RDKit          3D

 20 22  0  0  0  0  0  0  0  0999 V2000
   11.3070   15.0030   25.0810 O   0  0  0  0  0  0  0  0  0  0  0  0
   11.1840   15.0850   23.8620 C   0  0  0  0  0  0  0  0  0  0  0  0
   12.3900   15.4310   23.0260 C   0  0  0  0  0  0  0  0  0  0  0  0
   12.0490   15.9370   21.6290 C   0  0  0  0  0  0  0  0  0  0  0  0
    9.9920   14.8820   23.2550 N   0  0  0  0  0  0  0  0  0  0  0  0
    9.7410   15.0450   21.8100 C   0  0  0  0  0  0  0  0  0  0  0  0
   11.0280   15.0010   20.9770 C   0  0  1  0  0  0  0  0  0  0  0  0
   10.7250   15.4620   19.5640 C   0  0  0  0  0  0  0  0  0  0  0  0
   10.3360   16.6210   19.3390 O   0  0  0  0  0  0  0  0  0  0  0  0
   10.8980   14.5570   18.6100 N   0  0  0  0  0  0  0  0  0  0  0  0
    8.8620   14.4540   24.1120 C   0  0  2  0  0  0  0  0  0  0  0  0
    8.6660   12.9490   24.1320 C   0  0  0  0  0  0  0  0  0  0  0  0
    9.6210   12.0830   23.6000 C   0  0  0  0  0  0  0  0  0  0  0  0
    9.4770   10.7100   23.7060 C   0  0  0  0  0  0  0  0  0  0  0  0
    8.3970   10.1890   24.3700 C   0  0  0  0  0  0  0  0  0  0  0  0
    7.4380   11.0340   24.9020 C   0  0  0  0  0  0  0  0  0  0  0  0
    7.5340   12.4130   24.7530 C   0  0  0  0  0  0  0  0  0  0  0  0
    6.3700   13.2960   25.1510 C   0  0  0  0  0  0  0  0  0  0  0  0
    6.5620   14.8080   24.9600 C   0  0  0  0  0  0  0  0  0  0  0  0
    7.5220   15.1140   23.7920 C   0  0  0  0  0  0  0  0  0  0  0  0
 10  8  1  0
  9  8  2  0
  7  8  1  6
  7  4  1  0
  4  3  1  0
  3  2  1  0
  2  1  2  0
  5  2  1  0
 11  5  1  6
 11 20  1  0
 20 19  1  0
 19 18  1  0
 18 17  1  0
 17 16  1  0
 16 15  2  0
 15 14  1  0
 14 13  2  0
 13 12  1  0
 17 12  2  0
 12 11  1  0
  6  5  1  0
  7  6  1  0
M  END
$$$$
