A71EV2A-x4735_A_201_1_A71EV2A-x0911+A+147+1__LIG
     RDKit          3D

 21 23  0  0  0  0  0  0  0  0999 V2000
    8.4760   13.3900   22.7820 O   0  0  0  0  0  0  0  0  0  0  0  0
    9.3560   13.5950   23.5540 C   0  0  0  0  0  0  0  0  0  0  0  0
    9.1110   13.1850   24.9920 C   0  0  0  0  0  0  0  0  0  0  0  0
    7.9930   12.1560   25.0900 C   0  0  0  0  0  0  0  0  0  0  0  0
    6.8460   12.4550   25.8250 C   0  0  0  0  0  0  0  0  0  0  0  0
    5.9130   11.4870   26.1170 C   0  0  0  0  0  0  0  0  0  0  0  0
    6.0940   10.1950   25.6890 C   0  0  0  0  0  0  0  0  0  0  0  0
    7.1830    9.8700   24.8990 C   0  0  0  0  0  0  0  0  0  0  0  0
    8.1260   10.8540   24.5870 C   0  0  0  0  0  0  0  0  0  0  0  0
    9.4660   10.5020   23.4910 S   0  0  0  0  0  0  0  0  0  0  0  0
    9.1500    8.7560   22.9340 C   0  0  0  0  0  0  0  0  0  0  0  0
   10.5160   14.1250   23.0740 N   0  0  0  0  0  0  0  0  0  0  0  0
   10.4610   14.3780   21.6350 C   0  0  2  0  0  0  0  0  0  0  0  0
   11.9440   14.3960   21.2190 C   0  0  0  0  0  0  0  0  0  0  0  0
   12.6960   14.8530   22.4770 C   0  0  0  0  0  0  0  0  0  0  0  0
   11.7820   14.5840   23.6630 C   0  0  0  0  0  0  0  0  0  0  0  0
    9.8210   15.6740   21.1940 C   0  0  0  0  0  0  0  0  0  0  0  0
    9.6760   16.7950   21.9660 N   0  0  0  0  0  0  0  0  0  0  0  0
    9.1650   17.7610   21.1970 C   0  0  0  0  0  0  0  0  0  0  0  0
    8.9450   17.3240   19.9660 N   0  0  0  0  0  0  0  0  0  0  0  0
    9.3620   16.0210   19.9540 C   0  0  0  0  0  0  0  0  0  0  0  0
 11 10  1  0
 10  9  1  0
  9  8  1  0
  8  7  2  0
  7  6  1  0
  6  5  2  0
  5  4  1  0
  9  4  2  0
  4  3  1  0
  3  2  1  0
  2  1  2  0
 12  2  1  0
 12 16  1  0
 16 15  1  0
 15 14  1  0
 14 13  1  0
 13 12  1  0
 13 17  1  1
 17 21  2  0
 21 20  1  0
 20 19  2  0
 19 18  1  0
 18 17  1  0
M  END
$$$$
