A71EV2A-x4856_A_201_1_A71EV2A-x0911+A+147+1__LIG
     RDKit          3D

 20 21  0  0  0  0  0  0  0  0999 V2000
   10.3020   16.3880   19.3120 O   0  0  0  0  0  0  0  0  0  0  0  0
   10.8390   15.2870   19.4470 C   0  0  0  0  0  0  0  0  0  0  0  0
   11.2040   14.5340   18.4220 N   0  0  0  0  0  0  0  0  0  0  0  0
   11.0990   14.7050   20.8270 C   0  0  1  0  0  0  0  0  0  0  0  0
   11.9370   15.5920   21.7620 C   0  0  0  0  0  0  0  0  0  0  0  0
   11.6710   14.9750   23.1280 C   0  0  0  0  0  0  0  0  0  0  0  0
    9.8020   14.5260   21.6330 C   0  0  0  0  0  0  0  0  0  0  0  0
   10.2750   14.5220   23.0230 N   0  0  0  0  0  0  0  0  0  0  0  0
    9.5410   14.1540   24.0940 C   0  0  0  0  0  0  0  0  0  0  0  0
    9.9990   14.1700   25.2330 O   0  0  0  0  0  0  0  0  0  0  0  0
    8.1020   13.7570   23.8200 C   0  0  0  0  0  0  0  0  0  0  0  0
    7.6230   12.6290   24.7070 C   0  0  0  0  0  0  0  0  0  0  0  0
    7.9950   11.2930   24.5050 C   0  0  0  0  0  0  0  0  0  0  0  0
    9.2710   10.9790   23.3280 S   0  0  0  0  0  0  0  0  0  0  0  0
    9.3100    9.1680   23.2200 C   0  0  0  0  0  0  0  0  0  0  0  0
    6.6680   12.9170   25.6780 C   0  0  0  0  0  0  0  0  0  0  0  0
    6.0910   11.8880   26.3890 C   0  0  0  0  0  0  0  0  0  0  0  0
    4.7600   12.2930   27.6700 Br  0  0  0  0  0  0  0  0  0  0  0  0
    6.4330   10.5750   26.1800 C   0  0  0  0  0  0  0  0  0  0  0  0
    7.3870   10.2750   25.2280 C   0  0  0  0  0  0  0  0  0  0  0  0
 15 14  1  0
 14 13  1  0
 13 20  2  0
 20 19  1  0
 19 17  2  0
 18 17  1  0
 17 16  1  0
 16 12  2  0
 13 12  1  0
 12 11  1  0
 11  9  1  0
 10  9  2  0
  9  8  1  0
  8  6  1  0
  6  5  1  0
  5  4  1  0
  4  2  1  6
  3  2  1  0
  2  1  2  0
  7  4  1  0
  8  7  1  0
M  END
$$$$
