XX01ZVNS2B-x0852_B_301_1_XX01ZVNS2B-x4590+B+203+1__LIG
     RDKit          3D

 18 19  0  0  0  0  0  0  0  0999 V2000
   -3.6020    4.4530  -18.4130 F   0  0  0  0  0  0  0  0  0  0  0  0
   -3.4990    4.7480  -19.7320 C   0  0  0  0  0  0  0  0  0  0  0  0
   -2.2500    4.9090  -20.2630 C   0  0  0  0  0  0  0  0  0  0  0  0
   -2.0770    5.2240  -21.5490 N   0  0  0  0  0  0  0  0  0  0  0  0
   -3.1740    5.3830  -22.2990 C   0  0  0  0  0  0  0  0  0  0  0  0
   -4.4670    5.2290  -21.8280 C   0  0  0  0  0  0  0  0  0  0  0  0
   -4.6470    4.8890  -20.4910 C   0  0  0  0  0  0  0  0  0  0  0  0
   -6.0390    4.6530  -19.9860 C   0  0  0  0  0  0  0  0  0  0  0  0
   -6.8080    3.9110  -20.5890 O   0  0  0  0  0  0  0  0  0  0  0  0
   -6.3210    5.2280  -18.7960 N   0  0  0  0  0  0  0  0  0  0  0  0
   -7.4250    4.9330  -17.9290 C   0  0  0  0  0  0  0  0  0  0  0  0
   -7.1970    4.9580  -16.5500 C   0  0  0  0  0  0  0  0  0  0  0  0
   -5.8460    5.2990  -15.9740 C   0  0  0  0  0  0  0  0  0  0  0  0
   -8.7040    4.6350  -18.4360 C   0  0  0  0  0  0  0  0  0  0  0  0
   -8.8890    4.3200  -19.7400 O   0  0  0  0  0  0  0  0  0  0  0  0
   -9.7380    4.3510  -17.5600 C   0  0  0  0  0  0  0  0  0  0  0  0
   -9.5100    4.3590  -16.2000 C   0  0  0  0  0  0  0  0  0  0  0  0
   -8.2610    4.6650  -15.7030 C   0  0  0  0  0  0  0  0  0  0  0  0
 13 12  1  0
 12 18  2  0
 18 17  1  0
 17 16  2  0
 16 14  1  0
 15 14  1  0
 14 11  2  0
 12 11  1  0
 11 10  1  0
 10  8  1  0
  9  8  2  0
  8  7  1  0
  7  6  2  0
  6  5  1  0
  5  4  2  0
  4  3  1  0
  3  2  2  0
  7  2  1  0
  2  1  1  0
M  END
$$$$
