A71EV2A-x5289_A_201_2_A71EV2A-x0911+A+147+1__LIG
     RDKit          3D

 24 25  0  0  0  0  0  0  0  0999 V2000
   10.3140   16.7110   19.2240 O   0  0  0  0  0  0  0  0  0  0  0  0
   10.6290   15.5340   19.4380 C   0  0  0  0  0  0  0  0  0  0  0  0
   10.9420   14.6700   18.4740 N   0  0  0  0  0  0  0  0  0  0  0  0
   10.6750   14.9780   20.8500 C   0  0  1  0  0  0  0  0  0  0  0  0
   11.7210   15.6990   21.7190 C   0  0  0  0  0  0  0  0  0  0  0  0
   11.6930   15.1470   23.1550 C   0  0  0  0  0  0  0  0  0  0  0  0
   10.2960   15.2470   23.7370 C   0  0  0  0  0  0  0  0  0  0  0  0
    9.2870   15.1710   21.4690 C   0  0  0  0  0  0  0  0  0  0  0  0
    9.2940   14.6540   22.8380 N   0  0  0  0  0  0  0  0  0  0  0  0
    8.4220   13.6610   23.1920 C   0  0  0  0  0  0  0  0  0  0  0  0
    7.5410   13.2870   22.4350 O   0  0  0  0  0  0  0  0  0  0  0  0
    8.6420   13.0870   24.4000 N   0  0  0  0  0  0  0  0  0  0  0  0
    7.7390   12.0880   24.8600 C   0  0  0  0  0  0  0  0  0  0  0  0
    7.9570   10.7430   24.5570 C   0  0  0  0  0  0  0  0  0  0  0  0
    9.0470   10.4930   23.7680 O   0  0  0  0  0  0  0  0  0  0  0  0
    9.3850    9.1310   23.5130 C   0  0  0  0  0  0  0  0  0  0  0  0
    6.6670   12.4530   25.6800 C   0  0  0  0  0  0  0  0  0  0  0  0
    6.4240   14.1810   25.9560 S   0  0  0  0  0  0  0  0  0  0  0  0
    5.1960   14.2290   27.3080 C   0  0  0  0  0  0  0  0  0  0  0  0
    3.8480   14.0440   26.6540 C   0  0  0  0  0  0  0  0  0  0  0  0
    5.3240   15.5980   27.9470 C   0  0  0  0  0  0  0  0  0  0  0  0
    5.8390   11.4690   26.2160 C   0  0  0  0  0  0  0  0  0  0  0  0
    6.0720   10.1350   25.9150 C   0  0  0  0  0  0  0  0  0  0  0  0
    7.1250    9.7670   25.0870 C   0  0  0  0  0  0  0  0  0  0  0  0
 16 15  1  0
 15 14  1  0
 14 24  2  0
 24 23  1  0
 23 22  2  0
 22 17  1  0
 18 17  1  0
 19 18  1  0
 21 19  1  0
 20 19  1  0
 17 13  2  0
 14 13  1  0
 13 12  1  0
 12 10  1  0
 11 10  2  0
 10  9  1  0
  9  7  1  0
  7  6  1  0
  6  5  1  0
  5  4  1  0
  4  2  1  6
  3  2  1  0
  2  1  2  0
  8  4  1  0
  9  8  1  0
M  END
$$$$
