XX01ZVNS2B-x4134_B_203_5_XX01ZVNS2B-x4590+B+203+1__LIG
     RDKit          3D

 23 26  0  0  0  0  0  0  0  0999 V2000
   -8.2220    7.1040   -8.9260 Br  0  0  0  0  0  0  0  0  0  0  0  0
   -8.4090    5.4440   -9.8240 C   0  0  0  0  0  0  0  0  0  0  0  0
   -8.5350    4.2910   -9.0830 C   0  0  0  0  0  0  0  0  0  0  0  0
   -8.6360    3.0820   -9.7510 C   0  0  0  0  0  0  0  0  0  0  0  0
   -8.6030    3.0380  -11.1340 C   0  0  0  0  0  0  0  0  0  0  0  0
   -8.3900    5.4340  -11.2010 C   0  0  0  0  0  0  0  0  0  0  0  0
   -8.4760    4.2140  -11.8610 C   0  0  0  0  0  0  0  0  0  0  0  0
   -8.3970    4.2130  -13.2740 N   0  0  0  0  0  0  0  0  0  0  0  0
   -7.6510    5.0390  -14.0440 C   0  0  0  0  0  0  0  0  0  0  0  0
   -6.9190    5.9150  -13.5930 O   0  0  0  0  0  0  0  0  0  0  0  0
   -7.7560    4.8110  -15.5190 C   0  0  0  0  0  0  0  0  0  0  0  0
   -6.7050    5.1350  -16.3930 C   0  0  0  0  0  0  0  0  0  0  0  0
   -6.8260    4.9480  -17.7800 C   0  0  0  0  0  0  0  0  0  0  0  0
   -8.0090    4.4240  -18.2950 C   0  0  0  0  0  0  0  0  0  0  0  0
   -9.0420    4.0800  -17.4360 C   0  0  0  0  0  0  0  0  0  0  0  0
   -8.9200    4.2740  -16.0670 C   0  0  0  0  0  0  0  0  0  0  0  0
   -5.4540    5.5970  -16.1650 N   0  0  0  0  0  0  0  0  0  0  0  0
   -4.7460    5.7180  -17.3300 N   0  0  0  0  0  0  0  0  0  0  0  0
   -5.5410    5.3400  -18.3080 C   0  0  0  0  0  0  0  0  0  0  0  0
   -5.0980    5.3590  -19.7430 C   0  0  0  0  0  0  0  0  0  0  0  0
   -3.5760    5.2570  -20.0200 C   0  0  0  0  0  0  0  0  0  0  0  0
   -3.7830    6.2740  -21.0750 N   0  0  0  0  0  0  0  0  0  0  0  0
   -4.9990    6.7670  -20.3850 C   0  0  0  0  0  0  0  0  0  0  0  0
 10  9  2  0
  9  8  1  0
  8  7  1  0
  7  5  1  0
  5  4  2  0
  4  3  1  0
  3  2  2  0
  2  1  1  0
  6  2  1  0
  7  6  2  0
 11  9  1  0
 11 16  2  0
 16 15  1  0
 15 14  2  0
 14 13  1  0
 13 19  1  0
 20 19  1  0
 20 23  1  0
 23 22  1  0
 22 21  1  0
 21 20  1  0
 19 18  2  0
 18 17  1  0
 17 12  1  0
 12 11  1  0
 13 12  2  0
M  END
$$$$
