XX01ZVNS2B-x3432_B_203_1_XX01ZVNS2B-x4590+B+203+1__LIG
     RDKit          3D

 23 26  0  0  0  0  0  0  0  0999 V2000
   -7.2780    6.2130  -13.2350 O   0  0  0  0  0  0  0  0  0  0  0  0
   -7.6280    5.1500  -13.7310 C   0  0  0  0  0  0  0  0  0  0  0  0
   -8.1380    4.1160  -13.0080 N   0  0  0  0  0  0  0  0  0  0  0  0
   -8.3080    4.0650  -11.5940 C   0  0  0  0  0  0  0  0  0  0  0  0
   -7.9810    5.1830  -10.8300 C   0  0  0  0  0  0  0  0  0  0  0  0
   -8.1290    5.1650   -9.4550 C   0  0  0  0  0  0  0  0  0  0  0  0
   -8.5620    3.9990   -8.8390 C   0  0  0  0  0  0  0  0  0  0  0  0
   -8.9030    2.8840   -9.5930 C   0  0  0  0  0  0  0  0  0  0  0  0
   -8.7710    2.8950  -10.9750 C   0  0  0  0  0  0  0  0  0  0  0  0
   -9.3750    1.7940   -8.6740 C   0  0  0  0  0  0  0  0  0  0  0  0
   -8.8640    2.2550   -7.3740 N   0  0  0  0  0  0  0  0  0  0  0  0
   -8.8400    3.7250   -7.3880 C   0  0  0  0  0  0  0  0  0  0  0  0
   -7.4690    4.9060  -15.2090 C   0  0  0  0  0  0  0  0  0  0  0  0
   -8.5640    4.5010  -15.9410 C   0  0  0  0  0  0  0  0  0  0  0  0
   -8.4840    4.3630  -17.3120 C   0  0  0  0  0  0  0  0  0  0  0  0
  -10.0170    3.8030  -18.2910 Br  0  0  0  0  0  0  0  0  0  0  0  0
   -7.3270    4.6090  -17.9870 C   0  0  0  0  0  0  0  0  0  0  0  0
   -6.1820    5.0370  -17.2820 C   0  0  0  0  0  0  0  0  0  0  0  0
   -4.9650    5.2820  -17.9640 C   0  0  0  0  0  0  0  0  0  0  0  0
   -3.8550    5.6870  -17.2940 C   0  0  0  0  0  0  0  0  0  0  0  0
   -3.8930    5.8460  -15.9020 C   0  0  0  0  0  0  0  0  0  0  0  0
   -5.0460    5.5970  -15.2120 C   0  0  0  0  0  0  0  0  0  0  0  0
   -6.2370    5.1960  -15.8710 C   0  0  0  0  0  0  0  0  0  0  0  0
  1  2  2  0
  2  3  1  0
  3  4  1  0
  4  5  2  0
  5  6  1  0
  6  7  2  0
  7  8  1  0
  8  9  2  0
  8 10  1  0
 10 11  1  0
 11 12  1  0
  2 13  1  0
 13 14  2  0
 14 15  1  0
 15 16  1  0
 15 17  2  0
 17 18  1  0
 18 19  2  0
 19 20  1  0
 20 21  2  0
 21 22  1  0
 22 23  2  0
  4  9  1  0
 13 23  1  0
  7 12  1  0
 18 23  1  0
M  END
$$$$
