XX01ZVNS2B-x0101_B_301_1_XX01ZVNS2B-x4590+B+203+1__LIG
     RDKit          3D

 15 15  0  0  0  0  0  0  0  0999 V2000
  -10.3540    3.6840  -18.3730 Cl  0  0  0  0  0  0  0  0  0  0  0  0
   -8.8750    4.1240  -17.5620 C   0  0  0  0  0  0  0  0  0  0  0  0
   -8.8420    4.1370  -16.1840 C   0  0  0  0  0  0  0  0  0  0  0  0
   -7.6810    4.5390  -15.5470 C   0  0  0  0  0  0  0  0  0  0  0  0
   -6.5700    4.9100  -16.2870 C   0  0  0  0  0  0  0  0  0  0  0  0
   -7.7790    4.4910  -18.3200 C   0  0  0  0  0  0  0  0  0  0  0  0
   -6.6090    4.8880  -17.6780 C   0  0  0  0  0  0  0  0  0  0  0  0
   -5.3620    5.2460  -18.4260 C   0  0  0  0  0  0  0  0  0  0  0  0
   -4.3560    5.6200  -17.8280 O   0  0  0  0  0  0  0  0  0  0  0  0
   -5.3930    5.1380  -19.7690 N   0  0  0  0  0  0  0  0  0  0  0  0
   -4.2640    5.4430  -20.6810 C   0  0  0  0  0  0  0  0  0  0  0  0
   -4.0530    6.9590  -20.7330 C   0  0  0  0  0  0  0  0  0  0  0  0
   -2.9820    4.7740  -20.1990 C   0  0  0  0  0  0  0  0  0  0  0  0
   -4.5150    4.8340  -22.0520 C   0  0  0  0  0  0  0  0  0  0  0  0
   -5.3880    5.5970  -22.8680 O   0  0  0  0  0  0  0  0  0  0  0  0
 12 11  1  0
 13 11  1  0
 14 11  1  0
 15 14  1  0
 11 10  1  0
 10  8  1  0
  9  8  2  0
  8  7  1  0
  7  5  1  0
  5  4  2  0
  4  3  1  0
  3  2  2  0
  2  1  1  0
  6  2  1  0
  7  6  2  0
M  END
$$$$
