XX01ZVNS2B-x5042_B_203_4_XX01ZVNS2B-x4590+B+203+1__LIG
     RDKit          3D

 28 32  0  0  0  0  0  0  0  0999 V2000
   -9.8690    3.5420  -17.8800 Cl  0  0  0  0  0  0  0  0  0  0  0  0
   -8.4880    4.0570  -16.9670 C   0  0  0  0  0  0  0  0  0  0  0  0
   -8.5850    4.1200  -15.5870 C   0  0  0  0  0  0  0  0  0  0  0  0
   -7.3220    4.4280  -17.6440 C   0  0  0  0  0  0  0  0  0  0  0  0
   -6.2620    4.8930  -16.8460 C   0  0  0  0  0  0  0  0  0  0  0  0
   -5.2490    5.2160  -17.7000 N   0  0  0  0  0  0  0  0  0  0  0  0
   -3.9640    5.8390  -17.3900 C   0  0  0  0  0  0  0  0  0  0  0  0
   -3.8870    7.2690  -17.9390 C   0  0  0  0  0  0  0  0  0  0  0  0
   -2.5890    7.9450  -17.5170 C   0  0  0  0  0  0  0  0  0  0  0  0
   -1.4460    7.0090  -17.3800 N   0  0  0  0  0  0  0  0  0  0  0  0
   -1.5940    5.8260  -18.2570 C   0  0  0  0  0  0  0  0  0  0  0  0
   -2.7890    4.9710  -17.8530 C   0  0  0  0  0  0  0  0  0  0  0  0
   -5.5920    4.9600  -18.9990 N   0  0  0  0  0  0  0  0  0  0  0  0
   -6.8240    4.4910  -18.9700 C   0  0  0  0  0  0  0  0  0  0  0  0
   -6.3260    4.9630  -15.4610 C   0  0  0  0  0  0  0  0  0  0  0  0
   -7.5030    4.5710  -14.8310 C   0  0  0  0  0  0  0  0  0  0  0  0
   -7.4810    4.7140  -13.3420 C   0  0  0  0  0  0  0  0  0  0  0  0
   -6.6940    5.4800  -12.7960 O   0  0  0  0  0  0  0  0  0  0  0  0
   -8.3460    3.9470  -12.6510 N   0  0  0  0  0  0  0  0  0  0  0  0
   -8.4810    3.9270  -11.2430 C   0  0  0  0  0  0  0  0  0  0  0  0
   -8.6460    2.7110  -10.5890 C   0  0  0  0  0  0  0  0  0  0  0  0
   -8.7710    2.6730   -9.2040 C   0  0  0  0  0  0  0  0  0  0  0  0
   -9.1330    1.5250   -8.3080 C   0  0  0  0  0  0  0  0  0  0  0  0
   -8.8070    2.0760   -6.9960 N   0  0  0  0  0  0  0  0  0  0  0  0
   -8.7500    3.5420   -6.9970 C   0  0  0  0  0  0  0  0  0  0  0  0
   -8.6770    3.8450   -8.4650 C   0  0  0  0  0  0  0  0  0  0  0  0
   -8.5200    5.0630   -9.1180 C   0  0  0  0  0  0  0  0  0  0  0  0
   -8.4350    5.1060  -10.5000 C   0  0  0  0  0  0  0  0  0  0  0  0
 18 17  2  0
 19 17  1  0
 20 19  1  0
 20 28  2  0
 28 27  1  0
 27 26  2  0
 26 22  1  0
 22 21  2  0
 21 20  1  0
 23 22  1  0
 24 23  1  0
 25 24  1  0
 26 25  1  0
 17 16  1  0
 16  3  1  0
  3  2  2  0
  2  1  1  0
  4  2  1  0
  4 14  1  0
 14 13  2  0
 13  6  1  0
  7  6  1  0
  7 12  1  0
 12 11  1  0
 11 10  1  0
 10  9  1  0
  9  8  1  0
  8  7  1  0
  6  5  1  0
  5  4  2  0
 15  5  1  0
 16 15  2  0
M  END
$$$$
