A71EV2A-x3550_A_203_1_A71EV2A-x0911+A+147+1__LIG
     RDKit          3D

 21 22  0  0  0  0  0  0  0  0999 V2000
   10.6010   16.8050   19.1080 O   0  0  0  0  0  0  0  0  0  0  0  0
   10.9310   15.6420   19.3780 C   0  0  0  0  0  0  0  0  0  0  0  0
   11.1170   14.7180   18.4520 N   0  0  0  0  0  0  0  0  0  0  0  0
   11.0390   15.1730   20.8180 C   0  0  2  0  0  0  0  0  0  0  0  0
    9.6100   14.9960   21.3560 C   0  0  0  0  0  0  0  0  0  0  0  0
   11.8160   16.1940   21.6860 C   0  0  0  0  0  0  0  0  0  0  0  0
   11.2190   16.3410   23.0950 C   0  0  0  0  0  0  0  0  0  0  0  0
   10.6630   15.0230   23.6330 C   0  0  2  0  0  0  0  0  0  0  0  0
   11.7630   13.9790   23.8280 C   0  0  0  0  0  0  0  0  0  0  0  0
    9.5840   14.5240   22.7500 N   0  0  0  0  0  0  0  0  0  0  0  0
    8.5350   13.7560   23.1690 C   0  0  0  0  0  0  0  0  0  0  0  0
    7.6510   13.4090   22.3890 O   0  0  0  0  0  0  0  0  0  0  0  0
    8.4870   13.3690   24.6360 C   0  0  0  0  0  0  0  0  0  0  0  0
    7.5090   12.2540   24.9170 C   0  0  0  0  0  0  0  0  0  0  0  0
    7.7770   10.9380   24.5200 C   0  0  0  0  0  0  0  0  0  0  0  0
    8.8760   10.7620   23.7090 O   0  0  0  0  0  0  0  0  0  0  0  0
    9.2310    9.4180   23.3570 C   0  0  0  0  0  0  0  0  0  0  0  0
    6.3690   12.4920   25.6900 C   0  0  0  0  0  0  0  0  0  0  0  0
    5.5410   11.4490   26.0840 C   0  0  0  0  0  0  0  0  0  0  0  0
    5.8340   10.1680   25.7170 C   0  0  0  0  0  0  0  0  0  0  0  0
    6.9470    9.9020   24.9260 C   0  0  0  0  0  0  0  0  0  0  0  0
 17 16  1  0
 16 15  1  0
 15 21  2  0
 21 20  1  0
 20 19  2  0
 19 18  1  0
 18 14  2  0
 15 14  1  0
 14 13  1  0
 13 11  1  0
 12 11  2  0
 11 10  1  0
 10  5  1  0
  5  4  1  0
  4  2  1  6
  3  2  1  0
  2  1  2  0
  6  4  1  0
  7  6  1  0
  8  7  1  0
 10  8  1  0
  8  9  1  6
M  END
$$$$
