A71EV2A-x5599_C_201_5_A71EV2A-x0911+A+147+1__LIG
     RDKit          3D

 22 24  0  0  0  0  0  0  0  0999 V2000
   10.3600   16.7360   19.1920 O   0  0  0  0  0  0  0  0  0  0  0  0
   10.7240   15.5720   19.4070 C   0  0  0  0  0  0  0  0  0  0  0  0
   11.0240   14.7110   18.4430 N   0  0  0  0  0  0  0  0  0  0  0  0
   10.8100   15.0300   20.8230 C   0  0  1  0  0  0  0  0  0  0  0  0
   11.8900   15.7620   21.6410 C   0  0  0  0  0  0  0  0  0  0  0  0
   11.9290   15.2430   23.0870 C   0  0  0  0  0  0  0  0  0  0  0  0
   10.5500   15.3690   23.7370 C   0  0  0  0  0  0  0  0  0  0  0  0
    9.4610   15.2760   21.5110 C   0  0  0  0  0  0  0  0  0  0  0  0
    9.5050   14.7700   22.8830 N   0  0  0  0  0  0  0  0  0  0  0  0
    8.7330   13.7140   23.2290 C   0  0  0  0  0  0  0  0  0  0  0  0
    7.8530   13.2460   22.5400 O   0  0  0  0  0  0  0  0  0  0  0  0
    9.0070   13.2960   24.5050 O   0  0  0  0  0  0  0  0  0  0  0  0
    8.3030   12.1600   24.9180 C   0  0  0  0  0  0  0  0  0  0  0  0
    7.2270   12.2980   25.7970 C   0  0  0  0  0  0  0  0  0  0  0  0
    6.7780   13.6500   26.2950 C   0  0  0  0  0  0  0  0  0  0  0  0
    8.7410   10.9290   24.4620 C   0  0  0  0  0  0  0  0  0  0  0  0
    9.9220   10.5990   23.5940 C   0  0  0  0  0  0  0  0  0  0  0  0
   10.0580    9.0850   23.7350 C   0  0  0  0  0  0  0  0  0  0  0  0
    8.7020    8.5760   24.2290 C   0  0  0  0  0  0  0  0  0  0  0  0
    8.0880    9.7830   24.8840 C   0  0  0  0  0  0  0  0  0  0  0  0
    7.0170    9.8770   25.7700 C   0  0  0  0  0  0  0  0  0  0  0  0
    6.5960   11.1210   26.2150 C   0  0  0  0  0  0  0  0  0  0  0  0
 15 14  1  0
 14 22  2  0
 22 21  1  0
 21 20  2  0
 20 16  1  0
 16 13  2  0
 14 13  1  0
 13 12  1  0
 12 10  1  0
 11 10  2  0
 10  9  1  0
  9  7  1  0
  7  6  1  0
  6  5  1  0
  5  4  1  0
  4  2  1  6
  3  2  1  0
  2  1  2  0
  8  4  1  0
  9  8  1  0
 17 16  1  0
 18 17  1  0
 19 18  1  0
 20 19  1  0
M  END
$$$$
