A71EV2A-x3234_D_246_1_A71EV2A-x0911+A+147+1__LIG
     RDKit          3D

 19 21  0  0  0  0  0  0  0  0999 V2000
    9.9130   13.8680   24.2030 C   0  0  0  0  0  0  0  0  0  0  0  0
    9.1930   12.5600   24.4040 C   0  0  0  0  0  0  0  0  0  0  0  0
    9.6770   11.4150   23.7870 C   0  0  0  0  0  0  0  0  0  0  0  0
    9.1340   10.1620   24.0250 C   0  0  0  0  0  0  0  0  0  0  0  0
    9.6990    8.9430   23.3580 C   0  0  0  0  0  0  0  0  0  0  0  0
    8.1070   12.4320   25.2790 C   0  0  0  0  0  0  0  0  0  0  0  0
    7.5450   11.1830   25.5610 C   0  0  0  0  0  0  0  0  0  0  0  0
    6.4380   11.0190   26.5690 C   0  0  0  0  0  0  0  0  0  0  0  0
    8.0680   10.0690   24.9110 C   0  0  0  0  0  0  0  0  0  0  0  0
    7.5490   13.6060   25.8800 N   0  0  0  0  0  0  0  0  0  0  0  0
    6.9100   14.6800   25.3020 C   0  0  0  0  0  0  0  0  0  0  0  0
    6.2120   15.5070   26.0360 N   0  0  0  0  0  0  0  0  0  0  0  0
    5.4900   16.2330   25.1360 N   0  0  0  0  0  0  0  0  0  0  0  0
    5.7430   15.8600   23.8560 C   0  0  0  0  0  0  0  0  0  0  0  0
    6.6580   14.8430   23.9020 C   0  0  0  0  0  0  0  0  0  0  0  0
    4.5370   17.2480   25.6100 C   0  0  0  0  0  0  0  0  0  0  0  0
    3.3480   16.7420   26.5050 C   0  0  0  0  0  0  0  0  0  0  0  0
    3.9610   17.2760   27.7070 O   0  0  0  0  0  0  0  0  0  0  0  0
    4.9020   18.0430   26.9140 C   0  0  0  0  0  0  0  0  0  0  0  0
  5  4  1  0
  4  9  1  0
  9  7  2  0
  8  7  1  0
  7  6  1  0
 10  6  1  0
 11 10  1  0
 11 15  1  0
 15 14  2  0
 14 13  1  0
 16 13  1  0
 16 19  1  0
 19 18  1  0
 18 17  1  0
 17 16  1  0
 13 12  1  0
 12 11  2  0
  6  2  2  0
  2  1  1  0
  3  2  1  0
  4  3  2  0
M  END
$$$$
