XX01ZVNS2B-x3495_B_203_1_XX01ZVNS2B-x4590+B+203+1__LIG
     RDKit          3D

 24 27  0  0  0  0  0  0  0  0999 V2000
   -7.1080    5.9290  -13.2370 O   0  0  0  0  0  0  0  0  0  0  0  0
   -7.6410    4.9300  -13.7030 C   0  0  0  0  0  0  0  0  0  0  0  0
   -8.2070    3.9690  -12.9360 N   0  0  0  0  0  0  0  0  0  0  0  0
   -8.3580    3.9950  -11.5230 C   0  0  0  0  0  0  0  0  0  0  0  0
   -8.1910    5.1910  -10.8260 C   0  0  0  0  0  0  0  0  0  0  0  0
   -8.3480    5.2320   -9.4490 C   0  0  0  0  0  0  0  0  0  0  0  0
   -8.6260    4.0540   -8.7700 C   0  0  0  0  0  0  0  0  0  0  0  0
   -8.7760    2.8560   -9.4560 C   0  0  0  0  0  0  0  0  0  0  0  0
   -8.6260    2.8040  -10.8350 C   0  0  0  0  0  0  0  0  0  0  0  0
   -9.1030    1.7590   -8.4800 C   0  0  0  0  0  0  0  0  0  0  0  0
   -8.7070    2.3660   -7.2000 N   0  0  0  0  0  0  0  0  0  0  0  0
   -8.8480    3.8260   -7.3000 C   0  0  0  0  0  0  0  0  0  0  0  0
   -7.5930    4.6890  -15.1810 C   0  0  0  0  0  0  0  0  0  0  0  0
   -8.7740    4.4040  -15.8720 C   0  0  0  0  0  0  0  0  0  0  0  0
   -8.7580    4.2830  -17.2420 C   0  0  0  0  0  0  0  0  0  0  0  0
  -10.2370    3.9120  -18.0850 Cl  0  0  0  0  0  0  0  0  0  0  0  0
   -7.5850    4.4290  -17.9600 C   0  0  0  0  0  0  0  0  0  0  0  0
   -6.4140    4.7470  -17.2970 C   0  0  0  0  0  0  0  0  0  0  0  0
   -6.4120    4.8590  -15.9170 C   0  0  0  0  0  0  0  0  0  0  0  0
   -5.1650    5.1590  -15.2560 N   0  0  0  0  0  0  0  0  0  0  0  0
   -4.0660    5.7990  -15.6960 C   0  0  0  0  0  0  0  0  0  0  0  0
   -3.1300    5.8030  -14.7720 N   0  0  0  0  0  0  0  0  0  0  0  0
   -3.6970    5.0900  -13.7750 C   0  0  0  0  0  0  0  0  0  0  0  0
   -4.9120    4.6470  -14.0100 N   0  0  0  0  0  0  0  0  0  0  0  0
  1  2  2  0
  2  3  1  0
  3  4  1  0
  4  5  2  0
  5  6  1  0
  6  7  2  0
  7  8  1  0
  8  9  2  0
  8 10  1  0
 10 11  1  0
 11 12  1  0
  2 13  1  0
 13 14  2  0
 14 15  1  0
 15 16  1  0
 15 17  2  0
 17 18  1  0
 18 19  2  0
 19 20  1  0
 20 21  1  0
 21 22  2  0
 22 23  1  0
 23 24  2  0
  4  9  1  0
 13 19  1  0
 20 24  1  0
  7 12  1  0
M  END
$$$$
