A71EV2A-x1068_A_301_1_A71EV2A-x0911+A+147+1__LIG
     RDKit          3D

  7  7  0  0  0  0  0  0  0  0999 V2000
    6.6240   10.3080   25.5720 N   0  0  0  0  0  0  0  0  0  0  0  0
    7.6530   10.5830   24.7670 C   0  0  0  0  0  0  0  0  0  0  0  0
    7.9990   11.8790   24.6190 N   0  0  0  0  0  0  0  0  0  0  0  0
    9.0020   12.1290   23.7660 C   0  0  0  0  0  0  0  0  0  0  0  0
    9.6610   11.1470   23.0590 C   0  0  0  0  0  0  0  0  0  0  0  0
    9.2440    9.8560   23.2900 C   0  0  0  0  0  0  0  0  0  0  0  0
    8.2500    9.5430   24.1300 N   0  0  0  0  0  0  0  0  0  0  0  0
  2  1  1  0
  2  7  2  0
  7  6  1  0
  6  5  2  0
  5  4  1  0
  4  3  2  0
  3  2  1  0
M  END
$$$$
