A71EV2A-x4843_A_201_3_A71EV2A-x0911+A+147+1__LIG
     RDKit          3D

 25 26  0  0  0  0  0  0  0  0999 V2000
   10.3970   16.9000   19.2920 O   0  0  0  0  0  0  0  0  0  0  0  0
   10.7370   15.7450   19.5140 C   0  0  0  0  0  0  0  0  0  0  0  0
   10.9220   14.8500   18.5580 N   0  0  0  0  0  0  0  0  0  0  0  0
   10.9160   15.2560   20.9360 C   0  0  1  0  0  0  0  0  0  0  0  0
   11.6240   16.3050   21.7740 C   0  0  0  0  0  0  0  0  0  0  0  0
   11.7370   15.8770   23.2260 C   0  0  0  0  0  0  0  0  0  0  0  0
   10.3860   15.6420   23.7880 C   0  0  0  0  0  0  0  0  0  0  0  0
    9.5200   15.1400   21.5000 C   0  0  0  0  0  0  0  0  0  0  0  0
    9.5900   14.7850   22.9150 N   0  0  0  0  0  0  0  0  0  0  0  0
    9.3070   13.7340   23.5890 C   0  0  0  0  0  0  0  0  0  0  0  0
   10.0820   13.2910   24.4130 O   0  0  0  0  0  0  0  0  0  0  0  0
    8.1240   13.1020   23.3820 N   0  0  0  0  0  0  0  0  0  0  0  0
    7.2800   13.3930   22.2300 C   0  0  0  0  0  0  0  0  0  0  0  0
    7.6090   12.2080   24.4030 C   0  0  0  0  0  0  0  0  0  0  0  0
    8.0710   10.8830   24.4980 C   0  0  0  0  0  0  0  0  0  0  0  0
    8.8170   10.4250   23.4590 O   0  0  0  0  0  0  0  0  0  0  0  0
    8.5150    9.1300   22.9960 C   0  0  0  0  0  0  0  0  0  0  0  0
    6.8780   12.7210   25.4820 C   0  0  0  0  0  0  0  0  0  0  0  0
    6.6510   11.9620   26.6370 C   0  0  0  0  0  0  0  0  0  0  0  0
    5.8090   12.4940   27.7790 C   0  0  0  0  0  0  0  0  0  0  0  0
    6.2650   13.5730   28.3500 F   0  0  0  0  0  0  0  0  0  0  0  0
    4.5970   12.6930   27.4570 F   0  0  0  0  0  0  0  0  0  0  0  0
    5.7110   11.6770   28.7930 F   0  0  0  0  0  0  0  0  0  0  0  0
    7.1360   10.6670   26.6960 C   0  0  0  0  0  0  0  0  0  0  0  0
    7.8270   10.1200   25.6290 C   0  0  0  0  0  0  0  0  0  0  0  0
 17 16  1  0
 16 15  1  0
 15 25  2  0
 25 24  1  0
 24 19  2  0
 20 19  1  0
 23 20  1  0
 22 20  1  0
 21 20  1  0
 19 18  1  0
 18 14  2  0
 15 14  1  0
 14 12  1  0
 13 12  1  0
 12 10  1  0
 11 10  2  0
 10  9  1  0
  9  7  1  0
  7  6  1  0
  6  5  1  0
  5  4  1  0
  4  2  1  6
  3  2  1  0
  2  1  2  0
  8  4  1  0
  9  8  1  0
M  END
$$$$
