A71EV2A-x5213_A_201_3_A71EV2A-x0911+A+147+1__LIG
     RDKit          3D

 19 20  0  0  0  0  0  0  0  0999 V2000
    9.4420    8.5650   23.1770 Cl  0  0  0  0  0  0  0  0  0  0  0  0
    8.5730    9.7260   24.1230 C   0  0  0  0  0  0  0  0  0  0  0  0
    7.5370    9.2490   24.7870 N   0  0  0  0  0  0  0  0  0  0  0  0
    6.9290   10.1660   25.5570 C   0  0  0  0  0  0  0  0  0  0  0  0
    7.3330   11.4810   25.6370 C   0  0  0  0  0  0  0  0  0  0  0  0
    9.0680   10.9450   24.0850 N   0  0  0  0  0  0  0  0  0  0  0  0
    8.4140   11.8340   24.8500 C   0  0  0  0  0  0  0  0  0  0  0  0
    8.9040   13.2560   24.7470 C   0  0  0  0  0  0  0  0  0  0  0  0
    8.6400   13.8360   23.3690 C   0  0  0  0  0  0  0  0  0  0  0  0
    7.7820   13.3640   22.6370 O   0  0  0  0  0  0  0  0  0  0  0  0
    9.4250   14.8630   22.9860 N   0  0  0  0  0  0  0  0  0  0  0  0
   10.5240   15.4260   23.7860 C   0  0  0  0  0  0  0  0  0  0  0  0
   11.8610   15.1770   23.1020 C   0  0  0  0  0  0  0  0  0  0  0  0
   11.8270   15.6600   21.6430 C   0  0  0  0  0  0  0  0  0  0  0  0
    9.3390   15.3580   21.6100 C   0  0  0  0  0  0  0  0  0  0  0  0
   10.6450   15.0310   20.8740 C   0  0  1  0  0  0  0  0  0  0  0  0
   10.5820   15.5210   19.4360 C   0  0  0  0  0  0  0  0  0  0  0  0
   10.2150   16.6680   19.1680 O   0  0  0  0  0  0  0  0  0  0  0  0
   10.9220   14.6380   18.5020 N   0  0  0  0  0  0  0  0  0  0  0  0
 19 17  1  0
 18 17  2  0
 16 17  1  6
 16 14  1  0
 14 13  1  0
 13 12  1  0
 12 11  1  0
 11  9  1  0
 10  9  2  0
  9  8  1  0
  8  7  1  0
  7  5  1  0
  5  4  2  0
  4  3  1  0
  3  2  2  0
  2  1  1  0
  6  2  1  0
  7  6  2  0
 15 11  1  0
 16 15  1  0
M  END
$$$$
