XX01ZVNS2B-x3502_B_203_1_XX01ZVNS2B-x4590+B+203+1__LIG
     RDKit          3D

 23 26  0  0  0  0  0  0  0  0999 V2000
   -3.0040    5.6930  -16.9590 C   0  0  0  0  0  0  0  0  0  0  0  0
   -4.4590    5.4110  -16.8270 C   0  0  0  0  0  0  0  0  0  0  0  0
   -5.1220    5.3130  -15.6910 N   0  0  0  0  0  0  0  0  0  0  0  0
   -6.4460    5.0680  -16.0490 C   0  0  0  0  0  0  0  0  0  0  0  0
   -7.5750    4.7890  -15.2530 C   0  0  0  0  0  0  0  0  0  0  0  0
   -7.5280    4.9160  -13.7560 C   0  0  0  0  0  0  0  0  0  0  0  0
   -6.7420    5.7090  -13.2420 O   0  0  0  0  0  0  0  0  0  0  0  0
   -8.3290    4.0940  -13.0300 N   0  0  0  0  0  0  0  0  0  0  0  0
   -8.4890    4.0670  -11.6120 C   0  0  0  0  0  0  0  0  0  0  0  0
   -8.2340    5.2240  -10.8750 C   0  0  0  0  0  0  0  0  0  0  0  0
   -8.3560    5.2240   -9.4960 C   0  0  0  0  0  0  0  0  0  0  0  0
   -8.6570    4.0330   -8.8470 C   0  0  0  0  0  0  0  0  0  0  0  0
   -8.9000    2.8750   -9.5700 C   0  0  0  0  0  0  0  0  0  0  0  0
   -8.7970    2.8650  -10.9570 C   0  0  0  0  0  0  0  0  0  0  0  0
   -9.2500    1.7720   -8.6130 C   0  0  0  0  0  0  0  0  0  0  0  0
   -8.7130    2.2950   -7.3470 N   0  0  0  0  0  0  0  0  0  0  0  0
   -8.8580    3.7580   -7.3830 C   0  0  0  0  0  0  0  0  0  0  0  0
   -8.7810    4.5830  -15.9110 C   0  0  0  0  0  0  0  0  0  0  0  0
   -8.8380    4.5360  -17.2900 C   0  0  0  0  0  0  0  0  0  0  0  0
  -10.3680    4.2180  -18.0710 Cl  0  0  0  0  0  0  0  0  0  0  0  0
   -7.7240    4.7220  -18.0880 C   0  0  0  0  0  0  0  0  0  0  0  0
   -6.5300    5.0000  -17.4410 C   0  0  0  0  0  0  0  0  0  0  0  0
   -5.2580    5.2370  -17.9120 N   0  0  0  0  0  0  0  0  0  0  0  0
  1  2  1  0
  2  3  2  0
  3  4  1  0
  4  5  2  0
  5  6  1  0
  6  7  2  0
  6  8  1  0
  8  9  1  0
  9 10  2  0
 10 11  1  0
 11 12  2  0
 12 13  1  0
 13 14  2  0
 13 15  1  0
 15 16  1  0
 16 17  1  0
  5 18  1  0
 18 19  2  0
 19 20  1  0
 19 21  1  0
 21 22  2  0
 22 23  1  0
  2 23  1  0
  4 22  1  0
  9 14  1  0
 12 17  1  0
M  END
$$$$
