A71EV2A-x3571_A_201_1_A71EV2A-x0911+A+147+1__LIG
     RDKit          3D

 21 22  0  0  0  0  0  0  0  0999 V2000
   10.2610   16.6990   19.1860 O   0  0  0  0  0  0  0  0  0  0  0  0
   10.5860   15.5440   19.4650 C   0  0  0  0  0  0  0  0  0  0  0  0
   10.9520   14.6580   18.5520 N   0  0  0  0  0  0  0  0  0  0  0  0
   10.5210   15.0300   20.8910 C   0  0  1  0  0  0  0  0  0  0  0  0
   11.6980   15.5870   21.6960 C   0  0  0  0  0  0  0  0  0  0  0  0
   11.9430   14.9110   23.0450 C   0  0  0  0  0  0  0  0  0  0  0  0
   11.0490   15.3450   24.1980 C   0  0  0  0  0  0  0  0  0  0  0  0
    9.6220   15.7380   23.8630 C   0  0  0  0  0  0  0  0  0  0  0  0
    9.1380   15.3070   21.4650 C   0  0  0  0  0  0  0  0  0  0  0  0
    8.9920   14.8840   22.8530 N   0  0  0  0  0  0  0  0  0  0  0  0
    8.2390   13.8090   23.1670 C   0  0  0  0  0  0  0  0  0  0  0  0
    7.4910   13.2980   22.3530 O   0  0  0  0  0  0  0  0  0  0  0  0
    8.3560   13.3020   24.5990 C   0  0  0  0  0  0  0  0  0  0  0  0
    7.4510   12.1300   24.9080 C   0  0  0  0  0  0  0  0  0  0  0  0
    7.8000   10.8350   24.5220 C   0  0  0  0  0  0  0  0  0  0  0  0
    8.9280   10.7430   23.7470 O   0  0  0  0  0  0  0  0  0  0  0  0
    9.3280    9.4440   23.2890 C   0  0  0  0  0  0  0  0  0  0  0  0
    6.3400   12.2940   25.7270 C   0  0  0  0  0  0  0  0  0  0  0  0
    5.6170   11.2020   26.1760 C   0  0  0  0  0  0  0  0  0  0  0  0
    5.9690    9.9420   25.7880 C   0  0  0  0  0  0  0  0  0  0  0  0
    7.0510    9.7470   24.9410 C   0  0  0  0  0  0  0  0  0  0  0  0
 17 16  1  0
 16 15  1  0
 15 21  2  0
 21 20  1  0
 20 19  2  0
 19 18  1  0
 18 14  2  0
 15 14  1  0
 14 13  1  0
 13 11  1  0
 12 11  2  0
 11 10  1  0
 10  8  1  0
  8  7  1  0
  7  6  1  0
  6  5  1  0
  5  4  1  0
  4  2  1  6
  3  2  1  0
  2  1  2  0
  9  4  1  0
 10  9  1  0
M  END
$$$$
