A71EV2A-x4319_A_201_1_A71EV2A-x0911+A+147+1__LIG
     RDKit          3D

 22 23  0  0  0  0  0  0  0  0999 V2000
    9.1060    8.5700   23.4950 F   0  0  0  0  0  0  0  0  0  0  0  0
    9.7320    9.6860   23.8570 C   0  0  0  0  0  0  0  0  0  0  0  0
   10.2080    9.8060   22.6100 F   0  0  0  0  0  0  0  0  0  0  0  0
    8.8780   10.7190   23.8350 O   0  0  0  0  0  0  0  0  0  0  0  0
    7.8570   10.9260   24.7310 C   0  0  0  0  0  0  0  0  0  0  0  0
    7.0060    9.9290   25.1800 C   0  0  0  0  0  0  0  0  0  0  0  0
    5.9530   10.2590   26.0190 C   0  0  0  0  0  0  0  0  0  0  0  0
    5.7620   11.5610   26.4130 C   0  0  0  0  0  0  0  0  0  0  0  0
    6.6200   12.5520   25.9740 C   0  0  0  0  0  0  0  0  0  0  0  0
    7.6800   12.2550   25.1230 C   0  0  0  0  0  0  0  0  0  0  0  0
    8.6580   13.3250   24.6960 C   0  0  0  0  0  0  0  0  0  0  0  0
    8.4720   13.7780   23.2560 C   0  0  0  0  0  0  0  0  0  0  0  0
    7.6100   13.2970   22.5360 O   0  0  0  0  0  0  0  0  0  0  0  0
    9.2910   14.7630   22.8320 N   0  0  0  0  0  0  0  0  0  0  0  0
   10.2960   15.4420   23.6660 C   0  0  0  0  0  0  0  0  0  0  0  0
   11.6750   15.3680   23.0380 C   0  0  0  0  0  0  0  0  0  0  0  0
   11.6440   15.8440   21.5800 C   0  0  0  0  0  0  0  0  0  0  0  0
    9.2060   15.2780   21.4610 C   0  0  0  0  0  0  0  0  0  0  0  0
   10.5600   15.1150   20.7690 C   0  0  1  0  0  0  0  0  0  0  0  0
   10.5280   15.5820   19.3240 C   0  0  0  0  0  0  0  0  0  0  0  0
   10.8010   14.8070   18.4030 O   0  0  0  0  0  0  0  0  0  0  0  0
   10.1890   16.8470   19.1230 N   0  0  0  0  0  0  0  0  0  0  0  0
 22 20  1  0
 21 20  2  0
 19 20  1  6
 19 17  1  0
 17 16  1  0
 16 15  1  0
 15 14  1  0
 14 12  1  0
 13 12  2  0
 12 11  1  0
 11 10  1  0
 10  9  2  0
  9  8  1  0
  8  7  2  0
  7  6  1  0
  6  5  2  0
 10  5  1  0
  5  4  1  0
  4  2  1  0
  3  2  1  0
  2  1  1  0
 18 14  1  0
 19 18  1  0
M  END
$$$$
