XX01ZVNS2B-x5122_B_203_6_XX01ZVNS2B-x4590+B+203+1__LIG
     RDKit          3D

 27 31  0  0  0  0  0  0  0  0999 V2000
   -9.7390    3.6850  -18.0330 Cl  0  0  0  0  0  0  0  0  0  0  0  0
   -8.4030    4.2220  -17.0630 C   0  0  0  0  0  0  0  0  0  0  0  0
   -8.5000    4.1990  -15.6770 C   0  0  0  0  0  0  0  0  0  0  0  0
   -7.2250    4.6340  -17.6870 C   0  0  0  0  0  0  0  0  0  0  0  0
   -6.1130    4.9950  -16.9040 C   0  0  0  0  0  0  0  0  0  0  0  0
   -5.0370    5.2900  -17.8110 C   0  0  0  0  0  0  0  0  0  0  0  0
   -3.6140    5.5590  -17.4060 C   0  0  2  0  0  0  0  0  0  0  0  0
   -3.4090    7.0780  -17.1440 C   0  0  0  0  0  0  0  0  0  0  0  0
   -2.8330    7.5820  -18.3770 N   0  0  0  0  0  0  0  0  0  0  0  0
   -1.8230    6.5690  -18.7110 C   0  0  0  0  0  0  0  0  0  0  0  0
   -2.5300    5.2380  -18.4570 C   0  0  0  0  0  0  0  0  0  0  0  0
   -5.5480    5.1480  -19.0700 C   0  0  0  0  0  0  0  0  0  0  0  0
   -6.8630    4.7490  -19.0080 N   0  0  0  0  0  0  0  0  0  0  0  0
   -6.2160    4.9740  -15.5100 C   0  0  0  0  0  0  0  0  0  0  0  0
   -7.4060    4.5850  -14.8960 C   0  0  0  0  0  0  0  0  0  0  0  0
   -7.3830    4.6790  -13.3970 C   0  0  0  0  0  0  0  0  0  0  0  0
   -6.5520    5.3800  -12.8170 O   0  0  0  0  0  0  0  0  0  0  0  0
   -8.3020    3.9440  -12.7330 N   0  0  0  0  0  0  0  0  0  0  0  0
   -8.4410    3.9090  -11.3130 C   0  0  0  0  0  0  0  0  0  0  0  0
   -8.6390    2.6990  -10.6540 C   0  0  0  0  0  0  0  0  0  0  0  0
   -8.7170    2.6610   -9.2600 C   0  0  0  0  0  0  0  0  0  0  0  0
   -8.9790    1.4970   -8.3500 C   0  0  0  0  0  0  0  0  0  0  0  0
   -8.6840    2.0530   -7.0180 N   0  0  0  0  0  0  0  0  0  0  0  0
   -8.6660    3.5390   -7.0550 C   0  0  0  0  0  0  0  0  0  0  0  0
   -8.5890    3.8330   -8.5250 C   0  0  0  0  0  0  0  0  0  0  0  0
   -8.4070    5.0450   -9.1810 C   0  0  0  0  0  0  0  0  0  0  0  0
   -8.3230    5.0830  -10.5690 C   0  0  0  0  0  0  0  0  0  0  0  0
 17 16  2  0
 18 16  1  0
 19 18  1  0
 19 27  2  0
 27 26  1  0
 26 25  2  0
 25 21  1  0
 21 20  2  0
 20 19  1  0
 22 21  1  0
 23 22  1  0
 24 23  1  0
 25 24  1  0
 16 15  1  0
 15  3  1  0
  3  2  2  0
  2  1  1  0
  4  2  1  0
  4 13  1  0
 13 12  1  0
 12  6  2  0
  7  6  1  6
  7 11  1  0
 11 10  1  0
 10  9  1  0
  9  8  1  0
  8  7  1  0
  6  5  1  0
  5  4  2  0
 14  5  1  0
 15 14  2  0
M  END
$$$$
