XX01ZVNS2B-x1413_B_301_1_XX01ZVNS2B-x4590+B+203+1__LIG
     RDKit          3D

 22 25  0  0  0  0  0  0  0  0999 V2000
   -8.2730    6.6500  -12.9070 O   0  0  0  0  0  0  0  0  0  0  0  0
   -7.8130    5.5390  -13.1710 C   0  0  0  0  0  0  0  0  0  0  0  0
   -7.9340    4.4820  -12.3330 N   0  0  0  0  0  0  0  0  0  0  0  0
   -8.2280    4.5980  -10.9690 C   0  0  0  0  0  0  0  0  0  0  0  0
   -8.3630    5.7870  -10.2560 C   0  0  0  0  0  0  0  0  0  0  0  0
   -8.6570    5.5150   -8.9910 N   0  0  0  0  0  0  0  0  0  0  0  0
   -8.7030    4.1420   -8.8710 N   0  0  0  0  0  0  0  0  0  0  0  0
   -8.4450    3.5760  -10.0690 C   0  0  0  0  0  0  0  0  0  0  0  0
   -8.4360    2.0870  -10.2180 C   0  0  0  0  0  0  0  0  0  0  0  0
   -8.3360    1.4670   -8.8980 N   0  0  0  0  0  0  0  0  0  0  0  0
   -9.3090    2.0080   -7.9270 C   0  0  0  0  0  0  0  0  0  0  0  0
   -9.0050    3.4560   -7.6210 C   0  0  0  0  0  0  0  0  0  0  0  0
   -7.0800    5.3380  -14.4610 C   0  0  0  0  0  0  0  0  0  0  0  0
   -5.7680    5.7290  -14.5230 C   0  0  0  0  0  0  0  0  0  0  0  0
   -5.0210    5.5900  -15.7070 C   0  0  0  0  0  0  0  0  0  0  0  0
   -5.5960    5.0830  -16.8350 C   0  0  0  0  0  0  0  0  0  0  0  0
   -6.9480    4.6760  -16.8260 C   0  0  0  0  0  0  0  0  0  0  0  0
   -7.4630    4.1540  -17.9870 N   0  0  0  0  0  0  0  0  0  0  0  0
   -8.7270    3.7810  -17.9680 C   0  0  0  0  0  0  0  0  0  0  0  0
   -9.5590    3.8620  -16.8350 C   0  0  0  0  0  0  0  0  0  0  0  0
   -9.0570    4.3670  -15.6670 C   0  0  0  0  0  0  0  0  0  0  0  0
   -7.7080    4.7920  -15.6240 C   0  0  0  0  0  0  0  0  0  0  0  0
  1  2  2  0
  2  3  1  0
  3  4  1  0
  4  5  1  0
  5  6  2  0
  6  7  1  0
  7  8  1  0
  8  9  1  0
  9 10  1  0
 10 11  1  0
 11 12  1  0
  2 13  1  0
 13 14  2  0
 14 15  1  0
 15 16  2  0
 16 17  1  0
 17 18  2  0
 18 19  1  0
 19 20  2  0
 20 21  1  0
 21 22  2  0
  4  8  2  0
 13 22  1  0
  7 12  1  0
 17 22  1  0
M  END
$$$$
