A71EV2A-x3884_C_201_1_A71EV2A-x0911+A+147+1__LIG
     RDKit          3D

 28 29  0  0  0  0  0  0  0  0999 V2000
   10.4160   16.7410   19.2460 O   0  0  0  0  0  0  0  0  0  0  0  0
   10.8050   15.5680   19.4380 C   0  0  0  0  0  0  0  0  0  0  0  0
   11.0530   14.7110   18.4550 N   0  0  0  0  0  0  0  0  0  0  0  0
   10.9470   15.0090   20.8430 C   0  0  1  0  0  0  0  0  0  0  0  0
   12.0690   15.7100   21.6270 C   0  0  0  0  0  0  0  0  0  0  0  0
   12.1650   15.1310   23.0410 C   0  0  0  0  0  0  0  0  0  0  0  0
   10.8130   15.2000   23.7440 C   0  0  0  0  0  0  0  0  0  0  0  0
    9.6200   15.1190   21.5840 C   0  0  0  0  0  0  0  0  0  0  0  0
    9.7400   14.5820   22.9450 N   0  0  0  0  0  0  0  0  0  0  0  0
    8.8160   13.7020   23.3960 C   0  0  0  0  0  0  0  0  0  0  0  0
    7.8710   13.3470   22.7030 O   0  0  0  0  0  0  0  0  0  0  0  0
    8.8940   13.2550   24.8900 C   0  0  1  0  0  0  0  0  0  0  0  0
    8.6770   14.3680   25.8020 N   0  0  0  0  0  0  0  0  0  0  0  0
    9.5980   14.6670   26.7420 C   0  0  0  0  0  0  0  0  0  0  0  0
    9.1870   15.7230   27.4460 O   0  0  0  0  0  0  0  0  0  0  0  0
   10.0520   16.3310   28.4820 C   0  0  0  0  0  0  0  0  0  0  0  0
   10.2450   15.3980   29.6540 C   0  0  0  0  0  0  0  0  0  0  0  0
    9.2300   17.5380   28.8590 C   0  0  0  0  0  0  0  0  0  0  0  0
   11.3760   16.7440   27.8730 C   0  0  0  0  0  0  0  0  0  0  0  0
   10.6320   14.0570   26.9230 O   0  0  0  0  0  0  0  0  0  0  0  0
    7.9180   12.1140   25.1610 C   0  0  0  0  0  0  0  0  0  0  0  0
    8.1700   10.8460   24.6400 C   0  0  0  0  0  0  0  0  0  0  0  0
    9.3100   10.7430   23.8790 O   0  0  0  0  0  0  0  0  0  0  0  0
    9.7140    9.4330   23.4620 C   0  0  0  0  0  0  0  0  0  0  0  0
    6.8110   12.2780   25.9890 C   0  0  0  0  0  0  0  0  0  0  0  0
    5.9660   11.2210   26.2680 C   0  0  0  0  0  0  0  0  0  0  0  0
    6.2140    9.9870   25.7410 C   0  0  0  0  0  0  0  0  0  0  0  0
    7.3220    9.7830   24.9220 C   0  0  0  0  0  0  0  0  0  0  0  0
 24 23  1  0
 23 22  1  0
 22 28  2  0
 28 27  1  0
 27 26  2  0
 26 25  1  0
 25 21  2  0
 22 21  1  0
 21 12  1  0
 12 13  1  1
 14 13  1  0
 20 14  2  0
 15 14  1  0
 16 15  1  0
 19 16  1  0
 18 16  1  0
 17 16  1  0
 12 10  1  0
 11 10  2  0
 10  9  1  0
  9  7  1  0
  7  6  1  0
  6  5  1  0
  5  4  1  0
  4  2  1  6
  3  2  1  0
  2  1  2  0
  8  4  1  0
  9  8  1  0
M  END
$$$$
