A71EV2A-x4877_A_201_1_A71EV2A-x0911+A+147+1__LIG
     RDKit          3D

 20 22  0  0  0  0  0  0  0  0999 V2000
    7.6690   13.3590   22.4370 O   0  0  0  0  0  0  0  0  0  0  0  0
    8.5170   13.8100   23.1810 C   0  0  0  0  0  0  0  0  0  0  0  0
    9.3080   14.8330   22.8130 N   0  0  0  0  0  0  0  0  0  0  0  0
   10.3440   15.4570   23.6610 C   0  0  0  0  0  0  0  0  0  0  0  0
   11.7220   15.2720   23.0720 C   0  0  0  0  0  0  0  0  0  0  0  0
   11.7450   15.7720   21.6270 C   0  0  0  0  0  0  0  0  0  0  0  0
    9.2820   15.3270   21.4330 C   0  0  0  0  0  0  0  0  0  0  0  0
   10.6500   15.0690   20.8070 C   0  0  1  0  0  0  0  0  0  0  0  0
   10.6320   15.5690   19.3750 C   0  0  0  0  0  0  0  0  0  0  0  0
   10.3270   16.7360   19.1100 O   0  0  0  0  0  0  0  0  0  0  0  0
   10.9470   14.6860   18.4340 N   0  0  0  0  0  0  0  0  0  0  0  0
    8.6890   13.2930   24.6020 C   0  0  2  0  0  0  0  0  0  0  0  0
    8.3030   11.8550   24.5960 C   0  0  0  0  0  0  0  0  0  0  0  0
    9.1140   10.8980   23.8840 C   0  0  0  0  0  0  0  0  0  0  0  0
    8.6750    9.6800   24.0400 C   0  0  0  0  0  0  0  0  0  0  0  0
    7.2800    9.5980   25.0090 S   0  0  0  0  0  0  0  0  0  0  0  0
    7.2730   11.2710   25.2440 C   0  0  0  0  0  0  0  0  0  0  0  0
    6.2330   11.9860   26.0650 C   0  0  0  0  0  0  0  0  0  0  0  0
    6.1010   13.4200   25.5870 C   0  0  0  0  0  0  0  0  0  0  0  0
    7.6670   14.3110   25.7230 S   0  0  0  0  0  0  0  0  0  0  0  0
 11  9  1  0
 10  9  2  0
  8  9  1  6
  8  6  1  0
  6  5  1  0
  5  4  1  0
  4  3  1  0
  3  2  1  0
  2  1  2  0
 12  2  1  6
 12 20  1  0
 20 19  1  0
 19 18  1  0
 18 17  1  0
 17 16  1  0
 16 15  1  0
 15 14  2  0
 14 13  1  0
 17 13  2  0
 13 12  1  0
  7  3  1  0
  8  7  1  0
M  END
$$$$
