A71EV2A-x4967_C_202_1_A71EV2A-x0911+A+147+1__LIG
     RDKit          3D

 24 26  0  0  0  0  0  0  0  0999 V2000
   -1.5140   15.6030   19.4200 O   0  0  0  0  0  0  0  0  0  0  0  0
   -1.1040   15.9270   20.5400 C   0  0  0  0  0  0  0  0  0  0  0  0
   -1.6080   16.9400   21.2240 N   0  0  0  0  0  0  0  0  0  0  0  0
    0.0640   15.2030   21.1900 C   0  0  2  0  0  0  0  0  0  0  0  0
    1.3600   15.7800   20.6030 C   0  0  0  0  0  0  0  0  0  0  0  0
    0.0070   13.6790   20.9640 C   0  0  0  0  0  0  0  0  0  0  0  0
    1.0950   13.1530   20.0180 C   0  0  1  0  0  0  0  0  0  0  0  0
    2.4910   13.5760   20.5080 C   0  0  1  0  0  0  0  0  0  0  0  0
    3.5300   13.2860   19.4240 C   0  0  0  0  0  0  0  0  0  0  0  0
    3.3200   11.9550   18.6720 C   0  0  0  0  0  0  0  0  0  0  0  0
    2.4020   10.9980   19.4310 C   0  0  0  0  0  0  0  0  0  0  0  0
    1.0320   11.6340   19.7830 C   0  0  0  0  0  0  0  0  0  0  0  0
    2.5320   14.9780   20.9860 N   0  0  0  0  0  0  0  0  0  0  0  0
    3.5400   15.5520   21.7010 C   0  0  0  0  0  0  0  0  0  0  0  0
    3.5210   16.7490   21.9430 O   0  0  0  0  0  0  0  0  0  0  0  0
    4.6580   14.6880   22.2590 C   0  0  0  0  0  0  0  0  0  0  0  0
    4.9080   14.9890   23.7180 C   0  0  0  0  0  0  0  0  0  0  0  0
    5.7720   16.0150   24.1050 C   0  0  0  0  0  0  0  0  0  0  0  0
    6.2460   16.7960   23.0820 O   0  0  0  0  0  0  0  0  0  0  0  0
    7.2750   17.7380   23.3820 C   0  0  0  0  0  0  0  0  0  0  0  0
    4.2940   14.2840   24.7390 C   0  0  0  0  0  0  0  0  0  0  0  0
    4.4790   14.5100   26.0430 N   0  0  0  0  0  0  0  0  0  0  0  0
    5.3410   15.4740   26.3740 C   0  0  0  0  0  0  0  0  0  0  0  0
    6.0180   16.2480   25.4520 C   0  0  0  0  0  0  0  0  0  0  0  0
 20 19  1  0
 19 18  1  0
 18 24  2  0
 24 23  1  0
 23 22  2  0
 22 21  1  0
 21 17  2  0
 18 17  1  0
 17 16  1  0
 16 14  1  0
 15 14  2  0
 14 13  1  0
 13  5  1  0
  5  4  1  0
  4  2  1  6
  3  2  1  0
  2  1  2  0
  6  4  1  0
  7  6  1  1
  7 12  1  0
 12 11  1  0
 11 10  1  0
 10  9  1  0
  8  9  1  6
  8  7  1  0
 13  8  1  0
M  END
$$$$
