XX01ZVNS2B-x1271_B_301_1_XX01ZVNS2B-x4590+B+203+1__LIG
     RDKit          3D

 20 22  0  0  0  0  0  0  0  0999 V2000
   -8.1530    6.7530  -11.2330 C   0  0  0  0  0  0  0  0  0  0  0  0
   -8.1930    5.3490  -10.6830 C   0  0  0  0  0  0  0  0  0  0  0  0
   -8.2780    5.1420   -9.3150 C   0  0  0  0  0  0  0  0  0  0  0  0
   -8.3200    3.9220   -8.7560 N   0  0  0  0  0  0  0  0  0  0  0  0
   -8.2770    2.8710   -9.5790 C   0  0  0  0  0  0  0  0  0  0  0  0
   -8.1850    2.9730  -10.9430 C   0  0  0  0  0  0  0  0  0  0  0  0
   -8.1460    4.2340  -11.5190 C   0  0  0  0  0  0  0  0  0  0  0  0
   -8.0510    4.4050  -12.9240 N   0  0  0  0  0  0  0  0  0  0  0  0
   -6.9910    4.9320  -13.6080 C   0  0  0  0  0  0  0  0  0  0  0  0
   -6.0160    5.4130  -13.0410 O   0  0  0  0  0  0  0  0  0  0  0  0
   -7.0820    4.8860  -15.0750 C   0  0  0  0  0  0  0  0  0  0  0  0
   -8.1600    4.3970  -15.8610 C   0  0  0  0  0  0  0  0  0  0  0  0
   -7.8390    4.5330  -17.1930 C   0  0  0  0  0  0  0  0  0  0  0  0
   -8.5610    4.1900  -18.4230 C   0  0  0  0  0  0  0  0  0  0  0  0
   -9.0600    2.7900  -18.6070 C   0  0  0  0  0  0  0  0  0  0  0  0
  -10.0260    3.8820  -18.3830 C   0  0  0  0  0  0  0  0  0  0  0  0
   -6.5800    5.0970  -17.2790 N   0  0  0  0  0  0  0  0  0  0  0  0
   -5.8590    5.4010  -18.5140 C   0  0  0  0  0  0  0  0  0  0  0  0
   -6.0980    5.3130  -15.9640 C   0  0  0  0  0  0  0  0  0  0  0  0
   -4.7520    5.9110  -15.7360 C   0  0  0  0  0  0  0  0  0  0  0  0
  1  2  1  0
  2  3  2  0
  3  4  1  0
  4  5  2  0
  5  6  1  0
  6  7  2  0
  7  8  1  0
  8  9  1  0
  9 10  2  0
  9 11  1  0
 11 12  1  0
 12 13  2  0
 13 14  1  0
 14 15  1  0
 15 16  1  0
 13 17  1  0
 17 18  1  0
 17 19  1  0
 19 20  1  0
  2  7  1  0
 11 19  2  0
 14 16  1  0
M  END
$$$$
