A71EV2A-x5525_C_201_4_A71EV2A-x0911+A+147+1__LIG
     RDKit          3D

 25 27  0  0  0  0  0  0  0  0999 V2000
   10.4780   16.7670   19.2180 O   0  0  0  0  0  0  0  0  0  0  0  0
   10.8120   15.5950   19.4470 C   0  0  0  0  0  0  0  0  0  0  0  0
   11.1450   14.7300   18.4930 N   0  0  0  0  0  0  0  0  0  0  0  0
   10.8260   15.0460   20.8650 C   0  0  1  0  0  0  0  0  0  0  0  0
   11.9750   15.6600   21.6940 C   0  0  0  0  0  0  0  0  0  0  0  0
   11.9430   15.1820   23.1570 C   0  0  0  0  0  0  0  0  0  0  0  0
   10.5610   15.3880   23.7660 C   0  0  0  0  0  0  0  0  0  0  0  0
    9.4870   15.3250   21.5570 C   0  0  0  0  0  0  0  0  0  0  0  0
    9.5180   14.7860   22.9190 N   0  0  0  0  0  0  0  0  0  0  0  0
    8.6480   13.8200   23.3120 C   0  0  0  0  0  0  0  0  0  0  0  0
    7.8290   13.3360   22.5470 O   0  0  0  0  0  0  0  0  0  0  0  0
    8.7070   13.3940   24.7700 C   0  0  0  0  0  0  0  0  0  0  0  0
    7.8080   12.2100   25.0700 C   0  0  0  0  0  0  0  0  0  0  0  0
    8.1150   10.8920   24.6910 C   0  0  0  0  0  0  0  0  0  0  0  0
    9.5950   10.6350   23.7600 S   0  0  0  0  0  0  0  0  0  0  0  0
    9.5710    8.8700   23.4140 C   0  0  0  0  0  0  0  0  0  0  0  0
    6.6170   12.4420   25.7590 C   0  0  0  0  0  0  0  0  0  0  0  0
    5.7230   11.4130   26.0430 C   0  0  0  0  0  0  0  0  0  0  0  0
    6.0770   10.1050   25.7160 C   0  0  0  0  0  0  0  0  0  0  0  0
    7.2620    9.8430   25.0440 C   0  0  0  0  0  0  0  0  0  0  0  0
    4.3520   11.7340   26.4960 C   0  0  0  0  0  0  0  0  0  0  0  0
    3.7990   12.9240   26.2190 N   0  0  0  0  0  0  0  0  0  0  0  0
    2.5540   12.8730   26.7510 N   0  0  0  0  0  0  0  0  0  0  0  0
    2.3120   11.6970   27.3450 C   0  0  0  0  0  0  0  0  0  0  0  0
    3.4380   10.9280   27.2060 C   0  0  0  0  0  0  0  0  0  0  0  0
 16 15  1  0
 15 14  1  0
 14 20  2  0
 20 19  1  0
 19 18  2  0
 21 18  1  0
 21 25  1  0
 25 24  2  0
 24 23  1  0
 23 22  1  0
 22 21  2  0
 18 17  1  0
 17 13  2  0
 14 13  1  0
 13 12  1  0
 12 10  1  0
 11 10  2  0
 10  9  1  0
  9  7  1  0
  7  6  1  0
  6  5  1  0
  5  4  1  0
  4  2  1  6
  3  2  1  0
  2  1  2  0
  8  4  1  0
  9  8  1  0
M  END
$$$$
