A71EV2A-x4706_A_201_1_A71EV2A-x0911+A+147+1__LIG
     RDKit          3D

 17 18  0  0  0  0  0  0  0  0999 V2000
    7.0590   13.0750   22.4120 O   0  0  0  0  0  0  0  0  0  0  0  0
    7.8550   13.5010   23.2230 C   0  0  0  0  0  0  0  0  0  0  0  0
    8.8030   14.3860   22.8560 N   0  0  0  0  0  0  0  0  0  0  0  0
    9.8530   14.8970   23.7550 C   0  0  0  0  0  0  0  0  0  0  0  0
   11.2350   14.6980   23.1490 C   0  0  0  0  0  0  0  0  0  0  0  0
   11.2980   15.3300   21.7600 C   0  0  0  0  0  0  0  0  0  0  0  0
    8.8330   14.9730   21.5090 C   0  0  0  0  0  0  0  0  0  0  0  0
   10.1990   14.7380   20.8560 C   0  0  1  0  0  0  0  0  0  0  0  0
   10.2940   15.2570   19.4310 C   0  0  0  0  0  0  0  0  0  0  0  0
    9.8880   16.3880   19.1370 O   0  0  0  0  0  0  0  0  0  0  0  0
   10.8480   14.4320   18.5480 N   0  0  0  0  0  0  0  0  0  0  0  0
    7.7080   13.1430   24.7160 C   0  0  0  0  0  0  0  0  0  0  0  0
    6.8590   14.1980   25.4430 C   0  0  0  0  0  0  0  0  0  0  0  0
    6.7600   13.9320   26.9400 C   0  0  0  0  0  0  0  0  0  0  0  0
    5.8850   12.3930   27.3130 S   0  0  0  0  0  0  0  0  0  0  0  0
    6.9350   11.2960   26.3260 C   0  0  0  0  0  0  0  0  0  0  0  0
    7.0590   11.7570   24.8780 C   0  0  0  0  0  0  0  0  0  0  0  0
 11  9  1  0
 10  9  2  0
  8  9  1  6
  8  6  1  0
  6  5  1  0
  5  4  1  0
  4  3  1  0
  3  2  1  0
  2  1  2  0
 12  2  1  0
 12 17  1  0
 17 16  1  0
 16 15  1  0
 15 14  1  0
 14 13  1  0
 13 12  1  0
  7  3  1  0
  8  7  1  0
M  END
$$$$
