A71EV2A-x4380_A_201_1_A71EV2A-x0911+A+147+1__LIG
     RDKit          3D

 20 21  0  0  0  0  0  0  0  0999 V2000
    9.5120   10.6130   23.4430 Cl  0  0  0  0  0  0  0  0  0  0  0  0
    8.2170   10.8840   24.5620 C   0  0  0  0  0  0  0  0  0  0  0  0
    7.4360    9.8060   24.9350 C   0  0  0  0  0  0  0  0  0  0  0  0
    6.3740    9.9920   25.8000 C   0  0  0  0  0  0  0  0  0  0  0  0
    6.1300   11.2600   26.2500 C   0  0  0  0  0  0  0  0  0  0  0  0
    4.9960   11.4900   26.9660 F   0  0  0  0  0  0  0  0  0  0  0  0
    6.9110   12.3380   25.9210 C   0  0  0  0  0  0  0  0  0  0  0  0
    7.9830   12.1670   25.0470 C   0  0  0  0  0  0  0  0  0  0  0  0
    8.8730   13.3420   24.7110 C   0  0  0  0  0  0  0  0  0  0  0  0
    8.6850   13.8450   23.2900 C   0  0  0  0  0  0  0  0  0  0  0  0
    7.8030   13.4110   22.5700 O   0  0  0  0  0  0  0  0  0  0  0  0
    9.5320   14.8140   22.8810 N   0  0  0  0  0  0  0  0  0  0  0  0
   10.5720   15.4190   23.7310 C   0  0  0  0  0  0  0  0  0  0  0  0
   11.9370   15.3320   23.0670 C   0  0  0  0  0  0  0  0  0  0  0  0
   11.8810   15.8880   21.6410 C   0  0  0  0  0  0  0  0  0  0  0  0
    9.4600   15.3760   21.5270 C   0  0  0  0  0  0  0  0  0  0  0  0
   10.8010   15.1810   20.8100 C   0  0  1  0  0  0  0  0  0  0  0  0
   10.8150   15.6510   19.3640 C   0  0  0  0  0  0  0  0  0  0  0  0
   10.6900   16.8410   19.0780 O   0  0  0  0  0  0  0  0  0  0  0  0
   10.9840   14.7130   18.4510 N   0  0  0  0  0  0  0  0  0  0  0  0
 20 18  1  0
 19 18  2  0
 17 18  1  6
 17 15  1  0
 15 14  1  0
 14 13  1  0
 13 12  1  0
 12 10  1  0
 11 10  2  0
 10  9  1  0
  9  8  1  0
  8  7  2  0
  7  5  1  0
  6  5  1  0
  5  4  2  0
  4  3  1  0
  3  2  2  0
  8  2  1  0
  2  1  1  0
 16 12  1  0
 17 16  1  0
M  END
$$$$
