A71EV2A-x4746_A_201_1_A71EV2A-x0911+A+147+1__LIG
     RDKit          3D

 20 21  0  0  0  0  0  0  0  0999 V2000
   10.3270   16.3580   18.7500 F   0  0  0  0  0  0  0  0  0  0  0  0
   10.4850   15.0120   18.9120 C   0  0  0  0  0  0  0  0  0  0  0  0
   11.6530   14.7050   18.3080 F   0  0  0  0  0  0  0  0  0  0  0  0
   10.5720   14.6870   20.3170 C   0  0  1  0  0  0  0  0  0  0  0  0
   11.7460   15.4200   20.9730 C   0  0  0  0  0  0  0  0  0  0  0  0
   11.8160   15.1670   22.4680 C   0  0  0  0  0  0  0  0  0  0  0  0
   10.4640   15.4130   23.1230 C   0  0  0  0  0  0  0  0  0  0  0  0
    9.2840   15.1060   20.9910 C   0  0  0  0  0  0  0  0  0  0  0  0
    9.3860   14.7240   22.3970 N   0  0  0  0  0  0  0  0  0  0  0  0
    8.5650   13.7960   22.9120 C   0  0  0  0  0  0  0  0  0  0  0  0
    7.5970   13.3810   22.3120 O   0  0  0  0  0  0  0  0  0  0  0  0
    8.8910   13.3680   24.3280 C   0  0  0  0  0  0  0  0  0  0  0  0
    7.8990   12.3680   24.8600 C   0  0  0  0  0  0  0  0  0  0  0  0
    8.1250   10.9920   24.7600 C   0  0  0  0  0  0  0  0  0  0  0  0
    9.1270   10.4760   23.3910 S   0  0  0  0  0  0  0  0  0  0  0  0
    9.8210    8.9220   23.8620 C   0  0  0  0  0  0  0  0  0  0  0  0
    6.8630   12.8130   25.6760 C   0  0  0  0  0  0  0  0  0  0  0  0
    6.1540   11.9360   26.4720 C   0  0  0  0  0  0  0  0  0  0  0  0
    6.4590   10.6070   26.4550 C   0  0  0  0  0  0  0  0  0  0  0  0
    7.4290   10.1240   25.5870 C   0  0  0  0  0  0  0  0  0  0  0  0
 16 15  1  0
 15 14  1  0
 14 20  2  0
 20 19  1  0
 19 18  2  0
 18 17  1  0
 17 13  2  0
 14 13  1  0
 13 12  1  0
 12 10  1  0
 11 10  2  0
 10  9  1  0
  9  7  1  0
  7  6  1  0
  6  5  1  0
  5  4  1  0
  4  2  1  6
  3  2  1  0
  2  1  1  0
  8  4  1  0
  9  8  1  0
M  END
$$$$
