A71EV2A-x4351_A_201_1_A71EV2A-x0911+A+147+1__LIG
     RDKit          3D

 20 22  0  0  0  0  0  0  0  0999 V2000
    9.9080   15.4430   20.0670 O   0  0  0  0  0  0  0  0  0  0  0  0
   10.9450   14.8620   19.7130 C   0  0  0  0  0  0  0  0  0  0  0  0
   11.1420   14.4050   18.4870 N   0  0  0  0  0  0  0  0  0  0  0  0
   12.0990   14.6820   20.6700 C   0  0  0  0  0  0  0  0  0  0  0  0
   11.7430   14.0500   22.0310 C   0  0  2  0  0  0  0  0  0  0  0  0
   10.3690   13.3850   22.1160 C   0  0  0  0  0  0  0  0  0  0  0  0
    9.9160   13.0930   23.4800 N   0  0  0  0  0  0  0  0  0  0  0  0
   10.9780   13.1340   24.4940 C   0  0  0  0  0  0  0  0  0  0  0  0
   11.6630   14.4740   24.5440 C   0  0  0  0  0  0  0  0  0  0  0  0
   11.8700   15.0710   23.1500 C   0  0  0  0  0  0  0  0  0  0  0  0
    9.1760   11.9620   23.6900 C   0  0  0  0  0  0  0  0  0  0  0  0
    8.1020   11.9840   24.6450 C   0  0  0  0  0  0  0  0  0  0  0  0
    7.7250   10.7250   25.1650 C   0  0  0  0  0  0  0  0  0  0  0  0
    8.2960    9.5490   24.7420 N   0  0  0  0  0  0  0  0  0  0  0  0
    9.2430    9.6680   23.8080 C   0  0  0  0  0  0  0  0  0  0  0  0
    9.7200   10.7710   23.2250 N   0  0  0  0  0  0  0  0  0  0  0  0
    7.4210   13.1360   25.1130 C   0  0  0  0  0  0  0  0  0  0  0  0
    6.4510   13.0380   26.0650 C   0  0  0  0  0  0  0  0  0  0  0  0
    6.1150   11.8060   26.6000 C   0  0  0  0  0  0  0  0  0  0  0  0
    6.7310   10.6670   26.1690 C   0  0  0  0  0  0  0  0  0  0  0  0
  3  2  1  0
  2  1  2  0
  4  2  1  0
  5  4  1  6
  5 10  1  0
 10  9  1  0
  9  8  1  0
  8  7  1  0
 11  7  1  0
 11 16  2  0
 16 15  1  0
 15 14  2  0
 14 13  1  0
 13 20  2  0
 20 19  1  0
 19 18  2  0
 18 17  1  0
 17 12  2  0
 12 11  1  0
 13 12  1  0
  7  6  1  0
  6  5  1  0
M  END
$$$$
