XX01ZVNS2B-x4031_B_203_1_XX01ZVNS2B-x4590+B+203+1__LIG
     RDKit          3D

 25 29  0  0  0  0  0  0  0  0999 V2000
  -10.3340    3.8530  -17.5810 F   0  0  0  0  0  0  0  0  0  0  0  0
   -9.1290    4.1480  -17.0210 C   0  0  0  0  0  0  0  0  0  0  0  0
   -9.0330    4.1970  -15.6420 C   0  0  0  0  0  0  0  0  0  0  0  0
   -8.0870    4.4180  -17.8680 C   0  0  0  0  0  0  0  0  0  0  0  0
   -6.8810    4.7860  -17.2880 C   0  0  0  0  0  0  0  0  0  0  0  0
   -6.7130    4.8760  -15.8930 C   0  0  0  0  0  0  0  0  0  0  0  0
   -5.3670    5.2810  -15.7270 C   0  0  0  0  0  0  0  0  0  0  0  0
   -4.7600    5.4280  -16.8900 N   0  0  0  0  0  0  0  0  0  0  0  0
   -5.6890    5.1250  -17.8420 N   0  0  0  0  0  0  0  0  0  0  0  0
   -7.8130    4.5720  -15.0680 C   0  0  0  0  0  0  0  0  0  0  0  0
   -7.6770    4.7240  -13.5770 C   0  0  0  0  0  0  0  0  0  0  0  0
   -6.8080    5.4530  -13.1110 O   0  0  0  0  0  0  0  0  0  0  0  0
   -8.5260    4.0100  -12.7950 N   0  0  0  0  0  0  0  0  0  0  0  0
   -8.5540    3.9950  -11.3680 C   0  0  0  0  0  0  0  0  0  0  0  0
   -8.8050    2.8050  -10.6850 C   0  0  0  0  0  0  0  0  0  0  0  0
   -8.8580    2.7990   -9.2940 C   0  0  0  0  0  0  0  0  0  0  0  0
   -9.1130    1.6630   -8.3490 C   0  0  0  0  0  0  0  0  0  0  0  0
   -8.8470    2.2610   -7.0180 N   0  0  0  0  0  0  0  0  0  0  0  0
   -8.9310    3.7270   -7.1180 C   0  0  1  0  0  0  0  0  0  0  0  0
   -7.9190    4.3700   -6.1590 C   0  0  0  0  0  0  0  0  0  0  0  0
   -8.1540    4.3180   -4.6800 C   0  0  0  0  0  0  0  0  0  0  0  0
   -8.2990    5.6120   -5.4110 C   0  0  0  0  0  0  0  0  0  0  0  0
   -8.6700    3.9700   -8.5870 C   0  0  0  0  0  0  0  0  0  0  0  0
   -8.3890    5.1550   -9.2550 C   0  0  0  0  0  0  0  0  0  0  0  0
   -8.3380    5.1680  -10.6410 C   0  0  0  0  0  0  0  0  0  0  0  0
 12 11  2  0
 13 11  1  0
 14 13  1  0
 14 25  2  0
 25 24  1  0
 24 23  2  0
 23 16  1  0
 16 15  2  0
 15 14  1  0
 17 16  1  0
 18 17  1  0
 19 18  1  0
 23 19  1  0
 19 20  1  1
 20 22  1  0
 22 21  1  0
 21 20  1  0
 11 10  1  0
 10  3  1  0
  3  2  2  0
  2  1  1  0
  4  2  1  0
  5  4  2  0
  5  9  1  0
  9  8  1  0
  8  7  2  0
  7  6  1  0
 10  6  2  0
  6  5  1  0
M  END
$$$$
