XX01ZVNS2B-x5011_B_203_5_XX01ZVNS2B-x4590+B+203+1__LIG
     RDKit          3D

 24 27  0  0  0  0  0  0  0  0999 V2000
   -6.3870    5.3510  -12.8740 O   0  0  0  0  0  0  0  0  0  0  0  0
   -7.3040    4.7430  -13.4230 C   0  0  0  0  0  0  0  0  0  0  0  0
   -7.4090    4.7110  -14.9190 C   0  0  0  0  0  0  0  0  0  0  0  0
   -8.5310    4.2780  -15.6290 C   0  0  0  0  0  0  0  0  0  0  0  0
   -8.4910    4.2850  -17.0050 C   0  0  0  0  0  0  0  0  0  0  0  0
   -9.5830    3.9160  -17.7170 F   0  0  0  0  0  0  0  0  0  0  0  0
   -6.2780    5.1550  -15.6090 C   0  0  0  0  0  0  0  0  0  0  0  0
   -6.2500    5.1500  -17.0060 C   0  0  0  0  0  0  0  0  0  0  0  0
   -7.3790    4.6940  -17.7100 C   0  0  0  0  0  0  0  0  0  0  0  0
   -7.0920    4.7560  -19.0490 N   0  0  0  0  0  0  0  0  0  0  0  0
   -5.8230    5.2430  -19.2070 C   0  0  0  0  0  0  0  0  0  0  0  0
   -5.2630    5.5130  -17.9900 C   0  0  0  0  0  0  0  0  0  0  0  0
   -3.9200    6.1460  -17.7250 C   0  0  0  0  0  0  0  0  0  0  0  0
   -2.9490    5.1010  -17.3800 N   0  0  0  0  0  0  0  0  0  0  0  0
   -8.2720    4.0830  -12.7340 N   0  0  0  0  0  0  0  0  0  0  0  0
   -8.4190    4.0410  -11.3160 C   0  0  0  0  0  0  0  0  0  0  0  0
   -8.6990    2.8430  -10.6620 C   0  0  0  0  0  0  0  0  0  0  0  0
   -8.8490    2.8170   -9.2740 C   0  0  0  0  0  0  0  0  0  0  0  0
   -9.1830    1.6740   -8.3600 C   0  0  0  0  0  0  0  0  0  0  0  0
   -8.8380    2.2410   -7.0640 N   0  0  0  0  0  0  0  0  0  0  0  0
   -8.8510    3.7020   -7.0750 C   0  0  0  0  0  0  0  0  0  0  0  0
   -8.7010    3.9880   -8.5410 C   0  0  0  0  0  0  0  0  0  0  0  0
   -8.4290    5.1840   -9.1940 C   0  0  0  0  0  0  0  0  0  0  0  0
   -8.2900    5.2130  -10.5730 C   0  0  0  0  0  0  0  0  0  0  0  0
 14 13  1  0
 13 12  1  0
 12 11  2  0
 11 10  1  0
 10  9  1  0
  9  5  1  0
  6  5  1  0
  5  4  2  0
  4  3  1  0
  3  2  1  0
  2  1  2  0
 15  2  1  0
 16 15  1  0
 16 24  2  0
 24 23  1  0
 23 22  2  0
 22 18  1  0
 18 17  2  0
 17 16  1  0
 19 18  1  0
 20 19  1  0
 21 20  1  0
 22 21  1  0
  7  3  2  0
  8  7  1  0
 12  8  1  0
  9  8  2  0
M  END
$$$$
