XX01ZVNS2B-x3264_B_204_1_XX01ZVNS2B-x4590+B+203+1__LIG
     RDKit          3D

 23 25  0  0  0  0  0  0  0  0999 V2000
   -6.8830    5.8620  -13.9120 O   0  0  0  0  0  0  0  0  0  0  0  0
   -7.6960    5.0380  -14.3230 C   0  0  0  0  0  0  0  0  0  0  0  0
   -7.8650    4.7900  -15.7870 C   0  0  0  0  0  0  0  0  0  0  0  0
   -9.1140    4.4640  -16.3040 C   0  0  0  0  0  0  0  0  0  0  0  0
   -9.2580    4.3180  -17.6690 C   0  0  0  0  0  0  0  0  0  0  0  0
  -10.8490    4.0330  -18.3270 Cl  0  0  0  0  0  0  0  0  0  0  0  0
   -8.1880    4.4520  -18.5290 C   0  0  0  0  0  0  0  0  0  0  0  0
   -6.7790    4.9360  -16.6480 C   0  0  0  0  0  0  0  0  0  0  0  0
   -6.9300    4.7610  -18.0180 C   0  0  0  0  0  0  0  0  0  0  0  0
   -5.7370    4.8910  -18.9330 C   0  0  0  0  0  0  0  0  0  0  0  0
   -5.8440    6.1160  -19.7320 N   0  0  0  0  0  0  0  0  0  0  0  0
   -8.4980    4.3170  -13.5040 N   0  0  0  0  0  0  0  0  0  0  0  0
   -8.5260    4.3810  -12.0850 C   0  0  0  0  0  0  0  0  0  0  0  0
   -8.4770    5.6160  -11.4440 C   0  0  0  0  0  0  0  0  0  0  0  0
   -8.4740    5.6900  -10.0550 C   0  0  0  0  0  0  0  0  0  0  0  0
   -8.4840    4.5120   -9.3100 C   0  0  0  0  0  0  0  0  0  0  0  0
   -8.5390    3.2840   -9.9470 C   0  0  0  0  0  0  0  0  0  0  0  0
   -8.5640    3.2140  -11.3320 C   0  0  0  0  0  0  0  0  0  0  0  0
   -8.6070    7.0040   -9.3880 C   0  0  0  0  0  0  0  0  0  0  0  0
   -8.5350    7.1440   -8.0680 N   0  0  0  0  0  0  0  0  0  0  0  0
   -8.8930    8.4160   -7.9350 N   0  0  0  0  0  0  0  0  0  0  0  0
   -9.1460    9.0270   -9.0690 N   0  0  0  0  0  0  0  0  0  0  0  0
   -8.9570    8.1410  -10.0260 N   0  0  0  0  0  0  0  0  0  0  0  0
 11 10  1  0
 10  9  1  0
  9  7  2  0
  7  5  1  0
  6  5  1  0
  5  4  2  0
  4  3  1  0
  3  2  1  0
  2  1  2  0
 12  2  1  0
 13 12  1  0
 13 18  2  0
 18 17  1  0
 17 16  2  0
 16 15  1  0
 19 15  1  0
 19 23  1  0
 23 22  2  0
 22 21  1  0
 21 20  1  0
 20 19  2  0
 15 14  2  0
 14 13  1  0
  8  3  2  0
  9  8  1  0
M  END
$$$$
