A71EV2A-x4824_A_201_1_A71EV2A-x0911+A+147+1__LIG
     RDKit          3D

 20 21  0  0  0  0  0  0  0  0999 V2000
   10.3140   16.6740   19.2430 O   0  0  0  0  0  0  0  0  0  0  0  0
   10.6500   15.5100   19.4750 C   0  0  0  0  0  0  0  0  0  0  0  0
   11.0470   14.6660   18.5290 N   0  0  0  0  0  0  0  0  0  0  0  0
   10.6110   14.9490   20.8860 C   0  0  1  0  0  0  0  0  0  0  0  0
   11.7010   15.5520   21.7830 C   0  0  0  0  0  0  0  0  0  0  0  0
   11.6400   14.9160   23.1750 C   0  0  0  0  0  0  0  0  0  0  0  0
   10.2610   15.0940   23.7880 C   0  0  0  0  0  0  0  0  0  0  0  0
    9.2400   15.2100   21.5170 C   0  0  0  0  0  0  0  0  0  0  0  0
    9.2000   14.6410   22.8670 N   0  0  0  0  0  0  0  0  0  0  0  0
    8.2650   13.7120   23.1650 C   0  0  0  0  0  0  0  0  0  0  0  0
    7.3710   13.3760   22.4310 O   0  0  0  0  0  0  0  0  0  0  0  0
    8.4420   13.2350   24.4200 O   0  0  0  0  0  0  0  0  0  0  0  0
    7.5570   12.2460   24.8480 C   0  0  0  0  0  0  0  0  0  0  0  0
    7.8440   10.9210   24.5170 C   0  0  0  0  0  0  0  0  0  0  0  0
    9.2720   10.6390   23.5110 S   0  0  0  0  0  0  0  0  0  0  0  0
    9.3060    8.8350   23.3470 C   0  0  0  0  0  0  0  0  0  0  0  0
    6.4930   12.5740   25.6780 C   0  0  0  0  0  0  0  0  0  0  0  0
    5.7130   11.5530   26.2000 C   0  0  0  0  0  0  0  0  0  0  0  0
    5.9710   10.2310   25.8620 C   0  0  0  0  0  0  0  0  0  0  0  0
    7.0390    9.9100   25.0270 C   0  0  0  0  0  0  0  0  0  0  0  0
 16 15  1  0
 15 14  1  0
 14 20  2  0
 20 19  1  0
 19 18  2  0
 18 17  1  0
 17 13  2  0
 14 13  1  0
 13 12  1  0
 12 10  1  0
 11 10  2  0
 10  9  1  0
  9  7  1  0
  7  6  1  0
  6  5  1  0
  5  4  1  0
  4  2  1  6
  3  2  1  0
  2  1  2  0
  8  4  1  0
  9  8  1  0
M  END
$$$$
