A71EV2A-x3175_A_201_1_A71EV2A-x0911+A+147+1__LIG
     RDKit          3D

 20 22  0  0  0  0  0  0  0  0999 V2000
    6.2300   12.0170   26.9990 O   0  0  0  0  0  0  0  0  0  0  0  0
    6.4460   10.9170   26.4770 C   0  0  0  0  0  0  0  0  0  0  0  0
    7.5230   10.7380   25.4740 C   0  0  0  0  0  0  0  0  0  0  0  0
    8.4330   11.7460   24.9720 C   0  0  0  0  0  0  0  0  0  0  0  0
    8.6550   13.0900   25.2630 C   0  0  0  0  0  0  0  0  0  0  0  0
    9.6610   13.7820   24.5980 C   0  0  0  0  0  0  0  0  0  0  0  0
   10.4440   13.1490   23.6400 C   0  0  0  0  0  0  0  0  0  0  0  0
   10.2420   11.8110   23.3330 C   0  0  0  0  0  0  0  0  0  0  0  0
    9.2420   11.1200   24.0090 C   0  0  0  0  0  0  0  0  0  0  0  0
    8.8720    9.7910   23.9400 N   0  0  0  0  0  0  0  0  0  0  0  0
    9.5060    8.7730   23.1120 C   0  0  0  0  0  0  0  0  0  0  0  0
    7.8420    9.5770   24.8170 C   0  0  0  0  0  0  0  0  0  0  0  0
    5.7520    9.8200   26.7930 N   0  0  0  0  0  0  0  0  0  0  0  0
    4.7150    9.8600   27.8020 C   0  0  0  0  0  0  0  0  0  0  0  0
    5.1360    9.2950   29.1100 C   0  0  0  0  0  0  0  0  0  0  0  0
    4.5680    8.4040   29.9400 C   0  0  0  0  0  0  0  0  0  0  0  0
    6.2690    9.7910   29.6530 O   0  0  0  0  0  0  0  0  0  0  0  0
    6.4400    9.2100   30.9400 N   0  0  0  0  0  0  0  0  0  0  0  0
    5.3890    8.3640   31.0770 C   0  0  0  0  0  0  0  0  0  0  0  0
    5.2080    7.5350   32.3110 C   0  0  0  0  0  0  0  0  0  0  0  0
 20 19  1  0
 19 16  1  0
 16 15  2  0
 15 14  1  0
 14 13  1  0
 13  2  1  0
  2  1  2  0
  3  2  1  0
  3 12  2  0
 12 10  1  0
 11 10  1  0
 10  9  1  0
  9  8  1  0
  8  7  2  0
  7  6  1  0
  6  5  2  0
  5  4  1  0
  4  3  1  0
  9  4  2  0
 17 15  1  0
 18 17  1  0
 19 18  2  0
M  END
$$$$
