A71EV2A-x4563_A_201_1_A71EV2A-x0911+A+147+1__LIG
     RDKit          3D

 16 17  0  0  0  0  0  0  0  0999 V2000
   11.3490   14.1430   25.0410 O   0  0  0  0  0  0  0  0  0  0  0  0
   11.1950   14.4670   23.8710 C   0  0  0  0  0  0  0  0  0  0  0  0
   12.1810   15.4150   23.2220 C   0  0  0  0  0  0  0  0  0  0  0  0
   11.8420   15.9110   21.8210 C   0  0  0  0  0  0  0  0  0  0  0  0
   10.1760   13.9610   23.1130 N   0  0  0  0  0  0  0  0  0  0  0  0
    9.8990   14.3620   21.7130 C   0  0  0  0  0  0  0  0  0  0  0  0
   11.1720   14.8150   20.9870 C   0  0  1  0  0  0  0  0  0  0  0  0
   10.8370   15.3050   19.5880 C   0  0  0  0  0  0  0  0  0  0  0  0
   10.3220   16.4140   19.4020 O   0  0  0  0  0  0  0  0  0  0  0  0
   11.0980   14.4560   18.6050 N   0  0  0  0  0  0  0  0  0  0  0  0
    9.3110   12.9580   23.6580 C   0  0  0  0  0  0  0  0  0  0  0  0
    8.2610   13.3200   24.4960 C   0  0  0  0  0  0  0  0  0  0  0  0
    7.5190   12.3370   25.1330 C   0  0  0  0  0  0  0  0  0  0  0  0
    7.8140   11.0020   24.9390 C   0  0  0  0  0  0  0  0  0  0  0  0
    8.8400   10.6400   24.0790 C   0  0  0  0  0  0  0  0  0  0  0  0
    9.5890   11.6120   23.4340 C   0  0  0  0  0  0  0  0  0  0  0  0
 10  8  1  0
  9  8  2  0
  7  8  1  6
  7  4  1  0
  4  3  1  0
  3  2  1  0
  2  1  2  0
  5  2  1  0
 11  5  1  0
 11 16  2  0
 16 15  1  0
 15 14  2  0
 14 13  1  0
 13 12  2  0
 12 11  1  0
  6  5  1  0
  7  6  1  0
M  END
$$$$
