XX01ZVNS2B-x5027_B_203_6_XX01ZVNS2B-x4590+B+203+1__LIG
     RDKit          3D

 23 26  0  0  0  0  0  0  0  0999 V2000
  -10.4540    3.8260  -18.3380 Cl  0  0  0  0  0  0  0  0  0  0  0  0
   -8.9180    4.1910  -17.6020 C   0  0  0  0  0  0  0  0  0  0  0  0
   -8.8290    4.2590  -16.2200 C   0  0  0  0  0  0  0  0  0  0  0  0
   -7.8510    4.4950  -18.4240 C   0  0  0  0  0  0  0  0  0  0  0  0
   -6.6770    4.9100  -17.8150 C   0  0  0  0  0  0  0  0  0  0  0  0
   -5.4670    5.2420  -18.3520 N   0  0  0  0  0  0  0  0  0  0  0  0
   -5.0610    5.2210  -19.7590 C   0  0  0  0  0  0  0  0  0  0  0  0
   -3.5910    4.8490  -20.0490 C   0  0  0  0  0  0  0  0  0  0  0  0
   -3.5540    5.9740  -21.0080 N   0  0  0  0  0  0  0  0  0  0  0  0
   -4.7720    6.5840  -20.4180 C   0  0  0  0  0  0  0  0  0  0  0  0
   -4.5680    5.5840  -17.3790 N   0  0  0  0  0  0  0  0  0  0  0  0
   -5.2040    5.4610  -16.2310 C   0  0  0  0  0  0  0  0  0  0  0  0
   -6.5430    5.0350  -16.4250 C   0  0  0  0  0  0  0  0  0  0  0  0
   -7.6470    4.7080  -15.6190 C   0  0  0  0  0  0  0  0  0  0  0  0
   -7.5540    4.9370  -14.1410 C   0  0  0  0  0  0  0  0  0  0  0  0
   -6.7730    5.7740  -13.6960 O   0  0  0  0  0  0  0  0  0  0  0  0
   -8.3320    4.1580  -13.3490 N   0  0  0  0  0  0  0  0  0  0  0  0
   -8.3930    4.1780  -11.9450 C   0  0  0  0  0  0  0  0  0  0  0  0
   -8.3620    2.9690  -11.3680 N   0  0  0  0  0  0  0  0  0  0  0  0
   -8.3400    2.9210  -10.0230 C   0  0  0  0  0  0  0  0  0  0  0  0
   -8.3510    4.0380   -9.2170 C   0  0  0  0  0  0  0  0  0  0  0  0
   -8.3910    5.2740   -9.8220 C   0  0  0  0  0  0  0  0  0  0  0  0
   -8.4160    5.3700  -11.2050 C   0  0  0  0  0  0  0  0  0  0  0  0
 16 15  2  0
 17 15  1  0
 18 17  1  0
 18 23  2  0
 23 22  1  0
 22 21  2  0
 21 20  1  0
 20 19  2  0
 19 18  1  0
 15 14  1  0
 14  3  1  0
  3  2  2  0
  2  1  1  0
  4  2  1  0
  5  4  2  0
  5 13  1  0
 14 13  2  0
 13 12  1  0
 12 11  2  0
 11  6  1  0
  6  5  1  0
  7  6  1  0
  7 10  1  0
 10  9  1  0
  9  8  1  0
  8  7  1  0
M  END
$$$$
