A71EV2A-x4963_A_201_1_A71EV2A-x0911+A+147+1__LIG
     RDKit          3D

 23 25  0  0  0  0  0  0  0  0999 V2000
    9.3330   13.6440   25.0100 O   0  0  0  0  0  0  0  0  0  0  0  0
    8.9530   13.7860   23.8570 C   0  0  0  0  0  0  0  0  0  0  0  0
    7.6220   13.1980   23.4420 C   0  0  0  0  0  0  0  0  0  0  0  0
    7.2100   12.1840   24.4850 C   0  0  0  0  0  0  0  0  0  0  0  0
    7.6590   10.8650   24.4020 C   0  0  0  0  0  0  0  0  0  0  0  0
    8.7340   10.6740   23.5710 O   0  0  0  0  0  0  0  0  0  0  0  0
    9.2490    9.3490   23.4180 C   0  0  0  0  0  0  0  0  0  0  0  0
    7.0900    9.8680   25.1890 C   0  0  0  0  0  0  0  0  0  0  0  0
    6.1210   10.2050   26.1240 C   0  0  0  0  0  0  0  0  0  0  0  0
    5.7450   11.5230   26.2920 C   0  0  0  0  0  0  0  0  0  0  0  0
    6.2810   12.5070   25.4760 C   0  0  0  0  0  0  0  0  0  0  0  0
    9.6730   14.4400   22.9110 N   0  0  0  0  0  0  0  0  0  0  0  0
    9.2820   14.6900   21.5340 C   0  0  0  0  0  0  0  0  0  0  0  0
   10.5530   15.3220   20.9460 C   0  0  2  0  0  0  0  0  0  0  0  0
   10.7600   16.3130   22.1450 C   0  0  0  0  0  0  0  0  0  0  0  0
   10.6010   15.7100   19.4720 C   0  0  0  0  0  0  0  0  0  0  0  0
   10.3330   16.8570   19.1240 O   0  0  0  0  0  0  0  0  0  0  0  0
   10.9160   14.7580   18.6040 N   0  0  0  0  0  0  0  0  0  0  0  0
   11.5920   14.3840   21.6630 C   0  0  0  0  0  0  0  0  0  0  0  0
   11.0310   15.0210   22.9570 C   0  0  2  0  0  0  0  0  0  0  0  0
   11.7770   15.0690   24.2890 C   0  0  0  0  0  0  0  0  0  0  0  0
   11.0250   15.8910   25.1690 O   0  0  0  0  0  0  0  0  0  0  0  0
   11.4220   15.7290   26.5310 C   0  0  0  0  0  0  0  0  0  0  0  0
 23 22  1  0
 22 21  1  0
 20 21  1  1
 20 15  1  0
 15 14  1  0
 14 16  1  6
 18 16  1  0
 17 16  2  0
 14 13  1  0
 13 12  1  0
 20 12  1  0
 12  2  1  0
  2  1  2  0
  3  2  1  0
  4  3  1  0
  4 11  2  0
 11 10  1  0
 10  9  2  0
  9  8  1  0
  8  5  2  0
  5  4  1  0
  6  5  1  0
  7  6  1  0
 19 14  1  0
 20 19  1  0
M  END
$$$$
