A71EV2A-x4674_C_201_1_A71EV2A-x0911+A+147+1_ALIG
     RDKit          3D

 22 24  0  0  0  0  0  0  0  0999 V2000
    8.0050   13.4610   22.7060 O   0  0  0  0  0  0  0  0  0  0  0  0
    8.7900   14.0140   23.4700 C   0  0  0  0  0  0  0  0  0  0  0  0
    9.4850   15.1340   23.1050 N   0  0  0  0  0  0  0  0  0  0  0  0
   10.6790   15.6350   23.8030 C   0  0  0  0  0  0  0  0  0  0  0  0
   11.9500   15.2070   23.0790 C   0  0  0  0  0  0  0  0  0  0  0  0
   11.8960   15.6110   21.6030 C   0  0  0  0  0  0  0  0  0  0  0  0
    9.4020   15.5970   21.7170 C   0  0  0  0  0  0  0  0  0  0  0  0
   10.6130   15.1040   20.9200 C   0  0  1  0  0  0  0  0  0  0  0  0
   10.4830   15.6780   19.5190 C   0  0  0  0  0  0  0  0  0  0  0  0
   10.1020   16.8390   19.3390 O   0  0  0  0  0  0  0  0  0  0  0  0
   10.7910   14.8530   18.5290 N   0  0  0  0  0  0  0  0  0  0  0  0
    9.0140   13.5510   24.7310 N   0  0  0  0  0  0  0  0  0  0  0  0
    8.4070   12.3870   25.2650 C   0  0  0  0  0  0  0  0  0  0  0  0
    8.7720   11.1360   24.7350 C   0  0  0  0  0  0  0  0  0  0  0  0
   10.0330   11.1050   23.5030 S   0  0  0  0  0  0  0  0  0  0  0  0
   10.0000    9.4050   22.9000 C   0  0  0  0  0  0  0  0  0  0  0  0
    9.8190    8.4490   24.0340 C   0  0  0  0  0  0  0  0  0  0  0  0
    8.4350    8.6140   24.6060 C   0  0  0  0  0  0  0  0  0  0  0  0
    8.1720    9.9640   25.2240 C   0  0  0  0  0  0  0  0  0  0  0  0
    7.2500   10.0780   26.2640 C   0  0  0  0  0  0  0  0  0  0  0  0
    6.9020   11.3110   26.7860 C   0  0  0  0  0  0  0  0  0  0  0  0
    7.4660   12.4710   26.2880 C   0  0  0  0  0  0  0  0  0  0  0  0
 11  9  1  0
 10  9  2  0
  8  9  1  6
  8  6  1  0
  6  5  1  0
  5  4  1  0
  4  3  1  0
  3  2  1  0
  2  1  2  0
 12  2  1  0
 13 12  1  0
 13 22  1  0
 22 21  2  0
 21 20  1  0
 20 19  2  0
 19 14  1  0
 14 13  2  0
 15 14  1  0
 16 15  1  0
 17 16  1  0
 18 17  1  0
 19 18  1  0
  7  3  1  0
  8  7  1  0
M  END
$$$$
A71EV2A-x4674_C_201_1_A71EV2A-x0911+A+147+1_BLIG
     RDKit          3D

 22 24  0  0  0  0  0  0  0  0999 V2000
    7.9890   13.2980   22.6380 O   0  0  0  0  0  0  0  0  0  0  0  0
    8.9850   13.6880   23.2380 C   0  0  0  0  0  0  0  0  0  0  0  0
    9.6380   14.8280   22.8710 N   0  0  0  0  0  0  0  0  0  0  0  0
   10.6740   15.5330   23.6420 C   0  0  0  0  0  0  0  0  0  0  0  0
   12.0500   15.3220   23.0250 C   0  0  0  0  0  0  0  0  0  0  0  0
   12.0470   15.7020   21.5420 C   0  0  0  0  0  0  0  0  0  0  0  0
    9.5720   15.2260   21.4630 C   0  0  0  0  0  0  0  0  0  0  0  0
   10.9200   14.9810   20.7790 C   0  0  1  0  0  0  0  0  0  0  0  0
   10.8070   15.5050   19.3580 C   0  0  0  0  0  0  0  0  0  0  0  0
   10.4390   16.6670   19.1340 O   0  0  0  0  0  0  0  0  0  0  0  0
   11.0810   14.6320   18.4000 N   0  0  0  0  0  0  0  0  0  0  0  0
    9.4630   13.0510   24.3400 N   0  0  0  0  0  0  0  0  0  0  0  0
    8.8860   11.8590   24.8380 C   0  0  0  0  0  0  0  0  0  0  0  0
    7.8130   11.9490   25.7420 C   0  0  0  0  0  0  0  0  0  0  0  0
    7.3960   13.5660   26.3150 S   0  0  0  0  0  0  0  0  0  0  0  0
    5.9730   13.3170   27.4040 C   0  0  0  0  0  0  0  0  0  0  0  0
    5.1760   12.0880   27.0320 C   0  0  0  0  0  0  0  0  0  0  0  0
    5.9870   10.8130   27.1220 C   0  0  0  0  0  0  0  0  0  0  0  0
    7.1420   10.7830   26.1510 C   0  0  0  0  0  0  0  0  0  0  0  0
    7.5700    9.5610   25.6390 C   0  0  0  0  0  0  0  0  0  0  0  0
    8.6320    9.4790   24.7550 C   0  0  0  0  0  0  0  0  0  0  0  0
    9.2970   10.6210   24.3540 C   0  0  0  0  0  0  0  0  0  0  0  0
 11  9  1  0
 10  9  2  0
  8  9  1  6
  8  6  1  0
  6  5  1  0
  5  4  1  0
  4  3  1  0
  3  2  1  0
  2  1  2  0
 12  2  1  0
 13 12  1  0
 13 22  1  0
 22 21  2  0
 21 20  1  0
 20 19  2  0
 19 14  1  0
 14 13  2  0
 15 14  1  0
 16 15  1  0
 17 16  1  0
 18 17  1  0
 19 18  1  0
  7  3  1  0
  8  7  1  0
M  END
$$$$
