A71EV2A-x4695_A_201_1_A71EV2A-x0911+A+147+1__LIG
     RDKit          3D

 19 20  0  0  0  0  0  0  0  0999 V2000
   11.4270   14.6920   24.8880 O   0  0  0  0  0  0  0  0  0  0  0  0
   11.3190   14.8460   23.6820 C   0  0  0  0  0  0  0  0  0  0  0  0
   12.5080   15.3000   22.8750 C   0  0  0  0  0  0  0  0  0  0  0  0
   12.1750   15.7870   21.4630 C   0  0  0  0  0  0  0  0  0  0  0  0
   11.1620   14.8670   20.7600 C   0  0  2  0  0  0  0  0  0  0  0  0
   10.8500   15.3630   19.3570 C   0  0  0  0  0  0  0  0  0  0  0  0
   10.3740   16.4880   19.1680 O   0  0  0  0  0  0  0  0  0  0  0  0
   11.0940   14.5180   18.3700 N   0  0  0  0  0  0  0  0  0  0  0  0
    9.8800   14.8410   21.6020 C   0  0  0  0  0  0  0  0  0  0  0  0
   10.1480   14.6360   23.0310 N   0  0  0  0  0  0  0  0  0  0  0  0
    8.9480   14.2680   23.7890 C   0  0  0  0  0  0  0  0  0  0  0  0
    8.7700   12.7790   23.9930 C   0  0  0  0  0  0  0  0  0  0  0  0
    7.8020   12.2500   24.8610 C   0  0  0  0  0  0  0  0  0  0  0  0
    6.7590   13.3850   25.7300 S   0  0  0  0  0  0  0  0  0  0  0  0
    5.6760   12.3280   26.7060 C   0  0  0  0  0  0  0  0  0  0  0  0
    9.6180   11.8910   23.3290 C   0  0  0  0  0  0  0  0  0  0  0  0
    9.5130   10.5240   23.5200 C   0  0  0  0  0  0  0  0  0  0  0  0
    8.5550   10.0160   24.3660 C   0  0  0  0  0  0  0  0  0  0  0  0
    7.6980   10.8720   25.0410 C   0  0  0  0  0  0  0  0  0  0  0  0
 15 14  1  0
 14 13  1  0
 13 19  2  0
 19 18  1  0
 18 17  2  0
 17 16  1  0
 16 12  2  0
 13 12  1  0
 12 11  1  0
 11 10  1  0
 10  9  1  0
  9  5  1  0
  5  6  1  6
  8  6  1  0
  7  6  2  0
  5  4  1  0
  4  3  1  0
  3  2  1  0
 10  2  1  0
  2  1  2  0
M  END
$$$$
