XX01ZVNS2B-x1406_B_301_1_XX01ZVNS2B-x4590+B+203+1__LIG
     RDKit          3D

 28 29  0  0  0  0  0  0  0  0999 V2000
   -8.7240    1.4890   -6.9380 C   0  0  0  0  0  0  0  0  0  0  0  0
   -8.2110    2.5770   -7.7650 N   0  0  0  0  0  0  0  0  0  0  0  0
   -6.8790    2.2600   -8.2850 C   0  0  0  0  0  0  0  0  0  0  0  0
   -9.1250    2.8420   -8.8590 C   0  0  0  0  0  0  0  0  0  0  0  0
   -8.7070    4.0380   -9.6670 C   0  0  0  0  0  0  0  0  0  0  0  0
   -8.8760    4.0460  -11.0440 C   0  0  0  0  0  0  0  0  0  0  0  0
   -8.5240    5.1440  -11.8100 C   0  0  0  0  0  0  0  0  0  0  0  0
   -8.7270    5.1190  -13.3030 C   0  0  0  0  0  0  0  0  0  0  0  0
   -7.6270    4.5590  -14.0480 N   0  0  0  0  0  0  0  0  0  0  0  0
   -7.6110    4.5490  -15.4360 C   0  0  0  0  0  0  0  0  0  0  0  0
   -8.7570    4.1700  -16.1290 C   0  0  0  0  0  0  0  0  0  0  0  0
   -8.7420    4.1480  -17.5150 C   0  0  0  0  0  0  0  0  0  0  0  0
  -10.2020    3.6520  -18.3530 Cl  0  0  0  0  0  0  0  0  0  0  0  0
   -7.6170    4.5170  -18.2190 C   0  0  0  0  0  0  0  0  0  0  0  0
   -6.4650    4.9060  -17.5360 C   0  0  0  0  0  0  0  0  0  0  0  0
   -5.1960    5.2970  -18.2420 C   0  0  0  0  0  0  0  0  0  0  0  0
   -4.1930    5.6260  -17.5990 O   0  0  0  0  0  0  0  0  0  0  0  0
   -5.1970    5.2310  -19.5690 N   0  0  0  0  0  0  0  0  0  0  0  0
   -4.0530    5.5460  -20.4550 C   0  0  0  0  0  0  0  0  0  0  0  0
   -4.4850    5.2570  -21.8910 C   0  0  0  0  0  0  0  0  0  0  0  0
   -2.8560    4.6660  -20.0780 C   0  0  0  0  0  0  0  0  0  0  0  0
   -3.7000    7.0320  -20.3160 C   0  0  0  0  0  0  0  0  0  0  0  0
   -4.8000    7.9060  -20.5380 O   0  0  0  0  0  0  0  0  0  0  0  0
   -6.4590    4.9050  -16.1350 C   0  0  0  0  0  0  0  0  0  0  0  0
   -7.9840    6.2520  -11.1750 C   0  0  0  0  0  0  0  0  0  0  0  0
   -7.8060    6.2710   -9.8010 C   0  0  0  0  0  0  0  0  0  0  0  0
   -8.1660    5.1700   -9.0530 C   0  0  0  0  0  0  0  0  0  0  0  0
   -7.9890    5.1900   -7.7000 O   0  0  0  0  0  0  0  0  0  0  0  0
  1  2  1  0
  2  3  1  0
  2  4  1  0
  4  5  1  0
  5  6  2  0
  6  7  1  0
  7  8  1  0
  8  9  1  0
  9 10  1  0
 10 11  2  0
 11 12  1  0
 12 13  1  0
 12 14  2  0
 14 15  1  0
 15 16  1  0
 16 17  2  0
 16 18  1  0
 18 19  1  0
 19 20  1  0
 19 21  1  0
 19 22  1  0
 22 23  1  0
 15 24  2  0
  7 25  2  0
 25 26  1  0
 26 27  2  0
 27 28  1  0
  5 27  1  0
 10 24  1  0
M  END
$$$$
