A71EV2A-x5016_A_201_1_A71EV2A-x0911+A+147+1__LIG
     RDKit          3D

 20 21  0  0  0  0  0  0  0  0999 V2000
   10.3340   16.6290   19.3380 O   0  0  0  0  0  0  0  0  0  0  0  0
   10.7580   15.4770   19.4900 C   0  0  0  0  0  0  0  0  0  0  0  0
   11.1570   14.7290   18.4770 N   0  0  0  0  0  0  0  0  0  0  0  0
   10.8780   14.8620   20.8740 C   0  0  1  0  0  0  0  0  0  0  0  0
   11.9930   15.5550   21.6740 C   0  0  0  0  0  0  0  0  0  0  0  0
   12.1170   14.9760   23.0880 C   0  0  0  0  0  0  0  0  0  0  0  0
   10.7860   15.0530   23.8130 C   0  0  0  0  0  0  0  0  0  0  0  0
    9.5630   14.9270   21.6640 C   0  0  0  0  0  0  0  0  0  0  0  0
    9.7250   14.4050   23.0270 N   0  0  0  0  0  0  0  0  0  0  0  0
    8.8760   13.4680   23.5120 C   0  0  0  0  0  0  0  0  0  0  0  0
    8.0150   12.9530   22.8130 O   0  0  0  0  0  0  0  0  0  0  0  0
    9.0110   13.1050   24.9830 C   0  0  0  0  0  0  0  0  0  0  0  0
    8.1790   11.8980   25.3670 C   0  0  0  0  0  0  0  0  0  0  0  0
    8.4090   10.6130   24.8560 C   0  0  0  0  0  0  0  0  0  0  0  0
    9.5960   10.2370   24.1170 C   0  0  0  0  0  0  0  0  0  0  0  0
    9.5900   10.2000   22.8430 C   0  0  0  0  0  0  0  0  0  0  0  0
    7.1130   12.0550   26.2480 C   0  0  0  0  0  0  0  0  0  0  0  0
    6.3100   10.9750   26.5690 C   0  0  0  0  0  0  0  0  0  0  0  0
    6.5810    9.7600   25.9810 C   0  0  0  0  0  0  0  0  0  0  0  0
    7.6000    9.5590   25.1290 N   0  0  0  0  0  0  0  0  0  0  0  0
 16 15  2  0
 15 14  1  0
 14 20  2  0
 20 19  1  0
 19 18  2  0
 18 17  1  0
 17 13  2  0
 14 13  1  0
 13 12  1  0
 12 10  1  0
 11 10  2  0
 10  9  1  0
  9  7  1  0
  7  6  1  0
  6  5  1  0
  5  4  1  0
  4  2  1  6
  3  2  1  0
  2  1  2  0
  8  4  1  0
  9  8  1  0
M  END
$$$$
