A71EV2A-x3706_A_201_1_A71EV2A-x0911+A+147+1__LIG
     RDKit          3D

 20 21  0  0  0  0  0  0  0  0999 V2000
   10.3140   16.7560   19.0990 O   0  0  0  0  0  0  0  0  0  0  0  0
   10.6230   15.5980   19.4080 C   0  0  0  0  0  0  0  0  0  0  0  0
   10.9240   14.6740   18.5050 N   0  0  0  0  0  0  0  0  0  0  0  0
   10.6440   15.1480   20.8610 C   0  0  1  0  0  0  0  0  0  0  0  0
   11.9820   15.4720   21.5510 C   0  0  0  0  0  0  0  0  0  0  0  0
   11.9810   14.9710   22.9950 C   0  0  0  0  0  0  0  0  0  0  0  0
   10.7770   15.5150   23.7800 C   0  0  0  0  0  0  0  0  0  0  0  0
    9.5560   15.8850   21.6390 C   0  0  0  0  0  0  0  0  0  0  0  0
    9.5140   15.3960   23.0240 N   0  0  0  0  0  0  0  0  0  0  0  0
    8.3440   14.8330   23.4590 C   0  0  0  0  0  0  0  0  0  0  0  0
    7.4080   14.6270   22.6920 O   0  0  0  0  0  0  0  0  0  0  0  0
    8.3100   14.5330   24.7760 N   0  0  0  0  0  0  0  0  0  0  0  0
    7.1340   13.8590   25.3100 C   0  0  0  0  0  0  0  0  0  0  0  0
    7.1570   12.3590   25.1460 C   0  0  0  0  0  0  0  0  0  0  0  0
    6.2780   11.5950   25.8990 C   0  0  0  0  0  0  0  0  0  0  0  0
    6.2830   10.2210   25.7970 C   0  0  0  0  0  0  0  0  0  0  0  0
    7.1900    9.5900   24.9540 C   0  0  0  0  0  0  0  0  0  0  0  0
    8.0600   11.7080   24.3050 C   0  0  0  0  0  0  0  0  0  0  0  0
    8.1190   10.3210   24.2280 C   0  0  0  0  0  0  0  0  0  0  0  0
    9.2240    9.6290   23.4590 C   0  0  0  0  0  0  0  0  0  0  0  0
 20 19  1  0
 19 17  2  0
 17 16  1  0
 16 15  2  0
 15 14  1  0
 14 13  1  0
 13 12  1  0
 12 10  1  0
 11 10  2  0
 10  9  1  0
  9  7  1  0
  7  6  1  0
  6  5  1  0
  5  4  1  0
  4  2  1  6
  3  2  1  0
  2  1  2  0
  8  4  1  0
  9  8  1  0
 18 14  2  0
 19 18  1  0
M  END
$$$$
