A71EV2A-x4992_A_201_2_A71EV2A-x0911+A+147+1__LIG
     RDKit          3D

 19 21  0  0  0  0  0  0  0  0999 V2000
   10.3920   16.7080   19.2270 O   0  0  0  0  0  0  0  0  0  0  0  0
   10.7460   15.5440   19.4730 C   0  0  0  0  0  0  0  0  0  0  0  0
   11.1030   14.6750   18.5320 N   0  0  0  0  0  0  0  0  0  0  0  0
   10.7860   15.0210   20.8990 C   0  0  2  0  0  0  0  0  0  0  0  0
    9.3690   14.9670   21.4590 C   0  0  0  0  0  0  0  0  0  0  0  0
   11.6900   15.8260   21.8460 C   0  0  0  0  0  0  0  0  0  0  0  0
   11.7210   15.1630   23.2310 C   0  0  2  0  0  0  0  0  0  0  0  0
   10.5170   14.3770   23.6400 C   0  0  1  0  0  0  0  0  0  0  0  0
   10.8360   15.6670   24.3320 C   0  0  0  0  0  0  0  0  0  0  0  0
    9.3300   14.2780   22.7540 N   0  0  0  0  0  0  0  0  0  0  0  0
    8.1980   13.6090   23.0850 C   0  0  0  0  0  0  0  0  0  0  0  0
    7.2800   13.4600   22.2820 O   0  0  0  0  0  0  0  0  0  0  0  0
    8.0920   13.0380   24.4810 C   0  0  0  0  0  0  0  0  0  0  0  0
    8.3300   11.5530   24.4150 C   0  0  0  0  0  0  0  0  0  0  0  0
    9.2320   10.9240   23.5620 C   0  0  0  0  0  0  0  0  0  0  0  0
    7.7050   10.5020   25.0790 C   0  0  0  0  0  0  0  0  0  0  0  0
    8.1550    9.3200   24.6850 N   0  0  0  0  0  0  0  0  0  0  0  0
    9.0880    9.6070   23.7480 N   0  0  0  0  0  0  0  0  0  0  0  0
    9.7700    8.5280   23.0450 C   0  0  0  0  0  0  0  0  0  0  0  0
 19 18  1  0
 18 15  1  0
 15 14  2  0
 14 13  1  0
 13 11  1  0
 12 11  2  0
 11 10  1  0
 10  5  1  0
  5  4  1  0
  4  2  1  6
  3  2  1  0
  2  1  2  0
  6  4  1  0
  7  6  1  6
  7  9  1  0
  8  9  1  1
  8  7  1  0
 10  8  1  0
 16 14  1  0
 17 16  2  0
 18 17  1  0
M  END
$$$$
