XX01ZVNS2B-x4991_B_203_5_XX01ZVNS2B-x4590+B+203+1__LIG
     RDKit          3D

 24 27  0  0  0  0  0  0  0  0999 V2000
   -6.7950    5.6940  -12.8470 O   0  0  0  0  0  0  0  0  0  0  0  0
   -7.5090    4.8610  -13.3990 C   0  0  0  0  0  0  0  0  0  0  0  0
   -7.4680    4.6970  -14.8850 C   0  0  0  0  0  0  0  0  0  0  0  0
   -6.2290    5.0020  -15.4480 C   0  0  0  0  0  0  0  0  0  0  0  0
   -8.5540    4.3810  -15.7080 C   0  0  0  0  0  0  0  0  0  0  0  0
   -8.4340    4.3940  -17.0910 C   0  0  0  0  0  0  0  0  0  0  0  0
   -7.1980    4.7250  -17.6380 C   0  0  0  0  0  0  0  0  0  0  0  0
   -6.1000    5.0240  -16.8360 C   0  0  0  0  0  0  0  0  0  0  0  0
   -5.0130    5.3680  -17.6340 N   0  0  0  0  0  0  0  0  0  0  0  0
   -6.7650    4.9010  -18.9470 N   0  0  0  0  0  0  0  0  0  0  0  0
   -5.4620    5.2860  -18.8740 C   0  0  0  0  0  0  0  0  0  0  0  0
   -4.7410    5.5770  -19.9680 N   0  0  0  0  0  0  0  0  0  0  0  0
   -3.4120    5.0320  -20.2730 C   0  0  0  0  0  0  0  0  0  0  0  0
   -2.3350    5.5150  -19.3460 C   0  0  0  0  0  0  0  0  0  0  0  0
   -8.3410    4.0320  -12.7140 N   0  0  0  0  0  0  0  0  0  0  0  0
   -8.5120    4.0170  -11.3010 C   0  0  0  0  0  0  0  0  0  0  0  0
   -8.7140    2.8140  -10.6320 C   0  0  0  0  0  0  0  0  0  0  0  0
   -8.8460    2.7940   -9.2470 C   0  0  0  0  0  0  0  0  0  0  0  0
   -9.1090    1.6360   -8.3290 C   0  0  0  0  0  0  0  0  0  0  0  0
   -8.8720    2.2470   -7.0150 N   0  0  0  0  0  0  0  0  0  0  0  0
   -8.9360    3.7080   -7.0580 C   0  0  0  0  0  0  0  0  0  0  0  0
   -8.7520    3.9760   -8.5240 C   0  0  0  0  0  0  0  0  0  0  0  0
   -8.5340    5.1740   -9.1890 C   0  0  0  0  0  0  0  0  0  0  0  0
   -8.4260    5.2000  -10.5700 C   0  0  0  0  0  0  0  0  0  0  0  0
 14 13  1  0
 13 12  1  0
 12 11  1  0
 11  9  2  0
  9  8  1  0
  8  4  2  0
  4  3  1  0
  3  2  1  0
  2  1  2  0
 15  2  1  0
 16 15  1  0
 16 24  2  0
 24 23  1  0
 23 22  2  0
 22 18  1  0
 18 17  2  0
 17 16  1  0
 19 18  1  0
 20 19  1  0
 21 20  1  0
 22 21  1  0
  5  3  2  0
  6  5  1  0
  7  6  2  0
  8  7  1  0
 10  7  1  0
 11 10  1  0
M  END
$$$$
