XX01ZVNS2B-x4117_B_203_2_XX01ZVNS2B-x4590+B+203+1__LIG
     RDKit          3D

 28 32  0  0  0  0  0  0  0  0999 V2000
   -6.3960    5.3580  -12.8290 O   0  0  0  0  0  0  0  0  0  0  0  0
   -7.2690    4.6810  -13.3700 C   0  0  0  0  0  0  0  0  0  0  0  0
   -7.3360    4.5690  -14.8620 C   0  0  0  0  0  0  0  0  0  0  0  0
   -8.5190    4.1110  -15.4520 C   0  0  0  0  0  0  0  0  0  0  0  0
   -8.6570    4.0460  -16.8260 C   0  0  0  0  0  0  0  0  0  0  0  0
   -6.2640    4.9680  -15.6640 C   0  0  0  0  0  0  0  0  0  0  0  0
   -6.3820    4.9110  -17.0580 C   0  0  0  0  0  0  0  0  0  0  0  0
   -7.5850    4.4410  -17.6150 C   0  0  0  0  0  0  0  0  0  0  0  0
   -7.4380    4.4400  -18.9790 N   0  0  0  0  0  0  0  0  0  0  0  0
   -6.1950    4.9050  -19.2920 C   0  0  0  0  0  0  0  0  0  0  0  0
   -5.5010    5.2110  -18.1580 C   0  0  0  0  0  0  0  0  0  0  0  0
   -4.1020    5.7600  -18.1030 C   0  0  0  0  0  0  0  0  0  0  0  0
   -3.0510    4.8430  -17.4950 C   0  0  0  0  0  0  0  0  0  0  0  0
   -1.6830    5.4120  -17.8890 C   0  0  0  0  0  0  0  0  0  0  0  0
   -3.9510    7.1740  -17.5470 C   0  0  0  0  0  0  0  0  0  0  0  0
   -2.5450    7.6600  -17.9280 C   0  0  0  0  0  0  0  0  0  0  0  0
   -1.5070    6.7770  -17.3820 N   0  0  0  0  0  0  0  0  0  0  0  0
   -0.1700    7.2820  -17.7160 C   0  0  0  0  0  0  0  0  0  0  0  0
   -8.2330    4.0100  -12.6740 N   0  0  0  0  0  0  0  0  0  0  0  0
   -8.4020    3.9600  -11.2610 C   0  0  0  0  0  0  0  0  0  0  0  0
   -8.6280    2.7520  -10.6000 C   0  0  0  0  0  0  0  0  0  0  0  0
   -8.7400    2.7260   -9.2070 C   0  0  0  0  0  0  0  0  0  0  0  0
   -9.0270    1.5700   -8.2950 C   0  0  0  0  0  0  0  0  0  0  0  0
   -8.6740    2.1390   -6.9810 N   0  0  0  0  0  0  0  0  0  0  0  0
   -8.6950    3.6150   -7.0020 C   0  0  0  0  0  0  0  0  0  0  0  0
   -8.6110    3.9000   -8.4730 C   0  0  0  0  0  0  0  0  0  0  0  0
   -8.4040    5.1040   -9.1360 C   0  0  0  0  0  0  0  0  0  0  0  0
   -8.3060    5.1380  -10.5190 C   0  0  0  0  0  0  0  0  0  0  0  0
 18 17  1  0
 17 14  1  0
 14 13  1  0
 13 12  1  0
 12 11  1  0
 11 10  2  0
 10  9  1  0
  9  8  1  0
  8  5  1  0
  5  4  2  0
  4  3  1  0
  3  2  1  0
  2  1  2  0
 19  2  1  0
 20 19  1  0
 20 28  2  0
 28 27  1  0
 27 26  2  0
 26 22  1  0
 22 21  2  0
 21 20  1  0
 23 22  1  0
 24 23  1  0
 25 24  1  0
 26 25  1  0
  6  3  2  0
  7  6  1  0
 11  7  1  0
  8  7  2  0
 15 12  1  0
 16 15  1  0
 17 16  1  0
M  END
$$$$
