A71EV2A-x5584_C_201_5_A71EV2A-x0911+A+147+1__LIG
     RDKit          3D

 24 26  0  0  0  0  0  0  0  0999 V2000
   10.4510   16.5820   19.2340 O   0  0  0  0  0  0  0  0  0  0  0  0
   10.8470   15.4270   19.4490 C   0  0  0  0  0  0  0  0  0  0  0  0
   11.1110   14.5600   18.4710 N   0  0  0  0  0  0  0  0  0  0  0  0
   10.9680   14.8870   20.8620 C   0  0  1  0  0  0  0  0  0  0  0  0
   11.9950   15.6640   21.7130 C   0  0  0  0  0  0  0  0  0  0  0  0
   12.0710   15.0860   23.1360 C   0  0  0  0  0  0  0  0  0  0  0  0
   10.6920   15.0890   23.7940 C   0  0  0  0  0  0  0  0  0  0  0  0
    9.6020   14.9520   21.5460 C   0  0  0  0  0  0  0  0  0  0  0  0
    9.6990   14.4440   22.9180 N   0  0  0  0  0  0  0  0  0  0  0  0
    8.7200   13.6480   23.3910 C   0  0  0  0  0  0  0  0  0  0  0  0
    7.7890   13.2280   22.7460 O   0  0  0  0  0  0  0  0  0  0  0  0
    8.9010   13.4130   24.7240 O   0  0  0  0  0  0  0  0  0  0  0  0
    7.9410   12.6080   25.3540 C   0  0  0  0  0  0  0  0  0  0  0  0
    7.9460   11.2410   25.1860 C   0  0  0  0  0  0  0  0  0  0  0  0
    8.8270   10.7090   24.3170 F   0  0  0  0  0  0  0  0  0  0  0  0
    7.0730   10.4190   25.8500 C   0  0  0  0  0  0  0  0  0  0  0  0
    7.0150   13.1740   26.2000 C   0  0  0  0  0  0  0  0  0  0  0  0
    6.1130   12.3710   26.9040 C   0  0  0  0  0  0  0  0  0  0  0  0
    6.1510   10.9770   26.7300 C   0  0  0  0  0  0  0  0  0  0  0  0
    5.2200   10.0770   27.5050 C   0  0  0  0  0  0  0  0  0  0  0  0
    4.0410   10.8540   28.0720 C   0  0  0  0  0  0  0  0  0  0  0  0
    5.0970   13.0180   27.8190 C   0  0  0  0  0  0  0  0  0  0  0  0
    4.4970   12.0620   28.7710 N   0  0  0  0  0  0  0  0  0  0  0  0
    5.4190   11.7500   29.8760 C   0  0  0  0  0  0  0  0  0  0  0  0
 24 23  1  0
 23 21  1  0
 21 20  1  0
 20 19  1  0
 19 16  1  0
 16 14  2  0
 15 14  1  0
 14 13  1  0
 13 12  1  0
 12 10  1  0
 11 10  2  0
 10  9  1  0
  9  7  1  0
  7  6  1  0
  6  5  1  0
  5  4  1  0
  4  2  1  6
  3  2  1  0
  2  1  2  0
  8  4  1  0
  9  8  1  0
 17 13  2  0
 18 17  1  0
 19 18  2  0
 22 18  1  0
 23 22  1  0
M  END
$$$$
