A71EV2A-x5015_A_201_3_A71EV2A-x0911+A+147+1__LIG
     RDKit          3D

 20 21  0  0  0  0  0  0  0  0999 V2000
   10.3120   16.7810   19.0700 O   0  0  0  0  0  0  0  0  0  0  0  0
   10.6570   15.6230   19.3330 C   0  0  0  0  0  0  0  0  0  0  0  0
   10.9320   14.7160   18.4010 N   0  0  0  0  0  0  0  0  0  0  0  0
   10.7410   15.1340   20.7680 C   0  0  1  0  0  0  0  0  0  0  0  0
   11.9390   15.7420   21.5230 C   0  0  0  0  0  0  0  0  0  0  0  0
   11.9780   15.2620   22.9860 C   0  0  0  0  0  0  0  0  0  0  0  0
   10.6350   15.5110   23.6670 C   0  0  0  0  0  0  0  0  0  0  0  0
    9.4440   15.4680   21.5090 C   0  0  0  0  0  0  0  0  0  0  0  0
    9.5430   14.9330   22.8670 N   0  0  0  0  0  0  0  0  0  0  0  0
    8.7990   13.8770   23.2380 C   0  0  0  0  0  0  0  0  0  0  0  0
    7.8930   13.4360   22.5410 O   0  0  0  0  0  0  0  0  0  0  0  0
    9.1820   13.2100   24.5390 C   0  0  0  0  0  0  0  0  0  0  0  0
    8.5160   11.8680   24.6800 C   0  0  0  0  0  0  0  0  0  0  0  0
    8.9940   10.7440   24.0160 C   0  0  0  0  0  0  0  0  0  0  0  0
    8.3420    9.5430   24.2070 C   0  0  0  0  0  0  0  0  0  0  0  0
    7.2400    9.5000   25.0390 C   0  0  0  0  0  0  0  0  0  0  0  0
    7.4510   11.8390   25.4900 N   0  0  0  0  0  0  0  0  0  0  0  0
    6.8220   10.6620   25.6720 C   0  0  0  0  0  0  0  0  0  0  0  0
    5.6730   10.6570   26.5820 C   0  0  0  0  0  0  0  0  0  0  0  0
    5.3220   11.6940   27.3270 C   0  0  0  0  0  0  0  0  0  0  0  0
 20 19  2  0
 19 18  1  0
 18 16  2  0
 16 15  1  0
 15 14  2  0
 14 13  1  0
 13 12  1  0
 12 10  1  0
 11 10  2  0
 10  9  1  0
  9  7  1  0
  7  6  1  0
  6  5  1  0
  5  4  1  0
  4  2  1  6
  3  2  1  0
  2  1  2  0
  8  4  1  0
  9  8  1  0
 17 13  2  0
 18 17  1  0
M  END
$$$$
