A71EV2A-x5402_A_201_5_A71EV2A-x0911+A+147+1__LIG
     RDKit          3D

 19 20  0  0  0  0  0  0  0  0999 V2000
    9.0320   10.7180   23.4020 F   0  0  0  0  0  0  0  0  0  0  0  0
    8.0880   10.8910   24.3620 C   0  0  0  0  0  0  0  0  0  0  0  0
    7.3720    9.8110   24.8200 C   0  0  0  0  0  0  0  0  0  0  0  0
    6.3860   10.0260   25.7740 C   0  0  0  0  0  0  0  0  0  0  0  0
    6.1420   11.2980   26.2540 C   0  0  0  0  0  0  0  0  0  0  0  0
    6.8730   12.3760   25.7830 C   0  0  0  0  0  0  0  0  0  0  0  0
    7.8630   12.1680   24.8300 C   0  0  0  0  0  0  0  0  0  0  0  0
    8.6610   13.2280   24.3780 O   0  0  0  0  0  0  0  0  0  0  0  0
    8.4460   13.6890   23.1110 C   0  0  0  0  0  0  0  0  0  0  0  0
    7.5500   13.3190   22.3880 O   0  0  0  0  0  0  0  0  0  0  0  0
    9.3180   14.6710   22.8090 N   0  0  0  0  0  0  0  0  0  0  0  0
   10.3410   15.1840   23.7340 C   0  0  0  0  0  0  0  0  0  0  0  0
   11.7320   15.0630   23.1360 C   0  0  0  0  0  0  0  0  0  0  0  0
   11.7760   15.6520   21.7100 C   0  0  0  0  0  0  0  0  0  0  0  0
    9.3300   15.2800   21.4770 C   0  0  0  0  0  0  0  0  0  0  0  0
   10.6900   15.0340   20.8180 C   0  0  1  0  0  0  0  0  0  0  0  0
   10.7250   15.5920   19.4050 C   0  0  0  0  0  0  0  0  0  0  0  0
   10.4410   16.7740   19.1740 O   0  0  0  0  0  0  0  0  0  0  0  0
   11.0490   14.7320   18.4590 N   0  0  0  0  0  0  0  0  0  0  0  0
 19 17  1  0
 18 17  2  0
 16 17  1  6
 16 14  1  0
 14 13  1  0
 13 12  1  0
 12 11  1  0
 11  9  1  0
 10  9  2  0
  9  8  1  0
  8  7  1  0
  7  6  2  0
  6  5  1  0
  5  4  2  0
  4  3  1  0
  3  2  2  0
  7  2  1  0
  2  1  1  0
 15 11  1  0
 16 15  1  0
M  END
$$$$
