XX01ZVNS2B-x2048_B_301_1_XX01ZVNS2B-x4590+B+203+1__LIG
     RDKit          3D

 25 26  0  0  0  0  0  0  0  0999 V2000
   -4.6200    5.9450  -11.5160 C   0  0  0  0  0  0  0  0  0  0  0  0
   -5.2150    4.6180  -11.8620 C   0  0  0  0  0  0  0  0  0  0  0  0
   -4.5630    3.7360  -12.4200 O   0  0  0  0  0  0  0  0  0  0  0  0
   -6.4950    4.4290  -11.5310 N   0  0  0  0  0  0  0  0  0  0  0  0
   -7.1520    3.1530  -11.7640 C   0  0  1  0  0  0  0  0  0  0  0  0
   -8.3760    3.0130  -10.8610 C   0  0  0  0  0  0  0  0  0  0  0  0
   -8.0340    3.0490   -9.3800 C   0  0  0  0  0  0  0  0  0  0  0  0
   -9.0290    2.2900   -8.5180 C   0  0  0  0  0  0  0  0  0  0  0  0
   -8.7060    2.3100   -7.0880 N   0  0  0  0  0  0  0  0  0  0  0  0
   -7.5170    2.9490  -13.2460 C   0  0  0  0  0  0  0  0  0  0  0  0
   -7.5050    1.8360  -13.7490 O   0  0  0  0  0  0  0  0  0  0  0  0
   -7.8560    4.0690  -13.9190 N   0  0  0  0  0  0  0  0  0  0  0  0
   -8.0520    4.2100  -15.2990 C   0  0  0  0  0  0  0  0  0  0  0  0
   -9.2470    4.0020  -15.9430 C   0  0  0  0  0  0  0  0  0  0  0  0
   -9.3540    4.1750  -17.3320 C   0  0  0  0  0  0  0  0  0  0  0  0
   -8.2810    4.5560  -18.0740 C   0  0  0  0  0  0  0  0  0  0  0  0
   -7.0260    4.7900  -17.4600 C   0  0  0  0  0  0  0  0  0  0  0  0
   -5.8630    5.1830  -18.1900 C   0  0  0  0  0  0  0  0  0  0  0  0
   -5.9470    5.3810  -19.6840 C   0  0  0  0  0  0  0  0  0  0  0  0
   -4.6860    5.5980  -20.3100 O   0  0  0  0  0  0  0  0  0  0  0  0
   -4.6970    5.3790  -17.4990 C   0  0  0  0  0  0  0  0  0  0  0  0
   -4.6590    5.1820  -16.1020 C   0  0  0  0  0  0  0  0  0  0  0  0
   -3.3800    5.3870  -15.3490 C   0  0  0  0  0  0  0  0  0  0  0  0
   -5.7210    4.8130  -15.4040 N   0  0  0  0  0  0  0  0  0  0  0  0
   -6.9040    4.6140  -16.0530 C   0  0  0  0  0  0  0  0  0  0  0  0
  1  2  1  0
  2  3  2  0
  2  4  1  0
  4  5  1  0
  5  6  1  1
  6  7  1  0
  7  8  1  0
  8  9  1  0
  5 10  1  0
 10 11  2  0
 10 12  1  0
 12 13  1  0
 13 14  2  0
 14 15  1  0
 15 16  2  0
 16 17  1  0
 17 18  2  0
 18 19  1  0
 19 20  1  0
 18 21  1  0
 21 22  2  0
 22 23  1  0
 22 24  1  0
 24 25  2  0
 13 25  1  0
 17 25  1  0
M  END
$$$$
