A71EV2A-x4321_A_201_1_A71EV2A-x0911+A+147+1__LIG
     RDKit          3D

 21 22  0  0  0  0  0  0  0  0999 V2000
   10.3900   16.7560   19.1480 O   0  0  0  0  0  0  0  0  0  0  0  0
   10.7140   15.5890   19.3960 C   0  0  0  0  0  0  0  0  0  0  0  0
   10.9730   14.6950   18.4470 N   0  0  0  0  0  0  0  0  0  0  0  0
   10.7750   15.0810   20.8260 C   0  0  1  0  0  0  0  0  0  0  0  0
   11.9240   15.7330   21.6150 C   0  0  0  0  0  0  0  0  0  0  0  0
   11.9380   15.2400   23.0670 C   0  0  0  0  0  0  0  0  0  0  0  0
   10.5670   15.4220   23.7190 C   0  0  0  0  0  0  0  0  0  0  0  0
    9.4290   15.2930   21.5260 C   0  0  0  0  0  0  0  0  0  0  0  0
    9.5040   14.8050   22.9060 N   0  0  0  0  0  0  0  0  0  0  0  0
    8.6480   13.8520   23.3380 C   0  0  0  0  0  0  0  0  0  0  0  0
    7.8090   13.3550   22.6050 O   0  0  0  0  0  0  0  0  0  0  0  0
    8.7570   13.4470   24.7970 C   0  0  0  0  0  0  0  0  0  0  0  0
    7.8190   12.3150   25.1570 C   0  0  0  0  0  0  0  0  0  0  0  0
    8.0840   10.9860   24.7970 C   0  0  0  0  0  0  0  0  0  0  0  0
    9.3430   10.6160   24.0330 C   0  0  0  0  0  0  0  0  0  0  0  0
    9.4560    9.1810   23.7870 C   0  0  0  0  0  0  0  0  0  0  0  0
    9.5270    8.0680   23.5790 N   0  0  0  0  0  0  0  0  0  0  0  0
    6.6880   12.5930   25.9210 C   0  0  0  0  0  0  0  0  0  0  0  0
    5.8430   11.5800   26.3440 C   0  0  0  0  0  0  0  0  0  0  0  0
    6.1020   10.2840   25.9890 C   0  0  0  0  0  0  0  0  0  0  0  0
    7.2070    9.9860   25.2040 C   0  0  0  0  0  0  0  0  0  0  0  0
 17 16  3  0
 16 15  1  0
 15 14  1  0
 14 21  2  0
 21 20  1  0
 20 19  2  0
 19 18  1  0
 18 13  2  0
 14 13  1  0
 13 12  1  0
 12 10  1  0
 11 10  2  0
 10  9  1  0
  9  7  1  0
  7  6  1  0
  6  5  1  0
  5  4  1  0
  4  2  1  6
  3  2  1  0
  2  1  2  0
  8  4  1  0
  9  8  1  0
M  END
$$$$
