A71EV2A-x4836_A_201_1_A71EV2A-x0911+A+147+1__LIG
     RDKit          3D

 23 25  0  0  0  0  0  0  0  0999 V2000
   10.2610   16.6100   19.2240 O   0  0  0  0  0  0  0  0  0  0  0  0
   10.6360   15.4460   19.4130 C   0  0  0  0  0  0  0  0  0  0  0  0
   10.9460   14.6100   18.4340 N   0  0  0  0  0  0  0  0  0  0  0  0
   10.7590   14.8840   20.8190 C   0  0  1  0  0  0  0  0  0  0  0  0
   11.9430   15.5170   21.5700 C   0  0  0  0  0  0  0  0  0  0  0  0
   12.0140   15.0200   23.0150 C   0  0  0  0  0  0  0  0  0  0  0  0
   10.6850   15.2280   23.7180 C   0  0  0  0  0  0  0  0  0  0  0  0
    9.4560   15.1210   21.5900 C   0  0  0  0  0  0  0  0  0  0  0  0
    9.5940   14.6020   22.9550 N   0  0  0  0  0  0  0  0  0  0  0  0
    8.7730   13.6390   23.4180 C   0  0  0  0  0  0  0  0  0  0  0  0
    7.8860   13.1620   22.7280 O   0  0  0  0  0  0  0  0  0  0  0  0
    8.9570   13.1930   24.8730 C   0  0  2  0  0  0  0  0  0  0  0  0
    8.2860   11.9100   25.1380 N   0  0  0  0  0  0  0  0  0  0  0  0
    8.8050   10.7400   24.6510 C   0  0  0  0  0  0  0  0  0  0  0  0
    9.8420   10.7310   23.9800 O   0  0  0  0  0  0  0  0  0  0  0  0
    8.0280    9.5000   24.8840 C   0  0  0  0  0  0  0  0  0  0  0  0
    8.3110   14.1930   25.8500 C   0  0  0  0  0  0  0  0  0  0  0  0
    7.1200   13.4450   26.3830 C   0  0  0  0  0  0  0  0  0  0  0  0
    7.1470   12.1170   25.9650 C   0  0  0  0  0  0  0  0  0  0  0  0
    6.0970   13.8840   27.2140 C   0  0  0  0  0  0  0  0  0  0  0  0
    5.1130   13.0000   27.6130 C   0  0  0  0  0  0  0  0  0  0  0  0
    5.1460   11.6850   27.1970 C   0  0  0  0  0  0  0  0  0  0  0  0
    6.1600   11.2280   26.3670 C   0  0  0  0  0  0  0  0  0  0  0  0
 16 14  1  0
 15 14  2  0
 14 13  1  0
 13 19  1  0
 19 23  2  0
 23 22  1  0
 22 21  2  0
 21 20  1  0
 20 18  2  0
 19 18  1  0
 18 17  1  0
 17 12  1  0
 13 12  1  0
 12 10  1  6
 11 10  2  0
 10  9  1  0
  9  7  1  0
  7  6  1  0
  6  5  1  0
  5  4  1  0
  4  2  1  6
  3  2  1  0
  2  1  2  0
  8  4  1  0
  9  8  1  0
M  END
$$$$
