A71EV2A-x4456_C_201_1_A71EV2A-x0911+A+147+1__LIG
     RDKit          3D

 21 23  0  0  0  0  0  0  0  0999 V2000
    8.4350   14.9400   24.9290 O   0  0  0  0  0  0  0  0  0  0  0  0
    9.0240   14.3060   24.0530 C   0  0  0  0  0  0  0  0  0  0  0  0
    9.6860   14.9230   23.0520 N   0  0  0  0  0  0  0  0  0  0  0  0
   10.7930   15.6130   23.7230 C   0  0  0  0  0  0  0  0  0  0  0  0
   12.0690   15.3590   22.9980 C   0  0  0  0  0  0  0  0  0  0  0  0
   11.9460   15.8350   21.5490 C   0  0  0  0  0  0  0  0  0  0  0  0
    9.4900   15.2270   21.6220 C   0  0  0  0  0  0  0  0  0  0  0  0
   10.8070   15.0760   20.8450 C   0  0  1  0  0  0  0  0  0  0  0  0
   10.6760   15.5640   19.4140 C   0  0  0  0  0  0  0  0  0  0  0  0
   10.2880   16.7150   19.1710 O   0  0  0  0  0  0  0  0  0  0  0  0
   10.9450   14.6680   18.4610 N   0  0  0  0  0  0  0  0  0  0  0  0
    9.0160   12.7840   24.0980 C   0  0  2  0  0  0  0  0  0  0  0  0
    8.2190   12.2030   25.2470 C   0  0  0  0  0  0  0  0  0  0  0  0
    8.4020   10.8340   25.0620 C   0  0  0  0  0  0  0  0  0  0  0  0
    9.6870   10.6000   24.3090 C   0  0  0  0  0  0  0  0  0  0  0  0
   10.2860   12.0020   24.2810 C   0  0  0  0  0  0  0  0  0  0  0  0
    7.1830   12.6660   26.0590 C   0  0  0  0  0  0  0  0  0  0  0  0
    7.0080   14.0200   26.2260 O   0  0  0  0  0  0  0  0  0  0  0  0
    6.3020   11.7500   26.6320 C   0  0  0  0  0  0  0  0  0  0  0  0
    6.4550   10.3920   26.3910 C   0  0  0  0  0  0  0  0  0  0  0  0
    7.4970    9.9310   25.6050 C   0  0  0  0  0  0  0  0  0  0  0  0
 11  9  1  0
 10  9  2  0
  8  9  1  6
  8  6  1  0
  6  5  1  0
  5  4  1  0
  4  3  1  0
  3  2  1  0
  2  1  2  0
 12  2  1  1
 12 16  1  0
 16 15  1  0
 15 14  1  0
 14 21  2  0
 21 20  1  0
 20 19  2  0
 19 17  1  0
 18 17  1  0
 17 13  2  0
 14 13  1  0
 13 12  1  0
  7  3  1  0
  8  7  1  0
M  END
$$$$
