A71EV2A-x5604_A_201_5_A71EV2A-x0911+A+147+1__LIG
     RDKit          3D

 25 27  0  0  0  0  0  0  0  0999 V2000
   10.4820   16.7260   19.1620 O   0  0  0  0  0  0  0  0  0  0  0  0
   10.7510   15.5470   19.4240 C   0  0  0  0  0  0  0  0  0  0  0  0
   11.0470   14.6560   18.4920 N   0  0  0  0  0  0  0  0  0  0  0  0
   10.7360   15.0360   20.8550 C   0  0  1  0  0  0  0  0  0  0  0  0
   11.6760   15.8550   21.7530 C   0  0  0  0  0  0  0  0  0  0  0  0
   11.6660   15.3340   23.1970 C   0  0  0  0  0  0  0  0  0  0  0  0
   10.2550   15.3140   23.7520 C   0  0  0  0  0  0  0  0  0  0  0  0
    9.3340   15.1470   21.4610 C   0  0  0  0  0  0  0  0  0  0  0  0
    9.3210   14.6380   22.8370 N   0  0  0  0  0  0  0  0  0  0  0  0
    8.4000   13.7200   23.2130 C   0  0  0  0  0  0  0  0  0  0  0  0
    7.6130   13.2300   22.4180 O   0  0  0  0  0  0  0  0  0  0  0  0
    8.3350   13.3710   24.6900 C   0  0  0  0  0  0  0  0  0  0  0  0
    7.4900   12.1460   24.9610 C   0  0  0  0  0  0  0  0  0  0  0  0
    7.8790   10.8350   24.6350 C   0  0  0  0  0  0  0  0  0  0  0  0
    9.3440   10.6130   23.6680 S   0  0  0  0  0  0  0  0  0  0  0  0
    9.4480    8.8360   23.4280 C   0  0  0  0  0  0  0  0  0  0  0  0
    6.2650   12.3380   25.6070 C   0  0  0  0  0  0  0  0  0  0  0  0
    5.4500   11.2590   25.9250 C   0  0  0  0  0  0  0  0  0  0  0  0
    5.8700    9.9670   25.6480 C   0  0  0  0  0  0  0  0  0  0  0  0
    7.0800    9.7540   25.0090 C   0  0  0  0  0  0  0  0  0  0  0  0
    4.1410   11.4870   26.4520 N   0  0  0  0  0  0  0  0  0  0  0  0
    3.5250   12.6900   26.2650 N   0  0  0  0  0  0  0  0  0  0  0  0
    2.3610   12.5560   26.8940 C   0  0  0  0  0  0  0  0  0  0  0  0
    2.2080   11.2960   27.4640 C   0  0  0  0  0  0  0  0  0  0  0  0
    3.3660   10.6300   27.1680 C   0  0  0  0  0  0  0  0  0  0  0  0
 16 15  1  0
 15 14  1  0
 14 20  2  0
 20 19  1  0
 19 18  2  0
 21 18  1  0
 21 25  1  0
 25 24  2  0
 24 23  1  0
 23 22  2  0
 22 21  1  0
 18 17  1  0
 17 13  2  0
 14 13  1  0
 13 12  1  0
 12 10  1  0
 11 10  2  0
 10  9  1  0
  9  7  1  0
  7  6  1  0
  6  5  1  0
  5  4  1  0
  4  2  1  6
  3  2  1  0
  2  1  2  0
  8  4  1  0
  9  8  1  0
M  END
$$$$
