A71EV2A-x4827_C_201_1_A71EV2A-x0911+A+147+1__LIG
     RDKit          3D

 20 21  0  0  0  0  0  0  0  0999 V2000
   10.3950   16.6670   19.1940 O   0  0  0  0  0  0  0  0  0  0  0  0
   10.7940   15.5160   19.4200 C   0  0  0  0  0  0  0  0  0  0  0  0
   11.1030   14.6530   18.4640 N   0  0  0  0  0  0  0  0  0  0  0  0
   10.8570   14.9770   20.8390 C   0  0  1  0  0  0  0  0  0  0  0  0
   11.9730   15.6760   21.6450 C   0  0  0  0  0  0  0  0  0  0  0  0
   11.9690   15.2290   23.1110 C   0  0  0  0  0  0  0  0  0  0  0  0
   10.5860   15.3940   23.7290 C   0  0  0  0  0  0  0  0  0  0  0  0
    9.5010   15.1520   21.5290 C   0  0  0  0  0  0  0  0  0  0  0  0
    9.5790   14.6920   22.9190 N   0  0  0  0  0  0  0  0  0  0  0  0
    8.7550   13.7080   23.3530 C   0  0  0  0  0  0  0  0  0  0  0  0
    7.8550   13.2570   22.6560 O   0  0  0  0  0  0  0  0  0  0  0  0
    8.9380   13.2480   24.7880 C   0  0  0  0  0  0  0  0  0  0  0  0
    8.0390   12.0780   25.1410 C   0  0  0  0  0  0  0  0  0  0  0  0
    8.2790   10.7740   24.6880 C   0  0  0  0  0  0  0  0  0  0  0  0
    9.6150   10.5340   23.5680 S   0  0  0  0  0  0  0  0  0  0  0  0
    9.6600    8.7490   23.3270 C   0  0  0  0  0  0  0  0  0  0  0  0
    6.9800   12.2230   26.0180 C   0  0  0  0  0  0  0  0  0  0  0  0
    6.1940   11.2360   26.4560 N   0  0  0  0  0  0  0  0  0  0  0  0
    6.4540   10.0090   26.0050 C   0  0  0  0  0  0  0  0  0  0  0  0
    7.4720    9.7180   25.1160 C   0  0  0  0  0  0  0  0  0  0  0  0
 16 15  1  0
 15 14  1  0
 14 20  2  0
 20 19  1  0
 19 18  2  0
 18 17  1  0
 17 13  2  0
 14 13  1  0
 13 12  1  0
 12 10  1  0
 11 10  2  0
 10  9  1  0
  9  7  1  0
  7  6  1  0
  6  5  1  0
  5  4  1  0
  4  2  1  6
  3  2  1  0
  2  1  2  0
  8  4  1  0
  9  8  1  0
M  END
$$$$
