A71EV2A-x4724_A_201_1_A71EV2A-x0911+A+147+1__LIG
     RDKit          3D

 22 23  0  0  0  0  0  0  0  0999 V2000
   10.1900   16.7750   19.0860 O   0  0  0  0  0  0  0  0  0  0  0  0
   10.5450   15.6190   19.3570 C   0  0  0  0  0  0  0  0  0  0  0  0
   10.9660   14.7640   18.4440 N   0  0  0  0  0  0  0  0  0  0  0  0
   10.5520   15.0950   20.7820 C   0  0  1  0  0  0  0  0  0  0  0  0
   11.7480   15.5920   21.5660 C   0  0  0  0  0  0  0  0  0  0  0  0
   12.8740   15.1390   20.9370 F   0  0  0  0  0  0  0  0  0  0  0  0
   11.8390   16.9590   21.5080 F   0  0  0  0  0  0  0  0  0  0  0  0
   11.7710   15.1460   23.0090 C   0  0  0  0  0  0  0  0  0  0  0  0
   10.4310   15.3310   23.7040 C   0  0  0  0  0  0  0  0  0  0  0  0
    9.2410   15.3200   21.5580 C   0  0  0  0  0  0  0  0  0  0  0  0
    9.3420   14.7490   22.9060 N   0  0  0  0  0  0  0  0  0  0  0  0
    8.5040   13.7810   23.3490 C   0  0  0  0  0  0  0  0  0  0  0  0
    7.6400   13.2900   22.6380 O   0  0  0  0  0  0  0  0  0  0  0  0
    8.6680   13.3300   24.7880 C   0  0  0  0  0  0  0  0  0  0  0  0
    7.8170   12.1230   25.1120 C   0  0  0  0  0  0  0  0  0  0  0  0
    8.1010   10.8370   24.6270 C   0  0  0  0  0  0  0  0  0  0  0  0
    9.4620   10.6520   23.5100 S   0  0  0  0  0  0  0  0  0  0  0  0
    9.6250    8.8780   23.3370 C   0  0  0  0  0  0  0  0  0  0  0  0
    6.7490   12.2740   26.0000 C   0  0  0  0  0  0  0  0  0  0  0  0
    6.0120   11.1860   26.4310 C   0  0  0  0  0  0  0  0  0  0  0  0
    6.3040    9.9290   25.9570 C   0  0  0  0  0  0  0  0  0  0  0  0
    7.3360    9.7470   25.0470 C   0  0  0  0  0  0  0  0  0  0  0  0
 18 17  1  0
 17 16  1  0
 16 22  2  0
 22 21  1  0
 21 20  2  0
 20 19  1  0
 19 15  2  0
 16 15  1  0
 15 14  1  0
 14 12  1  0
 13 12  2  0
 12 11  1  0
 11  9  1  0
  9  8  1  0
  8  5  1  0
  6  5  1  0
  7  5  1  0
  5  4  1  0
  4  2  1  6
  3  2  1  0
  2  1  2  0
 10  4  1  0
 11 10  1  0
M  END
$$$$
