A71EV2A-x4554_A_201_1_A71EV2A-x0911+A+147+1__LIG
     RDKit          3D

 22 23  0  0  0  0  0  0  0  0999 V2000
   10.8010   14.8080   18.3330 O   0  0  0  0  0  0  0  0  0  0  0  0
   10.6560   15.5990   19.2630 C   0  0  0  0  0  0  0  0  0  0  0  0
   10.6230   16.9070   19.0850 N   0  0  0  0  0  0  0  0  0  0  0  0
   10.5360   15.1080   20.6960 C   0  0  1  0  0  0  0  0  0  0  0  0
   11.7390   15.5630   21.5380 C   0  0  0  0  0  0  0  0  0  0  0  0
   11.6750   15.0310   22.9720 C   0  0  0  0  0  0  0  0  0  0  0  0
   10.3390   15.3590   23.6180 C   0  0  0  0  0  0  0  0  0  0  0  0
    9.2450   15.5100   21.4180 C   0  0  0  0  0  0  0  0  0  0  0  0
    9.2190   14.9290   22.7640 N   0  0  0  0  0  0  0  0  0  0  0  0
    8.3850   13.8840   23.0580 C   0  0  0  0  0  0  0  0  0  0  0  0
    7.6190   13.4200   22.2240 O   0  0  0  0  0  0  0  0  0  0  0  0
    8.4690   13.3970   24.3210 N   0  0  0  0  0  0  0  0  0  0  0  0
    7.6550   12.3740   24.8980 C   0  0  0  0  0  0  0  0  0  0  0  0
    6.6150   12.7260   25.7660 C   0  0  0  0  0  0  0  0  0  0  0  0
    6.3190   14.0640   25.8120 O   0  0  0  0  0  0  0  0  0  0  0  0
    6.9830   14.8630   26.7940 C   0  0  0  0  0  0  0  0  0  0  0  0
    7.9470   11.0110   24.6810 C   0  0  0  0  0  0  0  0  0  0  0  0
    9.2540   10.5420   23.5890 S   0  0  0  0  0  0  0  0  0  0  0  0
   10.6260   11.5590   24.1060 C   0  0  0  0  0  0  0  0  0  0  0  0
    7.2040   10.0350   25.3430 C   0  0  0  0  0  0  0  0  0  0  0  0
    6.1990   10.4070   26.2210 C   0  0  0  0  0  0  0  0  0  0  0  0
    5.9040   11.7420   26.4360 C   0  0  0  0  0  0  0  0  0  0  0  0
 16 15  1  0
 15 14  1  0
 14 22  2  0
 22 21  1  0
 21 20  2  0
 20 17  1  0
 18 17  1  0
 19 18  1  0
 17 13  2  0
 14 13  1  0
 13 12  1  0
 12 10  1  0
 11 10  2  0
 10  9  1  0
  9  7  1  0
  7  6  1  0
  6  5  1  0
  5  4  1  0
  4  2  1  6
  3  2  1  0
  2  1  2  0
  8  4  1  0
  9  8  1  0
M  END
$$$$
