XX01ZVNS2B-x1752_B_301_1_XX01ZVNS2B-x4590+B+203+1__LIG
     RDKit          3D

 22 23  0  0  0  0  0  0  0  0999 V2000
   -8.6150    4.4460   -8.9850 C   0  0  0  0  0  0  0  0  0  0  0  0
   -7.8250    3.2720   -9.4690 C   0  0  0  0  0  0  0  0  0  0  0  0
   -7.6210    2.3050   -8.7400 O   0  0  0  0  0  0  0  0  0  0  0  0
   -7.3400    3.3040  -10.7180 N   0  0  0  0  0  0  0  0  0  0  0  0
   -7.7720    4.2370  -11.7480 C   0  0  1  0  0  0  0  0  0  0  0  0
   -7.1700    5.6260  -11.5190 C   0  0  0  0  0  0  0  0  0  0  0  0
   -7.9920    6.7630  -12.1110 C   0  0  0  0  0  0  0  0  0  0  0  0
   -7.2070    8.0590  -12.2410 C   0  0  0  0  0  0  0  0  0  0  0  0
   -6.3320    8.3550  -11.1020 N   0  0  0  0  0  0  0  0  0  0  0  0
   -7.4480    3.6780  -13.1550 C   0  0  0  0  0  0  0  0  0  0  0  0
   -7.5090    2.4760  -13.3830 O   0  0  0  0  0  0  0  0  0  0  0  0
   -7.0900    4.5870  -14.0890 N   0  0  0  0  0  0  0  0  0  0  0  0
   -7.4090    4.5770  -15.4530 C   0  0  0  0  0  0  0  0  0  0  0  0
   -8.6620    4.3470  -15.9680 C   0  0  0  0  0  0  0  0  0  0  0  0
   -8.8730    4.3530  -17.3580 C   0  0  0  0  0  0  0  0  0  0  0  0
   -7.8430    4.5870  -18.2230 C   0  0  0  0  0  0  0  0  0  0  0  0
   -6.5410    4.8260  -17.7350 C   0  0  0  0  0  0  0  0  0  0  0  0
   -6.3140    4.8220  -16.3410 C   0  0  0  0  0  0  0  0  0  0  0  0
   -5.0760    5.0440  -15.8060 N   0  0  0  0  0  0  0  0  0  0  0  0
   -4.0820    5.2660  -16.6470 C   0  0  0  0  0  0  0  0  0  0  0  0
   -4.2190    5.2890  -18.0490 C   0  0  0  0  0  0  0  0  0  0  0  0
   -5.4470    5.0690  -18.5930 C   0  0  0  0  0  0  0  0  0  0  0  0
  1  2  1  0
  2  3  2  0
  2  4  1  0
  4  5  1  0
  5  6  1  1
  6  7  1  0
  7  8  1  0
  8  9  1  0
  5 10  1  0
 10 11  2  0
 10 12  1  0
 12 13  1  0
 13 14  2  0
 14 15  1  0
 15 16  2  0
 16 17  1  0
 17 18  2  0
 18 19  1  0
 19 20  2  0
 20 21  1  0
 21 22  2  0
 13 18  1  0
 17 22  1  0
M  END
$$$$
