XX01ZVNS2B-x1761_B_301_1_XX01ZVNS2B-x4590+B+203+1__LIG
     RDKit          3D

 28 31  0  0  0  0  0  0  0  0999 V2000
   -3.4700    5.5480  -14.3790 C   0  0  0  0  0  0  0  0  0  0  0  0
   -4.5180    5.3460  -15.4320 C   0  0  0  0  0  0  0  0  0  0  0  0
   -4.1600    5.3970  -16.7940 C   0  0  0  0  0  0  0  0  0  0  0  0
   -5.1090    5.2220  -17.7640 C   0  0  0  0  0  0  0  0  0  0  0  0
   -4.7240    5.2770  -19.2230 C   0  0  0  0  0  0  0  0  0  0  0  0
   -3.3750    4.8730  -19.4630 O   0  0  0  0  0  0  0  0  0  0  0  0
   -6.4600    4.9800  -17.3610 C   0  0  0  0  0  0  0  0  0  0  0  0
   -7.5160    4.7740  -18.2850 C   0  0  0  0  0  0  0  0  0  0  0  0
   -8.7830    4.5430  -17.8460 C   0  0  0  0  0  0  0  0  0  0  0  0
   -9.0490    4.5080  -16.4630 C   0  0  0  0  0  0  0  0  0  0  0  0
   -8.0600    4.7010  -15.5300 C   0  0  0  0  0  0  0  0  0  0  0  0
   -8.4090    4.6480  -14.0480 C   0  0  0  0  0  0  0  0  0  0  0  0
   -8.5180    5.9990  -13.3590 C   0  0  0  0  0  0  0  0  0  0  0  0
   -9.3400    6.9860  -13.8970 C   0  0  0  0  0  0  0  0  0  0  0  0
   -9.4690    8.2230  -13.2950 C   0  0  0  0  0  0  0  0  0  0  0  0
   -8.7890    8.4940  -12.1290 C   0  0  0  0  0  0  0  0  0  0  0  0
   -7.9760    7.5300  -11.5620 C   0  0  0  0  0  0  0  0  0  0  0  0
   -7.8250    6.2750  -12.1730 C   0  0  0  0  0  0  0  0  0  0  0  0
   -6.9580    5.2440  -11.5160 C   0  0  0  0  0  0  0  0  0  0  0  0
   -5.8500    4.9490  -11.9690 O   0  0  0  0  0  0  0  0  0  0  0  0
   -7.4970    4.5880  -10.4720 N   0  0  0  0  0  0  0  0  0  0  0  0
   -7.9270    5.2550   -9.2330 C   0  0  0  0  0  0  0  0  0  0  0  0
   -8.4700    4.1410   -8.3640 C   0  0  0  0  0  0  0  0  0  0  0  0
   -7.9400    2.8460   -8.9840 C   0  0  1  0  0  0  0  0  0  0  0  0
   -8.8210    1.7160   -8.6920 N   0  0  0  0  0  0  0  0  0  0  0  0
   -7.8240    3.1540  -10.4690 C   0  0  0  0  0  0  0  0  0  0  0  0
   -6.7430    4.9370  -15.9640 C   0  0  0  0  0  0  0  0  0  0  0  0
   -5.7590    5.1230  -15.0270 N   0  0  0  0  0  0  0  0  0  0  0  0
  1  2  1  0
  2  3  2  0
  3  4  1  0
  4  5  1  0
  5  6  1  0
  4  7  2  0
  7  8  1  0
  8  9  2  0
  9 10  1  0
 10 11  2  0
 11 12  1  0
 12 13  1  0
 13 14  2  0
 14 15  1  0
 15 16  2  0
 16 17  1  0
 17 18  2  0
 18 19  1  0
 19 20  2  0
 19 21  1  0
 21 22  1  0
 22 23  1  0
 23 24  1  0
 24 25  1  6
 24 26  1  0
 11 27  1  0
 27 28  2  0
  2 28  1  0
  7 27  1  0
 13 18  1  0
 21 26  1  0
M  END
$$$$
