A71EV2A-x4423_A_201_1_A71EV2A-x0911+A+147+1__LIG
     RDKit          3D

 20 21  0  0  0  0  0  0  0  0999 V2000
    7.8680   13.1260   22.9750 O   0  0  0  0  0  0  0  0  0  0  0  0
    8.8550   13.4080   23.6420 C   0  0  0  0  0  0  0  0  0  0  0  0
    9.7090   14.3910   23.2800 N   0  0  0  0  0  0  0  0  0  0  0  0
    9.4890   15.1850   22.0690 C   0  0  0  0  0  0  0  0  0  0  0  0
   10.4350   14.7100   20.9700 C   0  0  1  0  0  0  0  0  0  0  0  0
   10.4570   15.6320   19.7540 C   0  0  0  0  0  0  0  0  0  0  0  0
   11.3150   14.9800   18.6920 C   0  0  0  0  0  0  0  0  0  0  0  0
   11.0360   15.5200   17.4150 O   0  0  0  0  0  0  0  0  0  0  0  0
   11.8320   14.4450   21.5630 C   0  0  0  0  0  0  0  0  0  0  0  0
   12.0720   15.0680   22.9350 C   0  0  0  0  0  0  0  0  0  0  0  0
   10.9950   14.6710   23.9420 C   0  0  0  0  0  0  0  0  0  0  0  0
    9.2210   12.6520   24.9070 C   0  0  0  0  0  0  0  0  0  0  0  0
    8.2260   11.5730   25.2560 C   0  0  0  0  0  0  0  0  0  0  0  0
    8.3010   10.3050   24.6760 C   0  0  0  0  0  0  0  0  0  0  0  0
    9.3080   10.1420   23.7580 O   0  0  0  0  0  0  0  0  0  0  0  0
    9.6030    8.8160   23.3030 C   0  0  0  0  0  0  0  0  0  0  0  0
    7.2230   11.7630   26.1850 C   0  0  0  0  0  0  0  0  0  0  0  0
    6.3320   10.8390   26.5530 N   0  0  0  0  0  0  0  0  0  0  0  0
    6.4310    9.6430   25.9710 C   0  0  0  0  0  0  0  0  0  0  0  0
    7.3950    9.3210   25.0360 C   0  0  0  0  0  0  0  0  0  0  0  0
 16 15  1  0
 15 14  1  0
 14 20  2  0
 20 19  1  0
 19 18  2  0
 18 17  1  0
 17 13  2  0
 14 13  1  0
 13 12  1  0
 12  2  1  0
  2  1  2  0
  3  2  1  0
  3 11  1  0
 11 10  1  0
 10  9  1  0
  9  5  1  0
  5  6  1  6
  7  6  1  0
  8  7  1  0
  5  4  1  0
  4  3  1  0
M  END
$$$$
