A71EV2A-x4029_A_201_1_A71EV2A-x0911+A+147+1__LIG
     RDKit          3D

 19 20  0  0  0  0  0  0  0  0999 V2000
   11.3330   14.6310   25.0480 O   0  0  0  0  0  0  0  0  0  0  0  0
   11.2370   14.8130   23.8420 C   0  0  0  0  0  0  0  0  0  0  0  0
   12.4170   15.3330   23.0640 C   0  0  0  0  0  0  0  0  0  0  0  0
   12.0980   15.8260   21.6470 C   0  0  0  0  0  0  0  0  0  0  0  0
   11.1160   14.8860   20.9240 C   0  0  2  0  0  0  0  0  0  0  0  0
   10.8410   15.3450   19.4990 C   0  0  0  0  0  0  0  0  0  0  0  0
   10.3610   16.4620   19.2650 O   0  0  0  0  0  0  0  0  0  0  0  0
   11.1220   14.4730   18.5500 N   0  0  0  0  0  0  0  0  0  0  0  0
    9.8220   14.7540   21.7390 C   0  0  0  0  0  0  0  0  0  0  0  0
   10.0800   14.5810   23.1750 N   0  0  0  0  0  0  0  0  0  0  0  0
    8.8770   14.1940   23.9210 C   0  0  0  0  0  0  0  0  0  0  0  0
    8.7240   12.6980   24.0600 C   0  0  0  0  0  0  0  0  0  0  0  0
    7.7360   12.1600   24.8920 C   0  0  0  0  0  0  0  0  0  0  0  0
    6.9770   13.0850   25.5740 O   0  0  0  0  0  0  0  0  0  0  0  0
    5.9030   12.6040   26.3890 C   0  0  0  0  0  0  0  0  0  0  0  0
    9.5770   11.8160   23.3930 C   0  0  0  0  0  0  0  0  0  0  0  0
    9.4390   10.4470   23.5320 C   0  0  0  0  0  0  0  0  0  0  0  0
    8.4520    9.9320   24.3380 C   0  0  0  0  0  0  0  0  0  0  0  0
    7.5980   10.7800   25.0230 C   0  0  0  0  0  0  0  0  0  0  0  0
 15 14  1  0
 14 13  1  0
 13 19  2  0
 19 18  1  0
 18 17  2  0
 17 16  1  0
 16 12  2  0
 13 12  1  0
 12 11  1  0
 11 10  1  0
 10  9  1  0
  9  5  1  0
  5  6  1  6
  8  6  1  0
  7  6  2  0
  5  4  1  0
  4  3  1  0
  3  2  1  0
 10  2  1  0
  2  1  2  0
M  END
$$$$
