XX01ZVNS2B-x3501_B_203_1_XX01ZVNS2B-x4590+B+203+1__LIG
     RDKit          3D

 25 28  0  0  0  0  0  0  0  0999 V2000
   -6.5980    5.2620  -13.2530 O   0  0  0  0  0  0  0  0  0  0  0  0
   -7.5390    4.6180  -13.7060 C   0  0  0  0  0  0  0  0  0  0  0  0
   -8.3910    3.9090  -12.9330 N   0  0  0  0  0  0  0  0  0  0  0  0
   -8.5000    3.9420  -11.5150 C   0  0  0  0  0  0  0  0  0  0  0  0
   -8.3120    5.1340  -10.8200 C   0  0  0  0  0  0  0  0  0  0  0  0
   -8.4510    5.1690   -9.4430 C   0  0  0  0  0  0  0  0  0  0  0  0
   -8.6750    3.9790   -8.7610 C   0  0  0  0  0  0  0  0  0  0  0  0
   -8.8390    2.7850   -9.4480 C   0  0  0  0  0  0  0  0  0  0  0  0
   -8.7040    2.7410  -10.8280 C   0  0  0  0  0  0  0  0  0  0  0  0
   -9.1070    1.6740   -8.4730 C   0  0  0  0  0  0  0  0  0  0  0  0
   -8.6730    2.2790   -7.2090 N   0  0  0  0  0  0  0  0  0  0  0  0
   -8.8580    3.7360   -7.2890 C   0  0  0  0  0  0  0  0  0  0  0  0
   -7.7390    4.5430  -15.1870 C   0  0  0  0  0  0  0  0  0  0  0  0
   -8.9440    4.1450  -15.7620 C   0  0  0  0  0  0  0  0  0  0  0  0
   -9.1070    4.0770  -17.1420 C   0  0  0  0  0  0  0  0  0  0  0  0
   -8.0620    4.3370  -17.9940 C   0  0  0  0  0  0  0  0  0  0  0  0
   -6.8400    4.7250  -17.4400 C   0  0  0  0  0  0  0  0  0  0  0  0
   -5.6420    5.0620  -18.0590 N   0  0  0  0  0  0  0  0  0  0  0  0
   -4.7990    5.3470  -17.0870 C   0  0  0  0  0  0  0  0  0  0  0  0
   -3.3790    5.7100  -17.3120 C   0  0  0  0  0  0  0  0  0  0  0  0
   -2.8430    5.0280  -18.3180 F   0  0  0  0  0  0  0  0  0  0  0  0
   -2.6320    5.4630  -16.2480 F   0  0  0  0  0  0  0  0  0  0  0  0
   -3.2250    6.9970  -17.5980 F   0  0  0  0  0  0  0  0  0  0  0  0
   -5.3690    5.1970  -15.8710 N   0  0  0  0  0  0  0  0  0  0  0  0
   -6.6740    4.8350  -16.0580 C   0  0  0  0  0  0  0  0  0  0  0  0
  1  2  2  0
  2  3  1  0
  3  4  1  0
  4  5  2  0
  5  6  1  0
  6  7  2  0
  7  8  1  0
  8  9  2  0
  8 10  1  0
 10 11  1  0
 11 12  1  0
  2 13  1  0
 13 14  2  0
 14 15  1  0
 15 16  2  0
 16 17  1  0
 17 18  1  0
 18 19  2  0
 19 20  1  0
 20 21  1  0
 20 22  1  0
 20 23  1  0
 19 24  1  0
 24 25  1  0
  4  9  1  0
 13 25  1  0
  7 12  1  0
 17 25  2  0
M  END
$$$$
