XX01ZVNS2B-x3622_B_203_1_XX01ZVNS2B-x4590+B+203+1__LIG
     RDKit          3D

 28 32  0  0  0  0  0  0  0  0999 V2000
  -10.4440    4.0130  -17.6120 F   0  0  0  0  0  0  0  0  0  0  0  0
   -9.2060    4.2320  -17.0970 C   0  0  0  0  0  0  0  0  0  0  0  0
   -9.0670    4.2750  -15.7260 C   0  0  0  0  0  0  0  0  0  0  0  0
   -8.1760    4.4550  -17.9770 C   0  0  0  0  0  0  0  0  0  0  0  0
   -6.9290    4.7640  -17.4480 C   0  0  0  0  0  0  0  0  0  0  0  0
   -6.7450    4.8350  -16.0660 C   0  0  0  0  0  0  0  0  0  0  0  0
   -5.4110    5.1390  -15.7940 N   0  0  0  0  0  0  0  0  0  0  0  0
   -4.8310    5.2420  -16.9890 C   0  0  0  0  0  0  0  0  0  0  0  0
   -3.4050    5.5420  -17.2060 C   0  0  0  0  0  0  0  0  0  0  0  0
   -2.8470    5.4200  -18.4750 C   0  0  0  0  0  0  0  0  0  0  0  0
   -1.5230    5.7620  -18.6960 C   0  0  0  0  0  0  0  0  0  0  0  0
   -0.7400    6.2190  -17.6580 C   0  0  0  0  0  0  0  0  0  0  0  0
   -1.2780    6.3310  -16.3930 C   0  0  0  0  0  0  0  0  0  0  0  0
   -2.6020    5.9950  -16.1630 C   0  0  0  0  0  0  0  0  0  0  0  0
   -5.6990    5.0260  -18.0100 N   0  0  0  0  0  0  0  0  0  0  0  0
   -7.8180    4.6010  -15.1950 C   0  0  0  0  0  0  0  0  0  0  0  0
   -7.6910    4.7830  -13.7120 C   0  0  0  0  0  0  0  0  0  0  0  0
   -6.9650    5.6600  -13.2480 O   0  0  0  0  0  0  0  0  0  0  0  0
   -8.4290    3.9400  -12.9460 N   0  0  0  0  0  0  0  0  0  0  0  0
   -8.5150    3.9250  -11.5310 C   0  0  0  0  0  0  0  0  0  0  0  0
   -8.7560    2.7320  -10.8520 C   0  0  0  0  0  0  0  0  0  0  0  0
   -8.8690    2.7290   -9.4650 C   0  0  0  0  0  0  0  0  0  0  0  0
   -9.2120    1.6010   -8.5370 C   0  0  0  0  0  0  0  0  0  0  0  0
   -8.8600    2.1910   -7.2520 N   0  0  0  0  0  0  0  0  0  0  0  0
   -8.8260    3.6490   -7.2790 C   0  0  0  0  0  0  0  0  0  0  0  0
   -8.7070    3.9080   -8.7510 C   0  0  0  0  0  0  0  0  0  0  0  0
   -8.4630    5.0970   -9.4310 C   0  0  0  0  0  0  0  0  0  0  0  0
   -8.3760    5.1090  -10.8110 C   0  0  0  0  0  0  0  0  0  0  0  0
 18 17  2  0
 19 17  1  0
 20 19  1  0
 20 28  2  0
 28 27  1  0
 27 26  2  0
 26 22  1  0
 22 21  2  0
 21 20  1  0
 23 22  1  0
 24 23  1  0
 25 24  1  0
 26 25  1  0
 17 16  1  0
 16  3  1  0
  3  2  2  0
  2  1  1  0
  4  2  1  0
  5  4  2  0
  5 15  1  0
 15  8  1  0
  9  8  1  0
  9 14  2  0
 14 13  1  0
 13 12  2  0
 12 11  1  0
 11 10  2  0
 10  9  1  0
  8  7  2  0
  7  6  1  0
 16  6  2  0
  6  5  1  0
M  END
$$$$
