XX01ZVNS2B-x4978_B_203_5_XX01ZVNS2B-x4590+B+203+1__LIG
     RDKit          3D

 34 39  0  0  0  0  0  0  0  0999 V2000
  -10.4350    4.0630  -17.6710 F   0  0  0  0  0  0  0  0  0  0  0  0
   -9.2550    4.3920  -17.0760 C   0  0  0  0  0  0  0  0  0  0  0  0
   -8.2050    4.7240  -17.8940 C   0  0  0  0  0  0  0  0  0  0  0  0
   -7.0200    5.0260  -17.2450 C   0  0  0  0  0  0  0  0  0  0  0  0
   -6.8690    5.0020  -15.8610 C   0  0  0  0  0  0  0  0  0  0  0  0
   -5.5430    5.2590  -15.5050 N   0  0  0  0  0  0  0  0  0  0  0  0
   -5.7780    5.3550  -17.7450 N   0  0  0  0  0  0  0  0  0  0  0  0
   -5.6020    5.7080  -19.1590 C   0  0  0  0  0  0  0  0  0  0  0  0
   -4.3600    5.3130  -19.9700 C   0  0  0  0  0  0  0  0  0  0  0  0
   -4.6760    6.5320  -20.7610 N   0  0  0  0  0  0  0  0  0  0  0  0
   -5.2720    7.1590  -19.5580 C   0  0  0  0  0  0  0  0  0  0  0  0
   -4.9200    5.4330  -16.6560 C   0  0  0  0  0  0  0  0  0  0  0  0
   -3.4530    5.5630  -16.7220 C   0  0  0  0  0  0  0  0  0  0  0  0
   -2.7530    5.9900  -15.6050 C   0  0  0  0  0  0  0  0  0  0  0  0
   -1.3990    6.2270  -15.7460 C   0  0  0  0  0  0  0  0  0  0  0  0
   -2.8560    5.3390  -17.8960 N   0  0  0  0  0  0  0  0  0  0  0  0
   -1.5350    5.5690  -18.0400 N   0  0  0  0  0  0  0  0  0  0  0  0
   -0.8500    6.0030  -17.0090 C   0  0  0  0  0  0  0  0  0  0  0  0
    0.4670    6.2480  -17.1580 O   0  0  0  0  0  0  0  0  0  0  0  0
    0.8410    7.3560  -17.9770 C   0  0  0  0  0  0  0  0  0  0  0  0
   -9.1830    4.3760  -15.6930 C   0  0  0  0  0  0  0  0  0  0  0  0
   -7.9790    4.7100  -15.0580 C   0  0  0  0  0  0  0  0  0  0  0  0
   -7.9120    4.9460  -13.5770 C   0  0  0  0  0  0  0  0  0  0  0  0
   -7.2140    5.8530  -13.1290 O   0  0  0  0  0  0  0  0  0  0  0  0
   -8.6310    4.1000  -12.7870 N   0  0  0  0  0  0  0  0  0  0  0  0
   -8.6690    4.0920  -11.3620 C   0  0  0  0  0  0  0  0  0  0  0  0
   -8.8760    2.8960  -10.6750 C   0  0  0  0  0  0  0  0  0  0  0  0
   -8.9130    2.8820   -9.2820 C   0  0  0  0  0  0  0  0  0  0  0  0
   -9.1680    1.7440   -8.3370 C   0  0  0  0  0  0  0  0  0  0  0  0
   -8.9080    2.3520   -7.0310 N   0  0  0  0  0  0  0  0  0  0  0  0
   -8.8810    3.8150   -7.0990 C   0  0  0  0  0  0  0  0  0  0  0  0
   -8.7430    4.0650   -8.5730 C   0  0  0  0  0  0  0  0  0  0  0  0
   -8.5260    5.2550   -9.2560 C   0  0  0  0  0  0  0  0  0  0  0  0
   -8.4930    5.2710  -10.6410 C   0  0  0  0  0  0  0  0  0  0  0  0
 20 19  1  0
 19 18  1  0
 18 15  1  0
 15 14  2  0
 14 13  1  0
 13 12  1  0
 12  6  2  0
  6  5  1  0
  5 22  2  0
 23 22  1  0
 24 23  2  0
 25 23  1  0
 26 25  1  0
 26 34  2  0
 34 33  1  0
 33 32  2  0
 32 28  1  0
 28 27  2  0
 27 26  1  0
 29 28  1  0
 30 29  1  0
 31 30  1  0
 32 31  1  0
 22 21  1  0
 21  2  2  0
  2  1  1  0
  3  2  1  0
  4  3  2  0
  5  4  1  0
  7  4  1  0
 12  7  1  0
  8  7  1  0
  8 11  1  0
 11 10  1  0
 10  9  1  0
  9  8  1  0
 16 13  2  0
 17 16  1  0
 18 17  2  0
M  END
$$$$
