A71EV2A-x4292_A_201_1_A71EV2A-x0911+A+147+1__LIG
     RDKit          3D

 22 23  0  0  0  0  0  0  0  0999 V2000
    9.7760   10.8880   22.9470 F   0  0  0  0  0  0  0  0  0  0  0  0
    9.4540   10.1280   23.9990 C   0  0  0  0  0  0  0  0  0  0  0  0
   10.5310   10.1030   24.7700 F   0  0  0  0  0  0  0  0  0  0  0  0
    9.3200    8.8700   23.5200 F   0  0  0  0  0  0  0  0  0  0  0  0
    8.2330   10.6300   24.7360 C   0  0  0  0  0  0  0  0  0  0  0  0
    7.2600    9.7130   25.1130 C   0  0  0  0  0  0  0  0  0  0  0  0
    6.1660   10.1650   25.8340 C   0  0  0  0  0  0  0  0  0  0  0  0
    5.9730   11.4420   26.1700 N   0  0  0  0  0  0  0  0  0  0  0  0
    6.9060   12.3110   25.7850 C   0  0  0  0  0  0  0  0  0  0  0  0
    8.0450   11.9780   25.0760 C   0  0  0  0  0  0  0  0  0  0  0  0
    9.0750   13.0260   24.7100 C   0  0  0  0  0  0  0  0  0  0  0  0
    8.7970   13.6520   23.3530 C   0  0  0  0  0  0  0  0  0  0  0  0
    7.8530   13.2900   22.6740 O   0  0  0  0  0  0  0  0  0  0  0  0
    9.6220   14.6430   22.9510 N   0  0  0  0  0  0  0  0  0  0  0  0
   10.6740   15.2680   23.7640 C   0  0  0  0  0  0  0  0  0  0  0  0
   12.0340   15.0880   23.1020 C   0  0  0  0  0  0  0  0  0  0  0  0
   12.0130   15.5640   21.6430 C   0  0  0  0  0  0  0  0  0  0  0  0
    9.5220   15.2060   21.6000 C   0  0  0  0  0  0  0  0  0  0  0  0
   10.8320   14.9660   20.8360 C   0  0  1  0  0  0  0  0  0  0  0  0
   10.7520   15.5440   19.4310 C   0  0  0  0  0  0  0  0  0  0  0  0
   10.4080   16.7200   19.2410 O   0  0  0  0  0  0  0  0  0  0  0  0
   11.0050   14.7060   18.4360 N   0  0  0  0  0  0  0  0  0  0  0  0
 22 20  1  0
 21 20  2  0
 19 20  1  6
 19 17  1  0
 17 16  1  0
 16 15  1  0
 15 14  1  0
 14 12  1  0
 13 12  2  0
 12 11  1  0
 11 10  1  0
 10  9  2  0
  9  8  1  0
  8  7  2  0
  7  6  1  0
  6  5  2  0
 10  5  1  0
  5  2  1  0
  3  2  1  0
  4  2  1  0
  2  1  1  0
 18 14  1  0
 19 18  1  0
M  END
$$$$
