XX01ZVNS2B-x0673_B_401_1_XX01ZVNS2B-x4590+B+203+1__LIG
     RDKit          3D

 15 16  0  0  0  0  0  0  0  0999 V2000
  -10.9930    3.8520  -17.9750 O   0  0  0  0  0  0  0  0  0  0  0  0
   -9.7930    4.0050  -17.7970 C   0  0  0  0  0  0  0  0  0  0  0  0
   -8.8600    4.1180  -18.9650 C   0  0  0  0  0  0  0  0  0  0  0  0
   -7.6080    4.9530  -18.6770 C   0  0  0  0  0  0  0  0  0  0  0  0
   -9.2950    4.1230  -16.5780 N   0  0  0  0  0  0  0  0  0  0  0  0
   -8.1060    4.8910  -16.2180 C   0  0  0  0  0  0  0  0  0  0  0  0
   -7.0260    4.7750  -17.2800 C   0  0  2  0  0  0  0  0  0  0  0  0
   -5.9950    5.7780  -17.0280 N   0  0  0  0  0  0  0  0  0  0  0  0
   -4.9890    5.5670  -16.1710 C   0  0  0  0  0  0  0  0  0  0  0  0
   -5.1440    5.4510  -14.9520 O   0  0  0  0  0  0  0  0  0  0  0  0
   -3.6520    5.4560  -16.7990 C   0  0  0  0  0  0  0  0  0  0  0  0
   -3.5190    4.9830  -18.0950 N   0  0  0  0  0  0  0  0  0  0  0  0
   -2.2620    4.9840  -18.4280 C   0  0  0  0  0  0  0  0  0  0  0  0
   -1.1770    5.5420  -17.2320 S   0  0  0  0  0  0  0  0  0  0  0  0
   -2.4940    5.8000  -16.1860 C   0  0  0  0  0  0  0  0  0  0  0  0
 10  9  2  0
  9  8  1  0
  7  8  1  1
  7  4  1  0
  4  3  1  0
  3  2  1  0
  2  1  2  0
  5  2  1  0
  6  5  1  0
  7  6  1  0
 11  9  1  0
 11 15  2  0
 15 14  1  0
 14 13  1  0
 13 12  2  0
 12 11  1  0
M  END
$$$$
