A71EV2A-x4489_C_201_1_A71EV2A-x0911+A+147+1__LIG
     RDKit          3D

 19 20  0  0  0  0  0  0  0  0999 V2000
    7.8530   13.3190   22.6200 O   0  0  0  0  0  0  0  0  0  0  0  0
    8.8250   13.6770   23.2820 C   0  0  0  0  0  0  0  0  0  0  0  0
    9.5810   14.7410   22.9360 N   0  0  0  0  0  0  0  0  0  0  0  0
   10.6130   15.3850   23.7620 C   0  0  0  0  0  0  0  0  0  0  0  0
   11.9800   15.2660   23.1010 C   0  0  0  0  0  0  0  0  0  0  0  0
   11.9340   15.7700   21.6560 C   0  0  0  0  0  0  0  0  0  0  0  0
    9.4820   15.2840   21.5790 C   0  0  0  0  0  0  0  0  0  0  0  0
   10.8150   15.0660   20.8650 C   0  0  1  0  0  0  0  0  0  0  0  0
   10.7510   15.5590   19.4320 C   0  0  0  0  0  0  0  0  0  0  0  0
   10.4260   16.7270   19.1810 O   0  0  0  0  0  0  0  0  0  0  0  0
   11.0090   14.6470   18.4910 N   0  0  0  0  0  0  0  0  0  0  0  0
    9.2810   12.9490   24.5360 C   0  0  0  0  0  0  0  0  0  0  0  0
    8.3060   11.8810   24.9770 C   0  0  0  0  0  0  0  0  0  0  0  0
    8.4620   10.4960   24.6460 C   0  0  0  0  0  0  0  0  0  0  0  0
    9.4440   10.0730   23.8430 N   0  0  0  0  0  0  0  0  0  0  0  0
    7.6500    9.5500   25.1670 N   0  0  0  0  0  0  0  0  0  0  0  0
    6.6980    9.9320   26.0350 C   0  0  0  0  0  0  0  0  0  0  0  0
    6.4810   11.2330   26.4050 C   0  0  0  0  0  0  0  0  0  0  0  0
    7.2810   12.2140   25.8580 C   0  0  0  0  0  0  0  0  0  0  0  0
 11  9  1  0
 10  9  2  0
  8  9  1  6
  8  6  1  0
  6  5  1  0
  5  4  1  0
  4  3  1  0
  3  2  1  0
  2  1  2  0
 12  2  1  0
 13 12  1  0
 13 19  2  0
 19 18  1  0
 18 17  2  0
 17 16  1  0
 16 14  2  0
 14 13  1  0
 15 14  1  0
  7  3  1  0
  8  7  1  0
M  END
$$$$
