XX01ZVNS2B-x4169_B_203_2_XX01ZVNS2B-x4590+B+203+1__LIG
     RDKit          3D

 28 32  0  0  0  0  0  0  0  0999 V2000
   -9.7620    3.7290  -17.6780 F   0  0  0  0  0  0  0  0  0  0  0  0
   -8.6880    4.1840  -16.9930 C   0  0  0  0  0  0  0  0  0  0  0  0
   -8.7250    4.2430  -15.6220 C   0  0  0  0  0  0  0  0  0  0  0  0
   -7.5670    4.5420  -17.7180 C   0  0  0  0  0  0  0  0  0  0  0  0
   -6.4130    4.9610  -17.0310 C   0  0  0  0  0  0  0  0  0  0  0  0
   -5.4010    5.1990  -18.0250 C   0  0  0  0  0  0  0  0  0  0  0  0
   -3.9670    5.5700  -17.7580 C   0  0  0  0  0  0  0  0  0  0  0  0
   -3.8360    6.8950  -16.9920 C   0  0  0  0  0  0  0  0  0  0  0  0
   -2.3740    7.1880  -16.7120 C   0  0  0  0  0  0  0  0  0  0  0  0
   -1.6180    7.2720  -17.9770 N   0  0  0  0  0  0  0  0  0  0  0  0
   -1.6840    5.9930  -18.7370 C   0  0  0  0  0  0  0  0  0  0  0  0
   -3.1280    5.6240  -19.0450 C   0  0  0  0  0  0  0  0  0  0  0  0
   -5.9830    4.9430  -19.2330 C   0  0  0  0  0  0  0  0  0  0  0  0
   -7.2830    4.5470  -19.0600 N   0  0  0  0  0  0  0  0  0  0  0  0
   -6.4400    5.0250  -15.6370 C   0  0  0  0  0  0  0  0  0  0  0  0
   -7.5890    4.6710  -14.9340 C   0  0  0  0  0  0  0  0  0  0  0  0
   -7.5080    4.8000  -13.4460 C   0  0  0  0  0  0  0  0  0  0  0  0
   -6.6140    5.4600  -12.9210 O   0  0  0  0  0  0  0  0  0  0  0  0
   -8.4490    4.1340  -12.7390 N   0  0  0  0  0  0  0  0  0  0  0  0
   -8.5480    4.0880  -11.3270 C   0  0  0  0  0  0  0  0  0  0  0  0
   -8.7870    2.8950  -10.6510 C   0  0  0  0  0  0  0  0  0  0  0  0
   -8.8490    2.8800   -9.2610 C   0  0  0  0  0  0  0  0  0  0  0  0
   -9.1460    1.7390   -8.3350 C   0  0  0  0  0  0  0  0  0  0  0  0
   -8.9420    2.3530   -7.0300 N   0  0  0  0  0  0  0  0  0  0  0  0
   -8.7640    3.7950   -7.0700 C   0  0  0  0  0  0  0  0  0  0  0  0
   -8.6500    4.0510   -8.5430 C   0  0  0  0  0  0  0  0  0  0  0  0
   -8.3990    5.2390   -9.2190 C   0  0  0  0  0  0  0  0  0  0  0  0
   -8.3590    5.2610  -10.6020 C   0  0  0  0  0  0  0  0  0  0  0  0
 18 17  2  0
 19 17  1  0
 20 19  1  0
 20 28  2  0
 28 27  1  0
 27 26  2  0
 26 22  1  0
 22 21  2  0
 21 20  1  0
 23 22  1  0
 24 23  1  0
 25 24  1  0
 26 25  1  0
 17 16  1  0
 16  3  1  0
  3  2  2  0
  2  1  1  0
  4  2  1  0
  4 14  1  0
 14 13  1  0
 13  6  2  0
  7  6  1  0
  7 12  1  0
 12 11  1  0
 11 10  1  0
 10  9  1  0
  9  8  1  0
  8  7  1  0
  6  5  1  0
  5  4  2  0
 15  5  1  0
 16 15  2  0
M  END
$$$$
