XX01ZVNS2B-x4983_B_203_5_XX01ZVNS2B-x4590+B+203+1__LIG
     RDKit          3D

 23 26  0  0  0  0  0  0  0  0999 V2000
  -10.2180    3.8490  -17.9990 F   0  0  0  0  0  0  0  0  0  0  0  0
   -9.0430    4.2580  -17.4530 C   0  0  0  0  0  0  0  0  0  0  0  0
   -8.9720    4.4020  -16.0790 C   0  0  0  0  0  0  0  0  0  0  0  0
   -8.0080    4.5520  -18.3100 C   0  0  0  0  0  0  0  0  0  0  0  0
   -6.8500    5.0440  -17.7320 C   0  0  0  0  0  0  0  0  0  0  0  0
   -5.6630    5.4170  -18.2950 N   0  0  0  0  0  0  0  0  0  0  0  0
   -5.2940    5.4080  -19.7110 C   0  0  0  0  0  0  0  0  0  0  0  0
   -5.2010    6.7840  -20.3980 C   0  0  0  0  0  0  0  0  0  0  0  0
   -4.0140    6.2510  -21.1080 N   0  0  0  0  0  0  0  0  0  0  0  0
   -3.8000    5.2340  -20.0530 C   0  0  0  0  0  0  0  0  0  0  0  0
   -4.7730    5.8400  -17.3470 N   0  0  0  0  0  0  0  0  0  0  0  0
   -5.3920    5.7380  -16.1880 C   0  0  0  0  0  0  0  0  0  0  0  0
   -6.7110    5.2380  -16.3480 C   0  0  0  0  0  0  0  0  0  0  0  0
   -7.7970    4.9080  -15.5160 C   0  0  0  0  0  0  0  0  0  0  0  0
   -7.7070    5.1250  -14.0340 C   0  0  0  0  0  0  0  0  0  0  0  0
   -7.0260    6.0410  -13.5800 O   0  0  0  0  0  0  0  0  0  0  0  0
   -8.3790    4.2410  -13.2550 N   0  0  0  0  0  0  0  0  0  0  0  0
   -8.4480    4.2220  -11.8530 C   0  0  0  0  0  0  0  0  0  0  0  0
   -8.3910    3.0000  -11.3000 N   0  0  0  0  0  0  0  0  0  0  0  0
   -8.4260    2.9210   -9.9610 C   0  0  0  0  0  0  0  0  0  0  0  0
   -8.5120    4.0190   -9.1320 C   0  0  0  0  0  0  0  0  0  0  0  0
   -8.5640    5.2660   -9.7110 C   0  0  0  0  0  0  0  0  0  0  0  0
   -8.5370    5.3920  -11.0890 C   0  0  0  0  0  0  0  0  0  0  0  0
 16 15  2  0
 17 15  1  0
 18 17  1  0
 18 23  2  0
 23 22  1  0
 22 21  2  0
 21 20  1  0
 20 19  2  0
 19 18  1  0
 15 14  1  0
 14  3  1  0
  3  2  2  0
  2  1  1  0
  4  2  1  0
  5  4  2  0
  5 13  1  0
 14 13  2  0
 13 12  1  0
 12 11  2  0
 11  6  1  0
  6  5  1  0
  7  6  1  0
  7 10  1  0
 10  9  1  0
  9  8  1  0
  8  7  1  0
M  END
$$$$
