A71EV2A-x4742_C_201_1_A71EV2A-x0911+A+147+1__LIG
     RDKit          3D

 21 23  0  0  0  0  0  0  0  0999 V2000
    7.9960   13.1370   22.8060 O   0  0  0  0  0  0  0  0  0  0  0  0
    8.9330   13.5680   23.4670 C   0  0  0  0  0  0  0  0  0  0  0  0
    9.7390   14.5490   22.9980 N   0  0  0  0  0  0  0  0  0  0  0  0
   10.7710   15.2690   23.7670 C   0  0  0  0  0  0  0  0  0  0  0  0
   12.1290   15.2090   23.0630 C   0  0  0  0  0  0  0  0  0  0  0  0
   12.0150   15.6760   21.6080 C   0  0  0  0  0  0  0  0  0  0  0  0
    9.5980   15.0420   21.6230 C   0  0  0  0  0  0  0  0  0  0  0  0
   10.9190   14.9000   20.8580 C   0  0  1  0  0  0  0  0  0  0  0  0
   10.7490   15.4120   19.4370 C   0  0  0  0  0  0  0  0  0  0  0  0
   10.4140   16.5830   19.2170 O   0  0  0  0  0  0  0  0  0  0  0  0
   10.9610   14.5260   18.4710 N   0  0  0  0  0  0  0  0  0  0  0  0
    9.1640   13.0520   24.8880 C   0  0  1  0  0  0  0  0  0  0  0  0
    7.8690   12.5340   25.4850 C   0  0  0  0  0  0  0  0  0  0  0  0
    6.9640   13.4290   26.0530 C   0  0  0  0  0  0  0  0  0  0  0  0
    5.7890   12.9840   26.6350 C   0  0  0  0  0  0  0  0  0  0  0  0
    5.4950   11.6420   26.6610 C   0  0  0  0  0  0  0  0  0  0  0  0
    6.3680   10.7280   26.0950 C   0  0  0  0  0  0  0  0  0  0  0  0
    7.5520   11.1730   25.5060 C   0  0  0  0  0  0  0  0  0  0  0  0
    8.6070    9.9000   24.8990 S   0  0  0  0  0  0  0  0  0  0  0  0
    9.9680   10.7670   24.0880 C   0  0  0  0  0  0  0  0  0  0  0  0
   10.3100   11.9970   24.9170 C   0  0  0  0  0  0  0  0  0  0  0  0
 11  9  1  0
 10  9  2  0
  8  9  1  6
  8  6  1  0
  6  5  1  0
  5  4  1  0
  4  3  1  0
  3  2  1  0
  2  1  2  0
 12  2  1  6
 12 21  1  0
 21 20  1  0
 20 19  1  0
 19 18  1  0
 18 17  1  0
 17 16  2  0
 16 15  1  0
 15 14  2  0
 14 13  1  0
 18 13  2  0
 13 12  1  0
  7  3  1  0
  8  7  1  0
M  END
$$$$
