A71EV2A-x3480_A_201_1_A71EV2A-x0911+A+147+1__LIG
     RDKit          3D

 21 22  0  0  0  0  0  0  0  0999 V2000
   10.2330   16.5100   19.0590 O   0  0  0  0  0  0  0  0  0  0  0  0
   10.6410   15.3730   19.3280 C   0  0  0  0  0  0  0  0  0  0  0  0
   11.0840   14.5360   18.4080 N   0  0  0  0  0  0  0  0  0  0  0  0
   10.6050   14.8410   20.7500 C   0  0  1  0  0  0  0  0  0  0  0  0
   11.6500   15.5060   21.6750 C   0  0  0  0  0  0  0  0  0  0  0  0
   11.6570   14.7960   23.0300 C   0  0  0  0  0  0  0  0  0  0  0  0
   10.2710   14.8560   23.6710 C   0  0  0  0  0  0  0  0  0  0  0  0
    9.2400   14.9990   21.4160 C   0  0  0  0  0  0  0  0  0  0  0  0
    9.2460   14.3600   22.7370 N   0  0  0  0  0  0  0  0  0  0  0  0
    8.1970   13.5910   23.1310 C   0  0  0  0  0  0  0  0  0  0  0  0
    7.3820   13.2040   22.3220 O   0  0  0  0  0  0  0  0  0  0  0  0
    8.0870   13.3640   24.4750 N   0  0  0  0  0  0  0  0  0  0  0  0
    7.1300   12.5960   25.1810 C   0  0  0  0  0  0  0  0  0  0  0  0
    7.3480   11.2330   25.2970 C   0  0  0  0  0  0  0  0  0  0  0  0
    6.5750   10.4900   26.1700 C   0  0  0  0  0  0  0  0  0  0  0  0
    5.6000   11.1010   26.9400 C   0  0  0  0  0  0  0  0  0  0  0  0
    6.1220   13.1980   25.9280 C   0  0  0  0  0  0  0  0  0  0  0  0
    5.3610   12.4620   26.8300 C   0  0  0  0  0  0  0  0  0  0  0  0
    4.3170   13.1490   27.6890 C   0  0  0  0  0  0  0  0  0  0  0  0
    2.9610   13.0560   27.1490 C   0  0  0  0  0  0  0  0  0  0  0  0
    1.8940   12.9950   26.7530 N   0  0  0  0  0  0  0  0  0  0  0  0
 21 20  3  0
 20 19  1  0
 19 18  1  0
 18 16  2  0
 16 15  1  0
 15 14  2  0
 14 13  1  0
 13 12  1  0
 12 10  1  0
 11 10  2  0
 10  9  1  0
  9  7  1  0
  7  6  1  0
  6  5  1  0
  5  4  1  0
  4  2  1  6
  3  2  1  0
  2  1  2  0
  8  4  1  0
  9  8  1  0
 17 13  2  0
 18 17  1  0
M  END
$$$$
