ver_1.2
     RDKit          3D

 20 20  0  0  0  0  0  0  0  0999 V2000
   -6.2150   -0.2769   -0.4477 C   0  0  0  0  0  0  0  0  0  0  0  0
   -5.3302    0.9538   -0.4671 C   0  0  0  0  0  0  0  0  0  0  0  0
   -3.9884    0.4910   -0.2723 O   0  0  0  0  0  0  0  0  0  0  0  0
   -3.4124   -0.3975   -1.1678 C   0  0  0  0  0  0  0  0  0  0  0  0
   -4.1060   -0.7718   -2.1395 O   0  0  0  0  0  0  0  0  0  0  0  0
   -2.0080   -0.9053   -0.9972 C   0  0  0  0  0  0  0  0  0  0  0  0
   -2.0862   -2.3004   -0.9182 F   0  0  0  0  0  0  0  0  0  0  0  0
   -1.2927   -0.5672   -2.1258 F   0  0  0  0  0  0  0  0  0  0  0  0
   -1.4963   -0.3184    0.1608 O   0  0  0  0  0  0  0  0  0  0  0  0
   -0.2266   -0.5242    0.6747 C   0  0  0  0  0  0  0  0  0  0  0  0
    0.5560   -1.2975    0.0737 O   0  0  0  0  0  0  0  0  0  0  0  0
    0.1233    0.1995    1.9240 C   0  0  0  0  0  0  0  0  0  0  0  0
    1.4481   -0.1365    2.2882 O   0  0  0  0  0  0  0  0  0  0  0  0
    2.5339    0.1170    1.4624 C   0  0  0  0  0  0  0  0  0  0  0  0
    2.4520    0.7052    0.2337 C   0  0  0  0  0  0  0  0  0  0  0  0
    3.5818    0.9320   -0.5470 C   0  0  0  0  0  0  0  0  0  0  0  0
    4.8237    0.5569   -0.0779 C   0  0  0  0  0  0  0  0  0  0  0  0
    5.9713    0.7336   -0.7567 F   0  0  0  0  0  0  0  0  0  0  0  0
    4.8968   -0.0384    1.1684 C   0  0  0  0  0  0  0  0  0  0  0  0
    3.7749   -0.2579    1.9314 C   0  0  0  0  0  0  0  0  0  0  0  0
  1  2  1  0
  2  3  1  0
  3  4  1  0
  4  5  2  0
  4  6  1  0
  6  7  1  0
  6  8  1  0
  6  9  1  0
  9 10  1  0
 10 11  2  0
 10 12  1  0
 12 13  1  0
 13 14  1  0
 14 15  2  0
 15 16  1  0
 16 17  2  0
 17 18  1  0
 17 19  1  0
 19 20  2  0
 20 14  1  0
M  END
>  <ref_url>  (1) 
https://hippo.winokan.com

>  <submitter_name>  (1) 
Max Winokan

>  <submitter_email>  (1) 
max.winokan@diamond.ac.uk

>  <submitter_institution>  (1) 
DLS

>  <generation_date>  (1) 
2025-12-10

>  <method>  (1) 
openbind_d68ev3c_c2_elabs_scored_top80percent_despaghettified_products

>  <exports>  (1) 
exports

>  <gnina_score>  (1) 
gnina_score

>  <gnina_score_min>  (1) 
gnina_score_min

>  <smina_score_min>  (1) 
smina_score_min

>  <rmsd(smina/fragmenstein)>  (1) 
rmsd(smina/fragmenstein)

>  <HIPPO Pose ID>  (1) 
HIPPO Pose ID

>  <HIPPO Compound ID>  (1) 
HIPPO Compound ID

>  <smiles>  (1) 
smiles

>  <ref_pdb>  (1) 
protein reference

>  <ref_mols>  (1) 
fragment inspirations

>  <alias>  (1) 
alias

>  <distance_score>  (1) 
distance_score

>  <energy_score>  (1) 
energy_score

>  <inspiration_score>  (1) 
inspiration_score

>  <subsites>  (1) 
subsites

>  <tags>  (1) 
tags

$$$$
P75802
     RDKit          3D

 20 20  0  0  0  0  0  0  0  0999 V2000
   13.1609    4.3151    9.7635 C   0  0  0  0  0  0  0  0  0  0  0  0
   13.1385    5.3805   10.8428 C   0  0  0  0  0  0  0  0  0  0  0  0
   12.7241    4.8045   12.0915 O   0  0  0  0  0  0  0  0  0  0  0  0
   11.3740    4.7867   12.3289 C   0  0  0  0  0  0  0  0  0  0  0  0
   10.5280    5.2064   11.5467 O   0  0  0  0  0  0  0  0  0  0  0  0
   11.0802    4.1643   13.7162 C   0  0  0  0  0  0  0  0  0  0  0  0
    9.7528    3.8852   13.8942 F   0  0  0  0  0  0  0  0  0  0  0  0
   11.3927    5.0523   14.7065 F   0  0  0  0  0  0  0  0  0  0  0  0
   11.8056    2.9876   14.0185 O   0  0  0  0  0  0  0  0  0  0  0  0
   11.4944    1.9453   13.2135 C   0  0  0  0  0  0  0  0  0  0  0  0
   10.6924    1.9909   12.2861 O   0  0  0  0  0  0  0  0  0  0  0  0
   12.3069    0.7132   13.5689 C   0  0  0  0  0  0  0  0  0  0  0  0
   12.4102    0.5977   14.9868 O   0  0  0  0  0  0  0  0  0  0  0  0
   12.5180   -0.6853   15.4376 C   0  0  0  0  0  0  0  0  0  0  0  0
   13.5555   -0.9553   16.3315 C   0  0  0  0  0  0  0  0  0  0  0  0
   13.6814   -2.2282   16.8875 C   0  0  0  0  0  0  0  0  0  0  0  0
   12.7551   -3.2091   16.5586 C   0  0  0  0  0  0  0  0  0  0  0  0
   12.8589   -4.4271   17.1030 F   0  0  0  0  0  0  0  0  0  0  0  0
   11.7190   -2.9456   15.6702 C   0  0  0  0  0  0  0  0  0  0  0  0
   11.5863   -1.6738   15.1217 C   0  0  0  0  0  0  0  0  0  0  0  0
  1  2  1  0
  2  3  1  0
  3  4  1  0
  4  5  2  0
  4  6  1  0
  6  7  1  0
  6  8  1  0
  6  9  1  0
  9 10  1  0
 10 11  2  0
 10 12  1  0
 12 13  1  0
 13 14  1  0
 14 15  2  0
 15 16  1  0
 16 17  2  0
 17 18  1  0
 17 19  1  0
 19 20  2  0
 20 14  1  0
M  END
>  <ref_mols>  (1) 
7gpa-a

>  <gnina_score>  (1) 
3.637

>  <smina_score_min>  (1) 
-4.131

>  <ref_pdb>  (1) 
7gpa-a

>  <inspiration_score>  (1) 
None

>  <inchikey>  (1) 
GYXJEJRVOMVTBK-UHFFFAOYSA-N

>  <tags>  (1) 
BulkDock Fragalysis export,openbind_d68ev3c_c2_elabs_scored,openbind_d68ev3c_c2_elabs,openbind_d68ev3c_c2_elabs_scored_top80percent_despaghettified,syndirella_product,openbind_d68ev3c_c2_elabs_scored_top80percent,syndirella_placed

>  <smiles>  (1) 
CCOC(=O)C(F)(F)OC(=O)COc1ccc(F)cc1

>  <subsites>  (1) 
None

>  <rmsd(smina/fragmenstein)>  (1) 
1.067

>  <alias>  (1) 
None

>  <energy_score>  (1) 
-25.789002

>  <HIPPO Pose ID>  (1) 
75802

>  <distance_score>  (1) 
0.694259

>  <HIPPO Compound ID>  (1) 
112986

>  <gnina_score_min>  (1) 
3.607

>  <name>  (1) 
P75802

>  <exports>  (1) 
['/opt/xchem-fragalysis-2/maxwin/BulkDock/OUTPUTS/openbind_d68ev3c_c2_elabs_1LOTQJ3.sdf', '/opt/xchem-fragalysis-2/maxwin/BulkDock/OUTPUTS/openbind_d68ev3c_c2_elabs_1LSYEHW.sdf', '/opt/xchem-fragalysis-2/maxwin/BulkDock/OUTPUTS/openbind_d68ev3c_c2_elabs_1LSYI5W.sdf']

$$$$
P76303
     RDKit          3D

 21 21  0  0  0  0  0  0  0  0999 V2000
   12.3143    4.8510   12.6494 C   0  0  0  0  0  0  0  0  0  0  0  0
   11.5226    4.4444   13.8882 C   0  0  2  0  0  0  0  0  0  0  0  0
   11.7057    3.0482   14.1863 O   0  0  0  0  0  0  0  0  0  0  0  0
   11.1601    2.1304   13.3479 C   0  0  0  0  0  0  0  0  0  0  0  0
   10.5704    2.3877   12.3017 O   0  0  0  0  0  0  0  0  0  0  0  0
   11.2814    0.7168   13.8928 C   0  0  0  0  0  0  0  0  0  0  0  0
   12.3324    0.5372   14.8346 O   0  0  0  0  0  0  0  0  0  0  0  0
   12.4384   -0.7184   15.3716 C   0  0  0  0  0  0  0  0  0  0  0  0
   11.5790   -1.7862   15.1058 C   0  0  0  0  0  0  0  0  0  0  0  0
   11.7727   -3.0141   15.7323 C   0  0  0  0  0  0  0  0  0  0  0  0
   12.8236   -3.1799   16.6218 C   0  0  0  0  0  0  0  0  0  0  0  0
   12.9919   -4.3651   17.2207 F   0  0  0  0  0  0  0  0  0  0  0  0
   13.7011   -2.1372   16.8832 C   0  0  0  0  0  0  0  0  0  0  0  0
   13.5030   -0.9021   16.2602 C   0  0  0  0  0  0  0  0  0  0  0  0
   10.0543    4.8956   13.8233 C   0  0  0  0  0  0  0  0  0  0  0  0
    9.0932    4.1456   13.9309 O   0  0  0  0  0  0  0  0  0  0  0  0
    9.9887    6.2483   13.6832 O   0  0  0  0  0  0  0  0  0  0  0  0
    8.7096    6.9369   13.6833 C   0  0  0  0  0  0  0  0  0  0  0  0
    7.9656    6.7336   15.0080 C   0  0  0  0  0  0  0  0  0  0  0  0
    7.8572    6.5252   12.4794 C   0  0  0  0  0  0  0  0  0  0  0  0
    9.0685    8.4243   13.5456 C   0  0  0  0  0  0  0  0  0  0  0  0
  2  1  1  6
  2  3  1  0
  3  4  1  0
  4  5  2  0
  4  6  1  0
  6  7  1  0
  7  8  1  0
  8  9  2  0
  9 10  1  0
 10 11  2  0
 11 12  1  0
 11 13  1  0
 13 14  2  0
  2 15  1  0
 15 16  2  0
 15 17  1  0
 17 18  1  0
 18 19  1  0
 18 20  1  0
 18 21  1  0
 14  8  1  0
M  END
>  <ref_mols>  (2) 
7gpa-a

>  <gnina_score>  (2) 
3.68

>  <smina_score_min>  (2) 
-4.243

>  <ref_pdb>  (2) 
7gpa-a

>  <inspiration_score>  (2) 
None

>  <inchikey>  (2) 
IMYYQYAAPVFEBL-JTQLQIEISA-N

>  <tags>  (2) 
BulkDock Fragalysis export,openbind_d68ev3c_c2_elabs_scored,openbind_d68ev3c_c2_elabs,openbind_d68ev3c_c2_elabs_scored_top80percent_despaghettified,syndirella_product,openbind_d68ev3c_c2_elabs_scored_top80percent,syndirella_placed

>  <smiles>  (2) 
C[C@H](OC(=O)COc1ccc(F)cc1)C(=O)OC(C)(C)C

>  <subsites>  (2) 
None

>  <rmsd(smina/fragmenstein)>  (2) 
1.353

>  <alias>  (2) 
None

>  <energy_score>  (2) 
-28.645848

>  <HIPPO Pose ID>  (2) 
76303

>  <distance_score>  (2) 
0.761242

>  <HIPPO Compound ID>  (2) 
113315

>  <gnina_score_min>  (2) 
3.708

>  <name>  (2) 
P76303

>  <exports>  (2) 
['/opt/xchem-fragalysis-2/maxwin/BulkDock/OUTPUTS/openbind_d68ev3c_c2_elabs_1LOTQJ3.sdf', '/opt/xchem-fragalysis-2/maxwin/BulkDock/OUTPUTS/openbind_d68ev3c_c2_elabs_1LSYEHW.sdf', '/opt/xchem-fragalysis-2/maxwin/BulkDock/OUTPUTS/openbind_d68ev3c_c2_elabs_1LSYI5W.sdf']

$$$$
P76800
     RDKit          3D

 22 22  0  0  0  0  0  0  0  0999 V2000
    9.2465    7.2119   17.9065 C   0  0  0  0  0  0  0  0  0  0  0  0
    9.9091    6.0310   17.4517 O   0  0  0  0  0  0  0  0  0  0  0  0
   10.1242    6.0024   16.1154 C   0  0  0  0  0  0  0  0  0  0  0  0
    9.8472    6.8730   15.3100 O   0  0  0  0  0  0  0  0  0  0  0  0
   10.7998    4.7318   15.7989 C   0  0  0  0  0  0  0  0  0  0  0  0
   10.7321    4.1033   14.6154 C   0  0  0  0  0  0  0  0  0  0  0  0
   11.6089    2.9971   14.4219 O   0  0  0  0  0  0  0  0  0  0  0  0
   11.3139    1.9967   13.5332 C   0  0  0  0  0  0  0  0  0  0  0  0
   10.2958    1.8992   12.8576 O   0  0  0  0  0  0  0  0  0  0  0  0
   12.4597    0.9984   13.5029 C   0  0  0  0  0  0  0  0  0  0  0  0
   12.9135    0.6992   14.8206 O   0  0  0  0  0  0  0  0  0  0  0  0
   12.7429   -0.5702   15.2882 C   0  0  0  0  0  0  0  0  0  0  0  0
   11.7262   -1.4451   14.9070 C   0  0  0  0  0  0  0  0  0  0  0  0
   11.6627   -2.7233   15.4655 C   0  0  0  0  0  0  0  0  0  0  0  0
   12.5942   -3.1051   16.4245 C   0  0  0  0  0  0  0  0  0  0  0  0
   12.5236   -4.3260   16.9668 F   0  0  0  0  0  0  0  0  0  0  0  0
   13.5993   -2.2384   16.8263 C   0  0  0  0  0  0  0  0  0  0  0  0
   13.6667   -0.9656   16.2618 C   0  0  0  0  0  0  0  0  0  0  0  0
    9.8803    4.5938   13.4944 C   0  0  0  0  0  0  0  0  0  0  0  0
   10.2687    4.6951   12.3407 O   0  0  0  0  0  0  0  0  0  0  0  0
    8.6194    4.8155   13.9429 O   0  0  0  0  0  0  0  0  0  0  0  0
    7.7709    5.5146   13.0282 C   0  0  0  0  0  0  0  0  0  0  0  0
  1  2  1  0
  2  3  1  0
  3  4  2  0
  3  5  1  0
  5  6  2  0
  6  7  1  0
  7  8  1  0
  8  9  2  0
  8 10  1  0
 10 11  1  0
 11 12  1  0
 12 13  2  0
 13 14  1  0
 14 15  2  0
 15 16  1  0
 15 17  1  0
 17 18  2  0
  6 19  1  0
 19 20  2  0
 19 21  1  0
 21 22  1  0
 18 12  1  0
M  END
>  <ref_mols>  (3) 
7gpa-a

>  <gnina_score>  (3) 
3.744

>  <smina_score_min>  (3) 
-4.45

>  <ref_pdb>  (3) 
7gpa-a

>  <inspiration_score>  (3) 
None

>  <inchikey>  (3) 
YCIFUPUSLKNJFH-YRNVUSSQSA-N

>  <tags>  (3) 
BulkDock Fragalysis export,openbind_d68ev3c_c2_elabs_scored,openbind_d68ev3c_c2_elabs,openbind_d68ev3c_c2_elabs_scored_top80percent_despaghettified,syndirella_product,openbind_d68ev3c_c2_elabs_scored_top80percent,syndirella_placed

>  <smiles>  (3) 
COC(=O)/C=C(/OC(=O)COc1ccc(F)cc1)C(=O)OC

>  <subsites>  (3) 
None

>  <rmsd(smina/fragmenstein)>  (3) 
1.541

>  <alias>  (3) 
None

>  <energy_score>  (3) 
-53.796595

>  <HIPPO Pose ID>  (3) 
76800

>  <distance_score>  (3) 
0.634599

>  <HIPPO Compound ID>  (3) 
113663

>  <gnina_score_min>  (3) 
3.726

>  <name>  (3) 
P76800

>  <exports>  (3) 
['/opt/xchem-fragalysis-2/maxwin/BulkDock/OUTPUTS/openbind_d68ev3c_c2_elabs_1LOTQJ3.sdf', '/opt/xchem-fragalysis-2/maxwin/BulkDock/OUTPUTS/openbind_d68ev3c_c2_elabs_1LSYEHW.sdf', '/opt/xchem-fragalysis-2/maxwin/BulkDock/OUTPUTS/openbind_d68ev3c_c2_elabs_1LSYI5W.sdf']

$$$$
P76903
     RDKit          3D

 22 22  0  0  0  0  0  0  0  0999 V2000
   11.0621    5.9748   12.1691 C   0  0  0  0  0  0  0  0  0  0  0  0
   11.4073    5.0736   13.2232 O   0  0  0  0  0  0  0  0  0  0  0  0
   10.4447    4.1616   13.5159 C   0  0  0  0  0  0  0  0  0  0  0  0
    9.4005    4.0030   12.8939 O   0  0  0  0  0  0  0  0  0  0  0  0
   10.8743    3.2980   14.7068 C   0  0  1  0  0  0  0  0  0  0  0  0
   10.1354    3.7344   15.9636 C   0  0  0  0  0  0  0  0  0  0  0  0
   10.6579    5.3477   16.4855 S   0  0  0  0  0  0  0  0  0  0  0  0
    9.8800    5.5588   18.0677 C   0  0  0  0  0  0  0  0  0  0  0  0
   10.0803    6.3132   15.5726 O   0  0  0  0  0  0  0  0  0  0  0  0
   12.0912    5.2858   16.6952 O   0  0  0  0  0  0  0  0  0  0  0  0
   10.5167    1.9178   14.4725 O   0  0  0  0  0  0  0  0  0  0  0  0
   11.1201    1.3700   13.3822 C   0  0  0  0  0  0  0  0  0  0  0  0
   10.5442    1.2831   12.3043 O   0  0  0  0  0  0  0  0  0  0  0  0
   12.5445    0.8991   13.6259 C   0  0  0  0  0  0  0  0  0  0  0  0
   12.8564    0.6814   14.9967 O   0  0  0  0  0  0  0  0  0  0  0  0
   12.7435   -0.6088   15.4333 C   0  0  0  0  0  0  0  0  0  0  0  0
   13.6600   -0.9853   16.4188 C   0  0  0  0  0  0  0  0  0  0  0  0
   13.6319   -2.2742   16.9482 C   0  0  0  0  0  0  0  0  0  0  0  0
   12.6664   -3.1680   16.5082 C   0  0  0  0  0  0  0  0  0  0  0  0
   12.6283   -4.4007   17.0262 F   0  0  0  0  0  0  0  0  0  0  0  0
   11.7426   -2.8034   15.5350 C   0  0  0  0  0  0  0  0  0  0  0  0
   11.7761   -1.5169   14.9974 C   0  0  0  0  0  0  0  0  0  0  0  0
  1  2  1  0
  2  3  1  0
  3  4  2  0
  3  5  1  0
  5  6  1  1
  6  7  1  0
  7  8  1  0
  7  9  2  0
  7 10  2  0
  5 11  1  0
 11 12  1  0
 12 13  2  0
 12 14  1  0
 14 15  1  0
 15 16  1  0
 16 17  2  0
 17 18  1  0
 18 19  2  0
 19 20  1  0
 19 21  1  0
 21 22  2  0
 22 16  1  0
M  END
>  <ref_mols>  (4) 
7gpa-a

>  <gnina_score>  (4) 
3.806

>  <smina_score_min>  (4) 
-4.081

>  <ref_pdb>  (4) 
7gpa-a

>  <inspiration_score>  (4) 
None

>  <inchikey>  (4) 
GLGBUFUIIKUXMT-LLVKDONJSA-N

>  <tags>  (4) 
BulkDock Fragalysis export,openbind_d68ev3c_c2_elabs_scored,openbind_d68ev3c_c2_elabs,openbind_d68ev3c_c2_elabs_scored_top80percent_despaghettified,syndirella_product,openbind_d68ev3c_c2_elabs_scored_top80percent,syndirella_placed

>  <smiles>  (4) 
COC(=O)[C@@H](CS(C)(=O)=O)OC(=O)COc1ccc(F)cc1

>  <subsites>  (4) 
None

>  <rmsd(smina/fragmenstein)>  (4) 
0.831

>  <alias>  (4) 
None

>  <energy_score>  (4) 
-35.852771

>  <HIPPO Pose ID>  (4) 
76903

>  <distance_score>  (4) 
0.338302

>  <HIPPO Compound ID>  (4) 
113747

>  <gnina_score_min>  (4) 
3.654

>  <name>  (4) 
P76903

>  <exports>  (4) 
['/opt/xchem-fragalysis-2/maxwin/BulkDock/OUTPUTS/openbind_d68ev3c_c2_elabs_1LOTQJ3.sdf', '/opt/xchem-fragalysis-2/maxwin/BulkDock/OUTPUTS/openbind_d68ev3c_c2_elabs_1LSYEHW.sdf', '/opt/xchem-fragalysis-2/maxwin/BulkDock/OUTPUTS/openbind_d68ev3c_c2_elabs_1LSYI5W.sdf']

$$$$
P77180
     RDKit          3D

 22 23  0  0  0  0  0  0  0  0999 V2000
   13.2599    5.2488   14.5157 C   0  0  0  0  0  0  0  0  0  0  0  0
   13.0253    5.0212   13.0531 C   0  0  0  0  0  0  0  0  0  0  0  0
   12.7129    3.8314   12.5214 C   0  0  0  0  0  0  0  0  0  0  0  0
   12.5974    2.6748   13.3067 O   0  0  0  0  0  0  0  0  0  0  0  0
   11.3674    2.0836   13.1909 C   0  0  0  0  0  0  0  0  0  0  0  0
   10.3727    2.5700   12.6516 O   0  0  0  0  0  0  0  0  0  0  0  0
   11.3782    0.6907   13.7960 C   0  0  0  0  0  0  0  0  0  0  0  0
   12.3246    0.5432   14.8494 O   0  0  0  0  0  0  0  0  0  0  0  0
   12.4294   -0.7147   15.3796 C   0  0  0  0  0  0  0  0  0  0  0  0
   11.5669   -1.7779   15.1079 C   0  0  0  0  0  0  0  0  0  0  0  0
   11.7601   -3.0104   15.7254 C   0  0  0  0  0  0  0  0  0  0  0  0
   12.8097   -3.1828   16.6157 C   0  0  0  0  0  0  0  0  0  0  0  0
   12.9753   -4.3711   17.2089 F   0  0  0  0  0  0  0  0  0  0  0  0
   13.6866   -2.1422   16.8865 C   0  0  0  0  0  0  0  0  0  0  0  0
   13.4902   -0.9031   16.2716 C   0  0  0  0  0  0  0  0  0  0  0  0
   12.6190    3.6973   11.0522 C   0  0  0  0  0  0  0  0  0  0  0  0
   12.5288    2.5938   10.5231 O   0  0  0  0  0  0  0  0  0  0  0  0
   12.6727    4.8345   10.3323 O   0  0  0  0  0  0  0  0  0  0  0  0
   12.5549    6.0964   11.0025 C   0  0  0  0  0  0  0  0  0  0  0  0
   11.0767    6.4866   11.0991 C   0  0  0  0  0  0  0  0  0  0  0  0
   13.2939    7.1151   10.1344 C   0  0  0  0  0  0  0  0  0  0  0  0
   13.1535    6.1641   12.3003 O   0  0  0  0  0  0  0  0  0  0  0  0
  1  2  1  0
  2  3  2  0
  3  4  1  0
  4  5  1  0
  5  6  2  0
  5  7  1  0
  7  8  1  0
  8  9  1  0
  9 10  2  0
 10 11  1  0
 11 12  2  0
 12 13  1  0
 12 14  1  0
 14 15  2  0
  3 16  1  0
 16 17  2  0
 16 18  1  0
 18 19  1  0
 19 20  1  0
 19 21  1  0
 19 22  1  0
 22  2  1  0
 15  9  1  0
M  END
>  <ref_mols>  (5) 
7gpa-a

>  <gnina_score>  (5) 
3.756

>  <smina_score_min>  (5) 
-4.591

>  <ref_pdb>  (5) 
7gpa-a

>  <inspiration_score>  (5) 
None

>  <inchikey>  (5) 
WLDDKGGVBKTULR-UHFFFAOYSA-N

>  <tags>  (5) 
BulkDock Fragalysis export,openbind_d68ev3c_c2_elabs_scored,openbind_d68ev3c_c2_elabs,openbind_d68ev3c_c2_elabs_scored_top80percent_despaghettified,syndirella_product,openbind_d68ev3c_c2_elabs_scored_top80percent,syndirella_placed

>  <smiles>  (5) 
CC1=C(OC(=O)COc2ccc(F)cc2)C(=O)OC(C)(C)O1

>  <subsites>  (5) 
None

>  <rmsd(smina/fragmenstein)>  (5) 
2.024

>  <alias>  (5) 
None

>  <energy_score>  (5) 
-30.132851

>  <HIPPO Pose ID>  (5) 
77180

>  <distance_score>  (5) 
0.970502

>  <HIPPO Compound ID>  (5) 
113964

>  <gnina_score_min>  (5) 
3.659

>  <name>  (5) 
P77180

>  <exports>  (5) 
['/opt/xchem-fragalysis-2/maxwin/BulkDock/OUTPUTS/openbind_d68ev3c_c2_elabs_1LOTQJ3.sdf', '/opt/xchem-fragalysis-2/maxwin/BulkDock/OUTPUTS/openbind_d68ev3c_c2_elabs_1LSYEHW.sdf', '/opt/xchem-fragalysis-2/maxwin/BulkDock/OUTPUTS/openbind_d68ev3c_c2_elabs_1LSYI5W.sdf']

$$$$
P86473
     RDKit          3D

 20 22  0  0  0  0  0  0  0  0999 V2000
  -18.8320   -3.0209   20.0675 C   0  0  0  0  0  0  0  0  0  0  0  0
  -20.0758   -2.1778   20.1201 C   0  0  1  0  0  0  0  0  0  0  0  0
  -19.8171   -0.6157   20.8947 Cl  0  0  0  0  0  0  0  0  0  0  0  0
  -20.6736   -2.1286   18.7171 C   0  0  0  0  0  0  0  0  0  0  0  0
  -20.3966   -2.9195   17.9058 O   0  0  0  0  0  0  0  0  0  0  0  0
  -21.6967   -0.9788   18.6814 N   0  0  0  0  0  0  0  0  0  0  0  0
  -22.6655   -0.6158   17.6730 C   0  0  0  0  0  0  0  0  0  0  0  0
  -23.7668   -1.7601   17.5684 C   0  0  0  0  0  0  0  0  0  0  0  0
  -23.8534   -2.7949   18.4373 N   0  0  0  0  0  0  0  0  0  0  0  0
  -24.8963   -3.4767   17.9161 N   0  0  0  0  0  0  0  0  0  0  0  0
  -25.3869   -2.8735   16.7952 C   0  0  0  0  0  0  0  0  0  0  0  0
  -26.4837   -3.3439   16.0091 C   0  0  0  0  0  0  0  0  0  0  0  0
  -26.9879   -2.7444   14.8710 C   0  0  0  0  0  0  0  0  0  0  0  0
  -28.0954   -3.4537   14.3235 C   0  0  0  0  0  0  0  0  0  0  0  0
  -28.3996   -4.5761   15.0602 C   0  0  0  0  0  0  0  0  0  0  0  0
  -27.3517   -4.7692   16.3975 S   0  0  0  0  0  0  0  0  0  0  0  0
  -24.6965   -1.7809   16.5611 N   0  0  0  0  0  0  0  0  0  0  0  0
  -22.0100   -0.2294   16.3214 C   0  0  0  0  0  0  0  0  0  0  0  0
  -22.9592    0.9782   16.2554 C   0  0  0  0  0  0  0  0  0  0  0  0
  -23.1959    0.8263   17.7705 C   0  0  0  0  0  0  0  0  0  0  0  0
  2  1  1  6
  2  3  1  0
  2  4  1  0
  4  5  2  0
  4  6  1  0
  6  7  1  0
  7  8  1  0
  8  9  2  0
  9 10  1  0
 10 11  1  0
 11 12  1  0
 12 13  2  0
 13 14  1  0
 14 15  2  0
 15 16  1  0
 11 17  2  0
  7 18  1  0
 18 19  1  0
 19 20  1  0
 20  7  1  0
 17  8  1  0
 16 12  1  0
M  END
>  <ref_mols>  (6) 
B1159b

>  <gnina_score>  (6) 
4.589

>  <smina_score_min>  (6) 
-3.359

>  <ref_pdb>  (6) 
B1159b

>  <inspiration_score>  (6) 
None

>  <inchikey>  (6) 
ZUEMJAVAVGUIOD-MRVPVSSYSA-N

>  <tags>  (6) 
BulkDock Fragalysis export,openbind_d68ev3c_c2_elabs_scored,openbind_d68ev3c_c2_elabs,openbind_d68ev3c_c2_elabs_scored_top80percent_despaghettified,syndirella_product,openbind_d68ev3c_c2_elabs_scored_top80percent,syndirella_placed

>  <smiles>  (6) 
C[C@@H](Cl)C(=O)NC1(c2n[nH]c(-c3cccs3)n2)CCC1

>  <subsites>  (6) 
None

>  <rmsd(smina/fragmenstein)>  (6) 
1.959

>  <alias>  (6) 
None

>  <energy_score>  (6) 
-32.067197

>  <HIPPO Pose ID>  (6) 
86473

>  <distance_score>  (6) 
0.639751

>  <HIPPO Compound ID>  (6) 
121862

>  <gnina_score_min>  (6) 
4.011

>  <name>  (6) 
P86473

>  <exports>  (6) 
['/opt/xchem-fragalysis-2/maxwin/BulkDock/OUTPUTS/openbind_d68ev3c_c2_elabs_1LOTQJ3.sdf', '/opt/xchem-fragalysis-2/maxwin/BulkDock/OUTPUTS/openbind_d68ev3c_c2_elabs_1LSYEHW.sdf', '/opt/xchem-fragalysis-2/maxwin/BulkDock/OUTPUTS/openbind_d68ev3c_c2_elabs_1LSYI5W.sdf']

$$$$
P86474
     RDKit          3D

 20 22  0  0  0  0  0  0  0  0999 V2000
  -20.9214   -3.8953   17.8413 O   0  0  0  0  0  0  0  0  0  0  0  0
  -20.5635   -2.8867   18.3176 C   0  0  0  0  0  0  0  0  0  0  0  0
  -21.0999   -1.4325   18.1283 N   0  0  0  0  0  0  0  0  0  0  0  0
  -22.2504   -0.9390   17.3849 C   0  0  0  0  0  0  0  0  0  0  0  0
  -23.4926   -1.9305   17.4512 C   0  0  0  0  0  0  0  0  0  0  0  0
  -23.7374   -2.7669   18.4817 N   0  0  0  0  0  0  0  0  0  0  0  0
  -24.8533   -3.3932   18.0447 N   0  0  0  0  0  0  0  0  0  0  0  0
  -25.2502   -2.9265   16.8251 C   0  0  0  0  0  0  0  0  0  0  0  0
  -26.3924   -3.3702   16.0887 C   0  0  0  0  0  0  0  0  0  0  0  0
  -26.8444   -2.8470   14.8919 C   0  0  0  0  0  0  0  0  0  0  0  0
  -28.0140   -3.5045   14.4127 C   0  0  0  0  0  0  0  0  0  0  0  0
  -28.4149   -4.5151   15.2569 C   0  0  0  0  0  0  0  0  0  0  0  0
  -27.3854   -4.6631   16.6146 S   0  0  0  0  0  0  0  0  0  0  0  0
  -24.4155   -1.9894   16.4370 N   0  0  0  0  0  0  0  0  0  0  0  0
  -21.8630   -0.4598   15.9612 C   0  0  0  0  0  0  0  0  0  0  0  0
  -22.7097    0.8032   16.1964 C   0  0  0  0  0  0  0  0  0  0  0  0
  -22.6149    0.5339   17.7091 C   0  0  0  0  0  0  0  0  0  0  0  0
  -19.3650   -2.7922   19.2557 C   0  0  2  0  0  0  0  0  0  0  0  0
  -18.8177   -4.0055   19.5336 F   0  0  0  0  0  0  0  0  0  0  0  0
  -19.8167   -2.0000   20.7821 Cl  0  0  0  0  0  0  0  0  0  0  0  0
  1  2  2  0
  2  3  1  0
  3  4  1  0
  4  5  1  0
  5  6  2  0
  6  7  1  0
  7  8  1  0
  8  9  1  0
  9 10  2  0
 10 11  1  0
 11 12  2  0
 12 13  1  0
  8 14  2  0
  4 15  1  0
 15 16  1  0
 16 17  1  0
  2 18  1  0
 18 19  1  1
 18 20  1  0
 17  4  1  0
 14  5  1  0
 13  9  1  0
M  END
>  <ref_mols>  (7) 
B1159b

>  <gnina_score>  (7) 
4.52

>  <smina_score_min>  (7) 
-3.056

>  <ref_pdb>  (7) 
B1159b

>  <inspiration_score>  (7) 
None

>  <inchikey>  (7) 
WPJJPVAXQWIZSQ-QMMMGPOBSA-N

>  <tags>  (7) 
BulkDock Fragalysis export,openbind_d68ev3c_c2_elabs_scored,openbind_d68ev3c_c2_elabs,openbind_d68ev3c_c2_elabs_scored_top80percent_despaghettified,syndirella_product,openbind_d68ev3c_c2_elabs_scored_top80percent,syndirella_placed

>  <smiles>  (7) 
O=C(NC1(c2n[nH]c(-c3cccs3)n2)CCC1)[C@H](F)Cl

>  <subsites>  (7) 
None

>  <rmsd(smina/fragmenstein)>  (7) 
1.561

>  <alias>  (7) 
None

>  <energy_score>  (7) 
-18.674927

>  <HIPPO Pose ID>  (7) 
86474

>  <distance_score>  (7) 
0.408584

>  <HIPPO Compound ID>  (7) 
121863

>  <gnina_score_min>  (7) 
4.287

>  <name>  (7) 
P86474

>  <exports>  (7) 
['/opt/xchem-fragalysis-2/maxwin/BulkDock/OUTPUTS/openbind_d68ev3c_c2_elabs_1LOTQJ3.sdf', '/opt/xchem-fragalysis-2/maxwin/BulkDock/OUTPUTS/openbind_d68ev3c_c2_elabs_1LSYEHW.sdf', '/opt/xchem-fragalysis-2/maxwin/BulkDock/OUTPUTS/openbind_d68ev3c_c2_elabs_1LSYI5W.sdf']

$$$$
P86476
     RDKit          3D

 20 22  0  0  0  0  0  0  0  0999 V2000
  -19.9000   -2.7916   19.3879 O   0  0  0  0  0  0  0  0  0  0  0  0
  -20.5303   -1.9121   19.8403 C   0  0  0  0  0  0  0  0  0  0  0  0
  -21.5924   -0.9705   19.1663 N   0  0  0  0  0  0  0  0  0  0  0  0
  -22.1602   -0.9913   17.8146 C   0  0  0  0  0  0  0  0  0  0  0  0
  -23.4019   -1.9812   17.6929 C   0  0  0  0  0  0  0  0  0  0  0  0
  -23.6801   -2.9388   18.5984 N   0  0  0  0  0  0  0  0  0  0  0  0
  -24.7916   -3.4923   18.0640 N   0  0  0  0  0  0  0  0  0  0  0  0
  -25.1419   -2.8905   16.8913 C   0  0  0  0  0  0  0  0  0  0  0  0
  -26.2618   -3.2532   16.0782 C   0  0  0  0  0  0  0  0  0  0  0  0
  -26.6585   -2.6395   14.9056 C   0  0  0  0  0  0  0  0  0  0  0  0
  -27.8193   -3.2410   14.3371 C   0  0  0  0  0  0  0  0  0  0  0  0
  -28.2709   -4.2997   15.0920 C   0  0  0  0  0  0  0  0  0  0  0  0
  -27.2994   -4.5603   16.4745 S   0  0  0  0  0  0  0  0  0  0  0  0
  -24.2862   -1.9238   16.6416 N   0  0  0  0  0  0  0  0  0  0  0  0
  -21.1428   -1.1306   16.6592 C   0  0  0  0  0  0  0  0  0  0  0  0
  -21.8153    0.0656   15.9584 C   0  0  0  0  0  0  0  0  0  0  0  0
  -22.4516    0.4488   17.3027 C   0  0  0  0  0  0  0  0  0  0  0  0
  -20.4973   -1.4845   21.3255 C   0  0  0  0  0  0  0  0  0  0  0  0
  -19.7727    0.1182   21.4258 Cl  0  0  0  0  0  0  0  0  0  0  0  0
  -19.5757   -2.5745   22.3673 Cl  0  0  0  0  0  0  0  0  0  0  0  0
  1  2  2  0
  2  3  1  0
  3  4  1  0
  4  5  1  0
  5  6  2  0
  6  7  1  0
  7  8  1  0
  8  9  1  0
  9 10  2  0
 10 11  1  0
 11 12  2  0
 12 13  1  0
  8 14  2  0
  4 15  1  0
 15 16  1  0
 16 17  1  0
  2 18  1  0
 18 19  1  0
 18 20  1  0
 17  4  1  0
 14  5  1  0
 13  9  1  0
M  END
>  <ref_mols>  (8) 
B1159b

>  <gnina_score>  (8) 
4.777

>  <smina_score_min>  (8) 
-3.857

>  <ref_pdb>  (8) 
B1159b

>  <inspiration_score>  (8) 
None

>  <inchikey>  (8) 
KLRVMKNVKFQGSS-UHFFFAOYSA-N

>  <tags>  (8) 
BulkDock Fragalysis export,openbind_d68ev3c_c2_elabs_scored,openbind_d68ev3c_c2_elabs,openbind_d68ev3c_c2_elabs_scored_top80percent_despaghettified,syndirella_product,openbind_d68ev3c_c2_elabs_scored_top80percent,syndirella_placed

>  <smiles>  (8) 
O=C(NC1(c2n[nH]c(-c3cccs3)n2)CCC1)C(Cl)Cl

>  <subsites>  (8) 
None

>  <rmsd(smina/fragmenstein)>  (8) 
1.824

>  <alias>  (8) 
None

>  <energy_score>  (8) 
-25.478604

>  <HIPPO Pose ID>  (8) 
86476

>  <distance_score>  (8) 
1.025109

>  <HIPPO Compound ID>  (8) 
121864

>  <gnina_score_min>  (8) 
4.038

>  <name>  (8) 
P86476

>  <exports>  (8) 
['/opt/xchem-fragalysis-2/maxwin/BulkDock/OUTPUTS/openbind_d68ev3c_c2_elabs_1LOTQJ3.sdf', '/opt/xchem-fragalysis-2/maxwin/BulkDock/OUTPUTS/openbind_d68ev3c_c2_elabs_1LSYEHW.sdf', '/opt/xchem-fragalysis-2/maxwin/BulkDock/OUTPUTS/openbind_d68ev3c_c2_elabs_1LSYI5W.sdf']

$$$$
P86477
     RDKit          3D

 20 22  0  0  0  0  0  0  0  0999 V2000
  -18.8306   -3.0665   20.2221 C   0  0  0  0  0  0  0  0  0  0  0  0
  -19.7995   -2.1889   19.9738 C   0  0  0  0  0  0  0  0  0  0  0  0
  -20.2733   -1.0902   21.2024 Cl  0  0  0  0  0  0  0  0  0  0  0  0
  -20.5426   -2.3153   18.6774 C   0  0  0  0  0  0  0  0  0  0  0  0
  -20.3747   -3.2214   17.9649 O   0  0  0  0  0  0  0  0  0  0  0  0
  -21.5400   -1.1519   18.5898 N   0  0  0  0  0  0  0  0  0  0  0  0
  -22.4865   -0.8003   17.5518 C   0  0  0  0  0  0  0  0  0  0  0  0
  -23.6465   -1.8871   17.4870 C   0  0  0  0  0  0  0  0  0  0  0  0
  -23.8007   -2.8724   18.4001 N   0  0  0  0  0  0  0  0  0  0  0  0
  -24.8819   -3.5115   17.9073 N   0  0  0  0  0  0  0  0  0  0  0  0
  -25.3361   -2.9280   16.7609 C   0  0  0  0  0  0  0  0  0  0  0  0
  -26.4609   -3.3640   15.9946 C   0  0  0  0  0  0  0  0  0  0  0  0
  -26.9460   -2.7692   14.8458 C   0  0  0  0  0  0  0  0  0  0  0  0
  -28.0886   -3.4402   14.3224 C   0  0  0  0  0  0  0  0  0  0  0  0
  -28.4375   -4.5303   15.0871 C   0  0  0  0  0  0  0  0  0  0  0  0
  -27.3903   -4.7384   16.4228 S   0  0  0  0  0  0  0  0  0  0  0  0
  -24.5790   -1.8915   16.4807 N   0  0  0  0  0  0  0  0  0  0  0  0
  -22.9670    0.6675   17.6024 C   0  0  0  0  0  0  0  0  0  0  0  0
  -22.7232    0.7616   16.0850 C   0  0  0  0  0  0  0  0  0  0  0  0
  -21.8182   -0.4781   16.1923 C   0  0  0  0  0  0  0  0  0  0  0  0
  1  2  2  0
  2  3  1  0
  2  4  1  0
  4  5  2  0
  4  6  1  0
  6  7  1  0
  7  8  1  0
  8  9  2  0
  9 10  1  0
 10 11  1  0
 11 12  1  0
 12 13  2  0
 13 14  1  0
 14 15  2  0
 15 16  1  0
 11 17  2  0
  7 18  1  0
 18 19  1  0
 19 20  1  0
 20  7  1  0
 17  8  1  0
 16 12  1  0
M  END
>  <ref_mols>  (9) 
B1159b

>  <gnina_score>  (9) 
4.573

>  <smina_score_min>  (9) 
-2.838

>  <ref_pdb>  (9) 
B1159b

>  <inspiration_score>  (9) 
None

>  <inchikey>  (9) 
OFKJMPGBWDHIKB-UHFFFAOYSA-N

>  <tags>  (9) 
BulkDock Fragalysis export,openbind_d68ev3c_c2_elabs_scored,openbind_d68ev3c_c2_elabs_scored_4.5plus,openbind_d68ev3c_c2_elabs,openbind_d68ev3c_c2_elabs_scored_top80percent_despaghettified,syndirella_product,openbind_d68ev3c_c2_elabs_scored_top80percent,syndirella_placed

>  <smiles>  (9) 
C=C(Cl)C(=O)NC1(c2n[nH]c(-c3cccs3)n2)CCC1

>  <subsites>  (9) 
None

>  <rmsd(smina/fragmenstein)>  (9) 
2.641

>  <alias>  (9) 
None

>  <energy_score>  (9) 
-25.04464

>  <HIPPO Pose ID>  (9) 
86477

>  <distance_score>  (9) 
0.480917

>  <HIPPO Compound ID>  (9) 
121865

>  <gnina_score_min>  (9) 
4.516

>  <name>  (9) 
P86477

>  <exports>  (9) 
['/opt/xchem-fragalysis-2/maxwin/BulkDock/OUTPUTS/openbind_d68ev3c_c2_elabs_1LOTQJ3.sdf', '/opt/xchem-fragalysis-2/maxwin/BulkDock/OUTPUTS/openbind_d68ev3c_c2_elabs_1LSYEHW.sdf', '/opt/xchem-fragalysis-2/maxwin/BulkDock/OUTPUTS/openbind_d68ev3c_c2_elabs_1LSYI5W.sdf']

$$$$
P86478
     RDKit          3D

 21 23  0  0  0  0  0  0  0  0999 V2000
  -21.2650   -3.9944   17.8931 O   0  0  0  0  0  0  0  0  0  0  0  0
  -20.7240   -3.0053   18.2204 C   0  0  0  0  0  0  0  0  0  0  0  0
  -21.0968   -1.5072   17.9498 N   0  0  0  0  0  0  0  0  0  0  0  0
  -22.2642   -0.9265   17.3025 C   0  0  0  0  0  0  0  0  0  0  0  0
  -23.5420   -1.8662   17.4160 C   0  0  0  0  0  0  0  0  0  0  0  0
  -23.8098   -2.6437   18.4871 N   0  0  0  0  0  0  0  0  0  0  0  0
  -24.9269   -3.2795   18.0676 N   0  0  0  0  0  0  0  0  0  0  0  0
  -25.3022   -2.8717   16.8203 C   0  0  0  0  0  0  0  0  0  0  0  0
  -26.4367   -3.3419   16.0889 C   0  0  0  0  0  0  0  0  0  0  0  0
  -26.8770   -2.8594   14.8708 C   0  0  0  0  0  0  0  0  0  0  0  0
  -28.0406   -3.5344   14.4020 C   0  0  0  0  0  0  0  0  0  0  0  0
  -28.4477   -4.5181   15.2745 C   0  0  0  0  0  0  0  0  0  0  0  0
  -27.4315   -4.6195   16.6465 S   0  0  0  0  0  0  0  0  0  0  0  0
  -24.4534   -1.9635   16.3964 N   0  0  0  0  0  0  0  0  0  0  0  0
  -21.9430   -0.4015   15.8796 C   0  0  0  0  0  0  0  0  0  0  0  0
  -22.7299    0.8770   16.2179 C   0  0  0  0  0  0  0  0  0  0  0  0
  -22.5396    0.5451   17.7093 C   0  0  0  0  0  0  0  0  0  0  0  0
  -19.4682   -2.9868   19.0963 C   0  0  0  0  0  0  0  0  0  0  0  0
  -18.9853   -4.2320   19.3556 F   0  0  0  0  0  0  0  0  0  0  0  0
  -18.4832   -2.3360   18.4474 F   0  0  0  0  0  0  0  0  0  0  0  0
  -19.7979   -2.1476   20.6357 Cl  0  0  0  0  0  0  0  0  0  0  0  0
  1  2  2  0
  2  3  1  0
  3  4  1  0
  4  5  1  0
  5  6  2  0
  6  7  1  0
  7  8  1  0
  8  9  1  0
  9 10  2  0
 10 11  1  0
 11 12  2  0
 12 13  1  0
  8 14  2  0
  4 15  1  0
 15 16  1  0
 16 17  1  0
  2 18  1  0
 18 19  1  0
 18 20  1  0
 18 21  1  0
 17  4  1  0
 14  5  1  0
 13  9  1  0
M  END
>  <ref_mols>  (10) 
B1159b

>  <gnina_score>  (10) 
4.816

>  <smina_score_min>  (10) 
-2.145

>  <ref_pdb>  (10) 
B1159b

>  <inspiration_score>  (10) 
None

>  <inchikey>  (10) 
NOSKPDVGMYNRKD-UHFFFAOYSA-N

>  <tags>  (10) 
BulkDock Fragalysis export,openbind_d68ev3c_c2_elabs_scored,openbind_d68ev3c_c2_elabs_scored_4.5plus,openbind_d68ev3c_c2_elabs,openbind_d68ev3c_c2_elabs_scored_top80percent_despaghettified,syndirella_product,openbind_d68ev3c_c2_elabs_scored_top80percent,syndirella_placed

>  <smiles>  (10) 
O=C(NC1(c2n[nH]c(-c3cccs3)n2)CCC1)C(F)(F)Cl

>  <subsites>  (10) 
None

>  <rmsd(smina/fragmenstein)>  (10) 
1.399

>  <alias>  (10) 
None

>  <energy_score>  (10) 
-24.373655

>  <HIPPO Pose ID>  (10) 
86478

>  <distance_score>  (10) 
0.517919

>  <HIPPO Compound ID>  (10) 
121866

>  <gnina_score_min>  (10) 
4.711

>  <name>  (10) 
P86478

>  <exports>  (10) 
['/opt/xchem-fragalysis-2/maxwin/BulkDock/OUTPUTS/openbind_d68ev3c_c2_elabs_1LOTQJ3.sdf', '/opt/xchem-fragalysis-2/maxwin/BulkDock/OUTPUTS/openbind_d68ev3c_c2_elabs_1LSYEHW.sdf', '/opt/xchem-fragalysis-2/maxwin/BulkDock/OUTPUTS/openbind_d68ev3c_c2_elabs_1LSYI5W.sdf']

$$$$
P86479
     RDKit          3D

 21 23  0  0  0  0  0  0  0  0999 V2000
  -19.4364   -1.8883   16.9957 O   0  0  0  0  0  0  0  0  0  0  0  0
  -20.1611   -1.9016   17.9146 C   0  0  0  0  0  0  0  0  0  0  0  0
  -21.6105   -1.3323   18.0701 N   0  0  0  0  0  0  0  0  0  0  0  0
  -22.4822   -0.7246   17.1036 C   0  0  0  0  0  0  0  0  0  0  0  0
  -23.7440   -1.7081   17.0968 C   0  0  0  0  0  0  0  0  0  0  0  0
  -23.9242   -2.6190   18.0872 N   0  0  0  0  0  0  0  0  0  0  0  0
  -25.0274   -3.2530   17.6535 N   0  0  0  0  0  0  0  0  0  0  0  0
  -25.4610   -2.7476   16.4637 C   0  0  0  0  0  0  0  0  0  0  0  0
  -26.5968   -3.2237   15.7420 C   0  0  0  0  0  0  0  0  0  0  0  0
  -27.0966   -2.7000   14.5667 C   0  0  0  0  0  0  0  0  0  0  0  0
  -28.2473   -3.4008   14.1045 C   0  0  0  0  0  0  0  0  0  0  0  0
  -28.5855   -4.4420   14.9392 C   0  0  0  0  0  0  0  0  0  0  0  0
  -27.5197   -4.5692   16.2688 S   0  0  0  0  0  0  0  0  0  0  0  0
  -24.6732   -1.7594   16.0973 N   0  0  0  0  0  0  0  0  0  0  0  0
  -22.8078    0.7574   17.3622 C   0  0  0  0  0  0  0  0  0  0  0  0
  -22.7256    0.9789   15.8392 C   0  0  0  0  0  0  0  0  0  0  0  0
  -21.8977   -0.3186   15.7440 C   0  0  0  0  0  0  0  0  0  0  0  0
  -19.9379   -2.5979   19.2621 C   0  0  0  0  0  0  0  0  0  0  0  0
  -20.6412   -3.7546   19.1198 F   0  0  0  0  0  0  0  0  0  0  0  0
  -18.3911   -3.1520   19.7276 Cl  0  0  0  0  0  0  0  0  0  0  0  0
  -20.5488   -1.6507   20.6556 Cl  0  0  0  0  0  0  0  0  0  0  0  0
  1  2  2  0
  2  3  1  0
  3  4  1  0
  4  5  1  0
  5  6  2  0
  6  7  1  0
  7  8  1  0
  8  9  1  0
  9 10  2  0
 10 11  1  0
 11 12  2  0
 12 13  1  0
  8 14  2  0
  4 15  1  0
 15 16  1  0
 16 17  1  0
  2 18  1  0
 18 19  1  0
 18 20  1  0
 18 21  1  0
 17  4  1  0
 14  5  1  0
 13  9  1  0
M  END
>  <ref_mols>  (11) 
B1159b

>  <gnina_score>  (11) 
4.676

>  <smina_score_min>  (11) 
-2.889

>  <ref_pdb>  (11) 
B1159b

>  <inspiration_score>  (11) 
None

>  <inchikey>  (11) 
OZEUISLJERFIAE-UHFFFAOYSA-N

>  <tags>  (11) 
BulkDock Fragalysis export,openbind_d68ev3c_c2_elabs_scored,openbind_d68ev3c_c2_elabs_scored_4.5plus,openbind_d68ev3c_c2_elabs,openbind_d68ev3c_c2_elabs_scored_top80percent_despaghettified,syndirella_product,openbind_d68ev3c_c2_elabs_scored_top80percent,syndirella_placed

>  <smiles>  (11) 
O=C(NC1(c2n[nH]c(-c3cccs3)n2)CCC1)C(F)(Cl)Cl

>  <subsites>  (11) 
None

>  <rmsd(smina/fragmenstein)>  (11) 
3.079

>  <alias>  (11) 
None

>  <energy_score>  (11) 
-17.017221

>  <HIPPO Pose ID>  (11) 
86479

>  <distance_score>  (11) 
0.763275

>  <HIPPO Compound ID>  (11) 
121867

>  <gnina_score_min>  (11) 
4.782

>  <name>  (11) 
P86479

>  <exports>  (11) 
['/opt/xchem-fragalysis-2/maxwin/BulkDock/OUTPUTS/openbind_d68ev3c_c2_elabs_1LOTQJ3.sdf', '/opt/xchem-fragalysis-2/maxwin/BulkDock/OUTPUTS/openbind_d68ev3c_c2_elabs_1LSYEHW.sdf', '/opt/xchem-fragalysis-2/maxwin/BulkDock/OUTPUTS/openbind_d68ev3c_c2_elabs_1LSYI5W.sdf']

$$$$
P86480
     RDKit          3D

 21 23  0  0  0  0  0  0  0  0999 V2000
  -22.4034   -3.3593   17.9247 O   0  0  0  0  0  0  0  0  0  0  0  0
  -21.6655   -2.4498   18.0074 C   0  0  0  0  0  0  0  0  0  0  0  0
  -21.9151   -0.9176   17.7923 N   0  0  0  0  0  0  0  0  0  0  0  0
  -23.0937   -0.2142   17.3416 C   0  0  0  0  0  0  0  0  0  0  0  0
  -24.3444   -1.1662   17.4162 C   0  0  0  0  0  0  0  0  0  0  0  0
  -24.6898   -1.8157   18.5426 N   0  0  0  0  0  0  0  0  0  0  0  0
  -25.5822   -2.7031   18.0683 N   0  0  0  0  0  0  0  0  0  0  0  0
  -25.7953   -2.5294   16.7322 C   0  0  0  0  0  0  0  0  0  0  0  0
  -26.7327   -3.2505   15.9346 C   0  0  0  0  0  0  0  0  0  0  0  0
  -27.0761   -2.9585   14.6290 C   0  0  0  0  0  0  0  0  0  0  0  0
  -28.0752   -3.8349   14.1197 C   0  0  0  0  0  0  0  0  0  0  0  0
  -28.4477   -4.7811   15.0476 C   0  0  0  0  0  0  0  0  0  0  0  0
  -27.5950   -4.6080   16.5196 S   0  0  0  0  0  0  0  0  0  0  0  0
  -25.0210   -1.5620   16.2950 N   0  0  0  0  0  0  0  0  0  0  0  0
  -23.2764    1.1911   17.9406 C   0  0  0  0  0  0  0  0  0  0  0  0
  -23.5289    1.7167   16.5148 C   0  0  0  0  0  0  0  0  0  0  0  0
  -22.8343    0.4613   15.9700 C   0  0  0  0  0  0  0  0  0  0  0  0
  -20.1719   -2.5971   18.3048 C   0  0  0  0  0  0  0  0  0  0  0  0
  -19.8445   -1.7892   19.8553 Cl  0  0  0  0  0  0  0  0  0  0  0  0
  -19.7811   -4.3007   18.4849 Cl  0  0  0  0  0  0  0  0  0  0  0  0
  -19.3860   -1.9441   16.8577 Cl  0  0  0  0  0  0  0  0  0  0  0  0
  1  2  2  0
  2  3  1  0
  3  4  1  0
  4  5  1  0
  5  6  2  0
  6  7  1  0
  7  8  1  0
  8  9  1  0
  9 10  2  0
 10 11  1  0
 11 12  2  0
 12 13  1  0
  8 14  2  0
  4 15  1  0
 15 16  1  0
 16 17  1  0
  2 18  1  0
 18 19  1  0
 18 20  1  0
 18 21  1  0
 17  4  1  0
 14  5  1  0
 13  9  1  0
M  END
>  <ref_mols>  (12) 
B1159b

>  <gnina_score>  (12) 
4.443

>  <smina_score_min>  (12) 
-3.279

>  <ref_pdb>  (12) 
B1159b

>  <inspiration_score>  (12) 
None

>  <inchikey>  (12) 
BHUKFIVOKPFIKV-UHFFFAOYSA-N

>  <tags>  (12) 
BulkDock Fragalysis export,openbind_d68ev3c_c2_elabs_scored,openbind_d68ev3c_c2_elabs_scored_4.5plus,openbind_d68ev3c_c2_elabs,openbind_d68ev3c_c2_elabs_scored_top80percent_despaghettified,syndirella_product,openbind_d68ev3c_c2_elabs_scored_top80percent,syndirella_placed

>  <smiles>  (12) 
O=C(NC1(c2n[nH]c(-c3cccs3)n2)CCC1)C(Cl)(Cl)Cl

>  <subsites>  (12) 
None

>  <rmsd(smina/fragmenstein)>  (12) 
3.005

>  <alias>  (12) 
None

>  <energy_score>  (12) 
-11.05012

>  <HIPPO Pose ID>  (12) 
86480

>  <distance_score>  (12) 
1.229753

>  <HIPPO Compound ID>  (12) 
121868

>  <gnina_score_min>  (12) 
4.57

>  <name>  (12) 
P86480

>  <exports>  (12) 
['/opt/xchem-fragalysis-2/maxwin/BulkDock/OUTPUTS/openbind_d68ev3c_c2_elabs_1LOTQJ3.sdf', '/opt/xchem-fragalysis-2/maxwin/BulkDock/OUTPUTS/openbind_d68ev3c_c2_elabs_1LSYEHW.sdf', '/opt/xchem-fragalysis-2/maxwin/BulkDock/OUTPUTS/openbind_d68ev3c_c2_elabs_1LSYI5W.sdf']

$$$$
P86481
     RDKit          3D

 21 24  0  0  0  0  0  0  0  0999 V2000
  -22.4826   -3.0407   18.2831 O   0  0  0  0  0  0  0  0  0  0  0  0
  -21.7050   -2.1778   18.3512 C   0  0  0  0  0  0  0  0  0  0  0  0
  -21.7607   -0.7493   17.8142 N   0  0  0  0  0  0  0  0  0  0  0  0
  -22.8330   -0.0328   17.1517 C   0  0  0  0  0  0  0  0  0  0  0  0
  -24.1651   -0.8944   17.2120 C   0  0  0  0  0  0  0  0  0  0  0  0
  -24.6935   -1.3047   18.3785 N   0  0  0  0  0  0  0  0  0  0  0  0
  -25.5628   -2.2388   17.9611 N   0  0  0  0  0  0  0  0  0  0  0  0
  -25.6293   -2.2851   16.5999 C   0  0  0  0  0  0  0  0  0  0  0  0
  -26.5519   -3.0741   15.8479 C   0  0  0  0  0  0  0  0  0  0  0  0
  -26.8418   -2.9263   14.5060 C   0  0  0  0  0  0  0  0  0  0  0  0
  -27.8524   -3.8271   14.0637 C   0  0  0  0  0  0  0  0  0  0  0  0
  -28.2827   -4.6537   15.0769 C   0  0  0  0  0  0  0  0  0  0  0  0
  -27.4728   -4.3376   16.5490 S   0  0  0  0  0  0  0  0  0  0  0  0
  -24.7457   -1.4483   16.0985 N   0  0  0  0  0  0  0  0  0  0  0  0
  -22.9813    1.4417   17.5680 C   0  0  0  0  0  0  0  0  0  0  0  0
  -23.0942    1.7972   16.0731 C   0  0  0  0  0  0  0  0  0  0  0  0
  -22.4117    0.4593   15.7469 C   0  0  0  0  0  0  0  0  0  0  0  0
  -20.3827   -2.4614   18.9598 C   0  0  0  0  0  0  0  0  0  0  0  0
  -20.0595   -1.8595   20.5979 Cl  0  0  0  0  0  0  0  0  0  0  0  0
  -19.7435   -3.7793   18.5785 C   0  0  0  0  0  0  0  0  0  0  0  0
  -19.2398   -2.4967   18.0070 C   0  0  0  0  0  0  0  0  0  0  0  0
  1  2  2  0
  2  3  1  0
  3  4  1  0
  4  5  1  0
  5  6  2  0
  6  7  1  0
  7  8  1  0
  8  9  1  0
  9 10  2  0
 10 11  1  0
 11 12  2  0
 12 13  1  0
  8 14  2  0
  4 15  1  0
 15 16  1  0
 16 17  1  0
  2 18  1  0
 18 19  1  0
 18 20  1  0
 20 21  1  0
 17  4  1  0
 21 18  1  0
 14  5  1  0
 13  9  1  0
M  END
>  <ref_mols>  (13) 
B1159b

>  <gnina_score>  (13) 
4.705

>  <smina_score_min>  (13) 
-1.877

>  <ref_pdb>  (13) 
B1159b

>  <inspiration_score>  (13) 
None

>  <inchikey>  (13) 
OAWVPPZEXCABFU-UHFFFAOYSA-N

>  <tags>  (13) 
BulkDock Fragalysis export,openbind_d68ev3c_c2_elabs_scored,openbind_d68ev3c_c2_elabs_scored_4.5plus,openbind_d68ev3c_c2_elabs,openbind_d68ev3c_c2_elabs_scored_top80percent_despaghettified,syndirella_product,openbind_d68ev3c_c2_elabs_scored_top80percent,syndirella_placed

>  <smiles>  (13) 
O=C(NC1(c2n[nH]c(-c3cccs3)n2)CCC1)C1(Cl)CC1

>  <subsites>  (13) 
None

>  <rmsd(smina/fragmenstein)>  (13) 
2.978

>  <alias>  (13) 
None

>  <energy_score>  (13) 
-15.966953

>  <HIPPO Pose ID>  (13) 
86481

>  <distance_score>  (13) 
1.214485

>  <HIPPO Compound ID>  (13) 
121869

>  <gnina_score_min>  (13) 
4.784

>  <name>  (13) 
P86481

>  <exports>  (13) 
['/opt/xchem-fragalysis-2/maxwin/BulkDock/OUTPUTS/openbind_d68ev3c_c2_elabs_1LOTQJ3.sdf', '/opt/xchem-fragalysis-2/maxwin/BulkDock/OUTPUTS/openbind_d68ev3c_c2_elabs_1LSYEHW.sdf', '/opt/xchem-fragalysis-2/maxwin/BulkDock/OUTPUTS/openbind_d68ev3c_c2_elabs_1LSYI5W.sdf']

$$$$
P86482
     RDKit          3D

 21 23  0  0  0  0  0  0  0  0999 V2000
  -19.7291   -3.9935   18.5106 C   0  0  0  0  0  0  0  0  0  0  0  0
  -20.1280   -2.5624   18.2933 C   0  0  0  0  0  0  0  0  0  0  0  0
  -19.8735   -1.6939   19.8347 Cl  0  0  0  0  0  0  0  0  0  0  0  0
  -19.3462   -1.9142   16.8400 Cl  0  0  0  0  0  0  0  0  0  0  0  0
  -21.6106   -2.4753   17.9593 C   0  0  0  0  0  0  0  0  0  0  0  0
  -22.2988   -3.4123   17.8097 O   0  0  0  0  0  0  0  0  0  0  0  0
  -21.9226   -0.9555   17.7951 N   0  0  0  0  0  0  0  0  0  0  0  0
  -23.1127   -0.2893   17.3232 C   0  0  0  0  0  0  0  0  0  0  0  0
  -24.3427   -1.2659   17.4054 C   0  0  0  0  0  0  0  0  0  0  0  0
  -24.6477   -1.9591   18.5185 N   0  0  0  0  0  0  0  0  0  0  0  0
  -25.5569   -2.8273   18.0426 N   0  0  0  0  0  0  0  0  0  0  0  0
  -25.8127   -2.6066   16.7213 C   0  0  0  0  0  0  0  0  0  0  0  0
  -26.7685   -3.3037   15.9252 C   0  0  0  0  0  0  0  0  0  0  0  0
  -27.1358   -2.9764   14.6346 C   0  0  0  0  0  0  0  0  0  0  0  0
  -28.1454   -3.8379   14.1212 C   0  0  0  0  0  0  0  0  0  0  0  0
  -28.5026   -4.8070   15.0313 C   0  0  0  0  0  0  0  0  0  0  0  0
  -27.6225   -4.6737   16.4913 S   0  0  0  0  0  0  0  0  0  0  0  0
  -25.0581   -1.6200   16.2949 N   0  0  0  0  0  0  0  0  0  0  0  0
  -22.8583    0.3729   15.9438 C   0  0  0  0  0  0  0  0  0  0  0  0
  -23.5788    1.6229   16.4670 C   0  0  0  0  0  0  0  0  0  0  0  0
  -23.3306    1.1202   17.9016 C   0  0  0  0  0  0  0  0  0  0  0  0
  1  2  1  0
  2  3  1  0
  2  4  1  0
  2  5  1  0
  5  6  2  0
  5  7  1  0
  7  8  1  0
  8  9  1  0
  9 10  2  0
 10 11  1  0
 11 12  1  0
 12 13  1  0
 13 14  2  0
 14 15  1  0
 15 16  2  0
 16 17  1  0
 12 18  2  0
  8 19  1  0
 19 20  1  0
 20 21  1  0
 21  8  1  0
 18  9  1  0
 17 13  1  0
M  END
>  <ref_mols>  (14) 
B1159b

>  <gnina_score>  (14) 
4.743

>  <smina_score_min>  (14) 
-3.154

>  <ref_pdb>  (14) 
B1159b

>  <inspiration_score>  (14) 
None

>  <inchikey>  (14) 
HSPLPMXHNIFMHV-UHFFFAOYSA-N

>  <tags>  (14) 
BulkDock Fragalysis export,openbind_d68ev3c_c2_elabs_scored,openbind_d68ev3c_c2_elabs,openbind_d68ev3c_c2_elabs_scored_top80percent_despaghettified,syndirella_product,openbind_d68ev3c_c2_elabs_scored_top80percent,syndirella_placed

>  <smiles>  (14) 
CC(Cl)(Cl)C(=O)NC1(c2n[nH]c(-c3cccs3)n2)CCC1

>  <subsites>  (14) 
None

>  <rmsd(smina/fragmenstein)>  (14) 
2.903

>  <alias>  (14) 
None

>  <energy_score>  (14) 
-24.97255

>  <HIPPO Pose ID>  (14) 
86482

>  <distance_score>  (14) 
1.201963

>  <HIPPO Compound ID>  (14) 
121870

>  <gnina_score_min>  (14) 
4.346

>  <name>  (14) 
P86482

>  <exports>  (14) 
['/opt/xchem-fragalysis-2/maxwin/BulkDock/OUTPUTS/openbind_d68ev3c_c2_elabs_1LOTQJ3.sdf', '/opt/xchem-fragalysis-2/maxwin/BulkDock/OUTPUTS/openbind_d68ev3c_c2_elabs_1LSYEHW.sdf', '/opt/xchem-fragalysis-2/maxwin/BulkDock/OUTPUTS/openbind_d68ev3c_c2_elabs_1LSYI5W.sdf']

$$$$
P86483
     RDKit          3D

 21 23  0  0  0  0  0  0  0  0999 V2000
  -19.1986   -4.3827   18.9922 C   0  0  0  0  0  0  0  0  0  0  0  0
  -20.0443   -3.5040   18.4637 C   0  0  0  0  0  0  0  0  0  0  0  0
  -19.7387   -2.0492   18.6221 C   0  0  2  0  0  0  0  0  0  0  0  0
  -20.1793   -1.5213   20.2665 Cl  0  0  0  0  0  0  0  0  0  0  0  0
  -20.4689   -1.3803   17.4718 C   0  0  0  0  0  0  0  0  0  0  0  0
  -20.0471   -1.3352   16.3839 O   0  0  0  0  0  0  0  0  0  0  0  0
  -21.8283   -0.9206   18.0367 N   0  0  0  0  0  0  0  0  0  0  0  0
  -22.9844   -0.3996   17.3709 C   0  0  0  0  0  0  0  0  0  0  0  0
  -24.0384   -1.5839   17.3441 C   0  0  0  0  0  0  0  0  0  0  0  0
  -24.0049   -2.6168   18.2221 N   0  0  0  0  0  0  0  0  0  0  0  0
  -25.0359   -3.3617   17.7722 N   0  0  0  0  0  0  0  0  0  0  0  0
  -25.5982   -2.8182   16.6550 C   0  0  0  0  0  0  0  0  0  0  0  0
  -26.6799   -3.3730   15.9087 C   0  0  0  0  0  0  0  0  0  0  0  0
  -27.2370   -2.8305   14.7672 C   0  0  0  0  0  0  0  0  0  0  0  0
  -28.3127   -3.6133   14.2613 C   0  0  0  0  0  0  0  0  0  0  0  0
  -28.5386   -4.7316   15.0317 C   0  0  0  0  0  0  0  0  0  0  0  0
  -27.4544   -4.8338   16.3501 S   0  0  0  0  0  0  0  0  0  0  0  0
  -24.9909   -1.6898   16.3717 N   0  0  0  0  0  0  0  0  0  0  0  0
  -23.4905    0.9514   17.8959 C   0  0  0  0  0  0  0  0  0  0  0  0
  -23.6749    1.3951   16.4311 C   0  0  0  0  0  0  0  0  0  0  0  0
  -22.6940    0.2877   16.0170 C   0  0  0  0  0  0  0  0  0  0  0  0
  1  2  2  0
  2  3  1  0
  3  4  1  1
  3  5  1  0
  5  6  2  0
  5  7  1  0
  7  8  1  0
  8  9  1  0
  9 10  2  0
 10 11  1  0
 11 12  1  0
 12 13  1  0
 13 14  2  0
 14 15  1  0
 15 16  2  0
 16 17  1  0
 12 18  2  0
  8 19  1  0
 19 20  1  0
 20 21  1  0
 21  8  1  0
 18  9  1  0
 17 13  1  0
M  END
>  <ref_mols>  (15) 
B1159b

>  <gnina_score>  (15) 
5.017

>  <smina_score_min>  (15) 
-3.347

>  <ref_pdb>  (15) 
B1159b

>  <inspiration_score>  (15) 
None

>  <inchikey>  (15) 
UAOUAEKTHZSYIA-VIFPVBQESA-N

>  <tags>  (15) 
BulkDock Fragalysis export,openbind_d68ev3c_c2_elabs_scored,openbind_d68ev3c_c2_elabs,openbind_d68ev3c_c2_elabs_scored_top80percent_despaghettified,syndirella_product,openbind_d68ev3c_c2_elabs_scored_top80percent,syndirella_placed

>  <smiles>  (15) 
C=C[C@H](Cl)C(=O)NC1(c2n[nH]c(-c3cccs3)n2)CCC1

>  <subsites>  (15) 
None

>  <rmsd(smina/fragmenstein)>  (15) 
2.607

>  <alias>  (15) 
None

>  <energy_score>  (15) 
-34.670327

>  <HIPPO Pose ID>  (15) 
86483

>  <distance_score>  (15) 
1.081214

>  <HIPPO Compound ID>  (15) 
121871

>  <gnina_score_min>  (15) 
4.211

>  <name>  (15) 
P86483

>  <exports>  (15) 
['/opt/xchem-fragalysis-2/maxwin/BulkDock/OUTPUTS/openbind_d68ev3c_c2_elabs_1LOTQJ3.sdf', '/opt/xchem-fragalysis-2/maxwin/BulkDock/OUTPUTS/openbind_d68ev3c_c2_elabs_1LSYEHW.sdf', '/opt/xchem-fragalysis-2/maxwin/BulkDock/OUTPUTS/openbind_d68ev3c_c2_elabs_1LSYI5W.sdf']

$$$$
P86485
     RDKit          3D

 21 23  0  0  0  0  0  0  0  0999 V2000
  -18.8796   -3.2610   19.8150 C   0  0  0  0  0  0  0  0  0  0  0  0
  -19.9388   -2.3573   19.2634 C   0  0  0  0  0  0  0  0  0  0  0  0
  -20.3737   -1.1405   20.1097 C   0  0  2  0  0  0  0  0  0  0  0  0
  -20.3024   -1.4473   21.8616 Cl  0  0  0  0  0  0  0  0  0  0  0  0
  -21.8122   -0.8187   19.6917 C   0  0  0  0  0  0  0  0  0  0  0  0
  -22.7440   -0.8697   20.3925 O   0  0  0  0  0  0  0  0  0  0  0  0
  -21.7138   -0.5338   18.1657 N   0  0  0  0  0  0  0  0  0  0  0  0
  -22.7485   -0.3494   17.1805 C   0  0  0  0  0  0  0  0  0  0  0  0
  -23.7133   -1.6230   17.1328 C   0  0  0  0  0  0  0  0  0  0  0  0
  -23.5737   -2.7262   17.9039 N   0  0  0  0  0  0  0  0  0  0  0  0
  -24.6542   -3.4403   17.5292 N   0  0  0  0  0  0  0  0  0  0  0  0
  -25.3357   -2.8296   16.5189 C   0  0  0  0  0  0  0  0  0  0  0  0
  -26.4955   -3.3432   15.8633 C   0  0  0  0  0  0  0  0  0  0  0  0
  -27.1670   -2.7437   14.8154 C   0  0  0  0  0  0  0  0  0  0  0  0
  -28.2923   -3.5013   14.3827 C   0  0  0  0  0  0  0  0  0  0  0  0
  -28.4439   -4.6568   15.1153 C   0  0  0  0  0  0  0  0  0  0  0  0
  -27.2314   -4.8236   16.3098 S   0  0  0  0  0  0  0  0  0  0  0  0
  -24.7572   -1.6829   16.2454 N   0  0  0  0  0  0  0  0  0  0  0  0
  -22.1823    0.0616   15.7986 C   0  0  0  0  0  0  0  0  0  0  0  0
  -23.2489    1.1657   15.7371 C   0  0  0  0  0  0  0  0  0  0  0  0
  -23.4449    1.0204   17.2568 C   0  0  0  0  0  0  0  0  0  0  0  0
  1  2  1  0
  2  3  1  0
  3  4  1  1
  3  5  1  0
  5  6  2  0
  5  7  1  0
  7  8  1  0
  8  9  1  0
  9 10  2  0
 10 11  1  0
 11 12  1  0
 12 13  1  0
 13 14  2  0
 14 15  1  0
 15 16  2  0
 16 17  1  0
 12 18  2  0
  8 19  1  0
 19 20  1  0
 20 21  1  0
 21  8  1  0
 18  9  1  0
 17 13  1  0
M  END
>  <ref_mols>  (16) 
B1159b

>  <gnina_score>  (16) 
4.683

>  <smina_score_min>  (16) 
-3.27

>  <ref_pdb>  (16) 
B1159b

>  <inspiration_score>  (16) 
None

>  <inchikey>  (16) 
GHNJLGSVWQIYGT-VIFPVBQESA-N

>  <tags>  (16) 
BulkDock Fragalysis export,openbind_d68ev3c_c2_elabs_scored,openbind_d68ev3c_c2_elabs,openbind_d68ev3c_c2_elabs_scored_top80percent_despaghettified,syndirella_product,openbind_d68ev3c_c2_elabs_scored_top80percent,syndirella_placed

>  <smiles>  (16) 
CC[C@H](Cl)C(=O)NC1(c2n[nH]c(-c3cccs3)n2)CCC1

>  <subsites>  (16) 
None

>  <rmsd(smina/fragmenstein)>  (16) 
2.396

>  <alias>  (16) 
None

>  <energy_score>  (16) 
-23.381633

>  <HIPPO Pose ID>  (16) 
86485

>  <distance_score>  (16) 
1.409469

>  <HIPPO Compound ID>  (16) 
121872

>  <gnina_score_min>  (16) 
4.435

>  <name>  (16) 
P86485

>  <exports>  (16) 
['/opt/xchem-fragalysis-2/maxwin/BulkDock/OUTPUTS/openbind_d68ev3c_c2_elabs_1LOTQJ3.sdf', '/opt/xchem-fragalysis-2/maxwin/BulkDock/OUTPUTS/openbind_d68ev3c_c2_elabs_1LSYEHW.sdf', '/opt/xchem-fragalysis-2/maxwin/BulkDock/OUTPUTS/openbind_d68ev3c_c2_elabs_1LSYI5W.sdf']

$$$$
P86486
     RDKit          3D

 21 23  0  0  0  0  0  0  0  0999 V2000
  -19.4191   -2.0164   17.0791 C   0  0  0  0  0  0  0  0  0  0  0  0
  -20.1338   -2.5766   18.2999 C   0  0  0  0  0  0  0  0  0  0  0  0
  -19.7197   -4.0018   18.5479 C   0  0  0  0  0  0  0  0  0  0  0  0
  -19.9023   -1.6925   19.8482 Cl  0  0  0  0  0  0  0  0  0  0  0  0
  -21.6009   -2.5203   17.9258 C   0  0  0  0  0  0  0  0  0  0  0  0
  -22.2290   -3.4651   17.6395 O   0  0  0  0  0  0  0  0  0  0  0  0
  -21.9852   -1.0136   17.9143 N   0  0  0  0  0  0  0  0  0  0  0  0
  -23.1852   -0.3575   17.4589 C   0  0  0  0  0  0  0  0  0  0  0  0
  -24.3898   -1.3639   17.5078 C   0  0  0  0  0  0  0  0  0  0  0  0
  -24.6384   -2.1505   18.5723 N   0  0  0  0  0  0  0  0  0  0  0  0
  -25.5426   -3.0021   18.0584 N   0  0  0  0  0  0  0  0  0  0  0  0
  -25.8463   -2.6870   16.7666 C   0  0  0  0  0  0  0  0  0  0  0  0
  -26.8008   -3.3524   15.9428 C   0  0  0  0  0  0  0  0  0  0  0  0
  -27.1831   -2.9619   14.6742 C   0  0  0  0  0  0  0  0  0  0  0  0
  -28.1846   -3.8091   14.1229 C   0  0  0  0  0  0  0  0  0  0  0  0
  -28.5224   -4.8289   14.9838 C   0  0  0  0  0  0  0  0  0  0  0  0
  -27.6330   -4.7607   16.4426 S   0  0  0  0  0  0  0  0  0  0  0  0
  -25.1348   -1.6472   16.3969 N   0  0  0  0  0  0  0  0  0  0  0  0
  -23.4328    1.0360   18.0602 C   0  0  0  0  0  0  0  0  0  0  0  0
  -23.6735    1.5640   16.6330 C   0  0  0  0  0  0  0  0  0  0  0  0
  -22.9319    0.3349   16.0920 C   0  0  0  0  0  0  0  0  0  0  0  0
  1  2  1  0
  2  3  1  0
  2  4  1  0
  2  5  1  0
  5  6  2  0
  5  7  1  0
  7  8  1  0
  8  9  1  0
  9 10  2  0
 10 11  1  0
 11 12  1  0
 12 13  1  0
 13 14  2  0
 14 15  1  0
 15 16  2  0
 16 17  1  0
 12 18  2  0
  8 19  1  0
 19 20  1  0
 20 21  1  0
 21  8  1  0
 18  9  1  0
 17 13  1  0
M  END
>  <ref_mols>  (17) 
B1159b

>  <gnina_score>  (17) 
4.824

>  <smina_score_min>  (17) 
-2.667

>  <ref_pdb>  (17) 
B1159b

>  <inspiration_score>  (17) 
None

>  <inchikey>  (17) 
PRORXCBNZUINSA-UHFFFAOYSA-N

>  <tags>  (17) 
BulkDock Fragalysis export,openbind_d68ev3c_c2_elabs_scored,openbind_d68ev3c_c2_elabs_scored_4.5plus,openbind_d68ev3c_c2_elabs,openbind_d68ev3c_c2_elabs_scored_top80percent_despaghettified,syndirella_product,openbind_d68ev3c_c2_elabs_scored_top80percent,syndirella_placed

>  <smiles>  (17) 
CC(C)(Cl)C(=O)NC1(c2n[nH]c(-c3cccs3)n2)CCC1

>  <subsites>  (17) 
None

>  <rmsd(smina/fragmenstein)>  (17) 
2.724

>  <alias>  (17) 
None

>  <energy_score>  (17) 
-35.179635

>  <HIPPO Pose ID>  (17) 
86486

>  <distance_score>  (17) 
1.190755

>  <HIPPO Compound ID>  (17) 
121873

>  <gnina_score_min>  (17) 
4.52

>  <name>  (17) 
P86486

>  <exports>  (17) 
['/opt/xchem-fragalysis-2/maxwin/BulkDock/OUTPUTS/openbind_d68ev3c_c2_elabs_1LOTQJ3.sdf', '/opt/xchem-fragalysis-2/maxwin/BulkDock/OUTPUTS/openbind_d68ev3c_c2_elabs_1LSYEHW.sdf', '/opt/xchem-fragalysis-2/maxwin/BulkDock/OUTPUTS/openbind_d68ev3c_c2_elabs_1LSYI5W.sdf']

$$$$
P86488
     RDKit          3D

 22 24  0  0  0  0  0  0  0  0999 V2000
  -16.0333   -4.0028   19.1674 C   0  0  0  0  0  0  0  0  0  0  0  0
  -17.6984   -3.6197   19.6796 C   0  0  0  0  0  0  0  0  0  0  0  0
  -18.7002   -2.7985   18.8251 C   0  0  0  0  0  0  0  0  0  0  0  0
  -19.7884   -1.9131   19.4276 C   0  0  2  0  0  0  0  0  0  0  0  0
  -20.0848   -2.0990   21.1598 Cl  0  0  0  0  0  0  0  0  0  0  0  0
  -21.0657   -2.1743   18.6197 C   0  0  0  0  0  0  0  0  0  0  0  0
  -21.3594   -3.2395   18.2404 O   0  0  0  0  0  0  0  0  0  0  0  0
  -21.7416   -0.8036   18.3808 N   0  0  0  0  0  0  0  0  0  0  0  0
  -22.8714   -0.4427   17.5429 C   0  0  0  0  0  0  0  0  0  0  0  0
  -23.9799   -1.5741   17.5433 C   0  0  0  0  0  0  0  0  0  0  0  0
  -24.1500   -2.4681   18.5388 N   0  0  0  0  0  0  0  0  0  0  0  0
  -25.1348   -3.2363   18.0353 N   0  0  0  0  0  0  0  0  0  0  0  0
  -25.5393   -2.7943   16.8098 C   0  0  0  0  0  0  0  0  0  0  0  0
  -26.5838   -3.3584   16.0164 C   0  0  0  0  0  0  0  0  0  0  0  0
  -27.0370   -2.8695   14.8060 C   0  0  0  0  0  0  0  0  0  0  0  0
  -28.1097   -3.6393   14.2727 C   0  0  0  0  0  0  0  0  0  0  0  0
  -28.4345   -4.6985   15.0896 C   0  0  0  0  0  0  0  0  0  0  0  0
  -27.4482   -4.7596   16.4854 S   0  0  0  0  0  0  0  0  0  0  0  0
  -24.8291   -1.7399   16.4799 N   0  0  0  0  0  0  0  0  0  0  0  0
  -23.3896    0.9965   17.7366 C   0  0  0  0  0  0  0  0  0  0  0  0
  -22.4026    1.4453   16.6366 C   0  0  0  0  0  0  0  0  0  0  0  0
  -22.4054   -0.0061   16.1213 C   0  0  0  0  0  0  0  0  0  0  0  0
  1  2  1  0
  2  3  1  0
  3  4  1  0
  4  5  1  1
  4  6  1  0
  6  7  2  0
  6  8  1  0
  8  9  1  0
  9 10  1  0
 10 11  2  0
 11 12  1  0
 12 13  1  0
 13 14  1  0
 14 15  2  0
 15 16  1  0
 16 17  2  0
 17 18  1  0
 13 19  2  0
  9 20  1  0
 20 21  1  0
 21 22  1  0
 22  9  1  0
 19 10  1  0
 18 14  1  0
M  END
>  <ref_mols>  (18) 
B1159b

>  <gnina_score>  (18) 
4.82

>  <smina_score_min>  (18) 
-1.442

>  <ref_pdb>  (18) 
B1159b

>  <inspiration_score>  (18) 
None

>  <inchikey>  (18) 
QWXNVZPOZKIVJN-JTQLQIEISA-N

>  <tags>  (18) 
BulkDock Fragalysis export,openbind_d68ev3c_c2_elabs_scored,openbind_d68ev3c_c2_elabs_scored_4.5plus,openbind_d68ev3c_c2_elabs,openbind_d68ev3c_c2_elabs_scored_top80percent_despaghettified,openbind_d68ev3c_c2_elabs_scored_5plus,syndirella_product,openbind_d68ev3c_c2_elabs_scored_top80percent,syndirella_placed

>  <smiles>  (18) 
CCC[C@H](Cl)C(=O)NC1(c2n[nH]c(-c3cccs3)n2)CCC1

>  <subsites>  (18) 
None

>  <rmsd(smina/fragmenstein)>  (18) 
3.065

>  <alias>  (18) 
None

>  <energy_score>  (18) 
-11.086313

>  <HIPPO Pose ID>  (18) 
86488

>  <distance_score>  (18) 
0.729248

>  <HIPPO Compound ID>  (18) 
121875

>  <gnina_score_min>  (18) 
5.035

>  <name>  (18) 
P86488

>  <exports>  (18) 
['/opt/xchem-fragalysis-2/maxwin/BulkDock/OUTPUTS/openbind_d68ev3c_c2_elabs_1LOTQJ3.sdf', '/opt/xchem-fragalysis-2/maxwin/BulkDock/OUTPUTS/openbind_d68ev3c_c2_elabs_1LSYEHW.sdf', '/opt/xchem-fragalysis-2/maxwin/BulkDock/OUTPUTS/openbind_d68ev3c_c2_elabs_1LSYI5W.sdf', '/opt/xchem-fragalysis-2/maxwin/openbind-hippo/d68ev3c/cycle_02/gnina/openbind_d68ev3c_c2_elabs_scored_5plus_products.sdf']

$$$$
P86489
     RDKit          3D

 22 24  0  0  0  0  0  0  0  0999 V2000
  -20.4823   -3.2030   17.9066 C   0  0  0  0  0  0  0  0  0  0  0  0
  -19.6379   -2.4313   18.9364 C   0  0  0  0  0  0  0  0  0  0  0  0
  -18.8395   -3.4257   19.7513 C   0  0  0  0  0  0  0  0  0  0  0  0
  -20.3194   -1.2879   19.7647 C   0  0  2  0  0  0  0  0  0  0  0  0
  -20.1543   -1.3787   21.5478 Cl  0  0  0  0  0  0  0  0  0  0  0  0
  -21.7905   -1.1115   19.4171 C   0  0  0  0  0  0  0  0  0  0  0  0
  -22.6831   -1.4186   20.1026 O   0  0  0  0  0  0  0  0  0  0  0  0
  -21.7807   -0.5558   17.9685 N   0  0  0  0  0  0  0  0  0  0  0  0
  -22.8640   -0.3548   17.0337 C   0  0  0  0  0  0  0  0  0  0  0  0
  -23.8502   -1.6121   16.9805 C   0  0  0  0  0  0  0  0  0  0  0  0
  -23.7132   -2.7282   17.7260 N   0  0  0  0  0  0  0  0  0  0  0  0
  -24.7979   -3.4286   17.3644 N   0  0  0  0  0  0  0  0  0  0  0  0
  -25.4891   -2.7986   16.3753 C   0  0  0  0  0  0  0  0  0  0  0  0
  -26.6538   -3.3069   15.7286 C   0  0  0  0  0  0  0  0  0  0  0  0
  -27.3276   -2.7078   14.6831 C   0  0  0  0  0  0  0  0  0  0  0  0
  -28.4560   -3.4646   14.2583 C   0  0  0  0  0  0  0  0  0  0  0  0
  -28.6076   -4.6175   14.9952 C   0  0  0  0  0  0  0  0  0  0  0  0
  -27.3915   -4.7836   16.1851 S   0  0  0  0  0  0  0  0  0  0  0  0
  -24.9108   -1.6483   16.1117 N   0  0  0  0  0  0  0  0  0  0  0  0
  -23.5439    1.0189   17.1800 C   0  0  0  0  0  0  0  0  0  0  0  0
  -23.3961    1.2173   15.6616 C   0  0  0  0  0  0  0  0  0  0  0  0
  -22.3500    0.0933   15.6420 C   0  0  0  0  0  0  0  0  0  0  0  0
  1  2  1  0
  2  3  1  0
  2  4  1  0
  4  5  1  1
  4  6  1  0
  6  7  2  0
  6  8  1  0
  8  9  1  0
  9 10  1  0
 10 11  2  0
 11 12  1  0
 12 13  1  0
 13 14  1  0
 14 15  2  0
 15 16  1  0
 16 17  2  0
 17 18  1  0
 13 19  2  0
  9 20  1  0
 20 21  1  0
 21 22  1  0
 22  9  1  0
 19 10  1  0
 18 14  1  0
M  END
>  <ref_mols>  (19) 
B1159b

>  <gnina_score>  (19) 
4.901

>  <smina_score_min>  (19) 
-2.697

>  <ref_pdb>  (19) 
B1159b

>  <inspiration_score>  (19) 
None

>  <inchikey>  (19) 
CEYVBRYASBKOQD-NSHDSACASA-N

>  <tags>  (19) 
BulkDock Fragalysis export,openbind_d68ev3c_c2_elabs_scored,openbind_d68ev3c_c2_elabs_scored_4.5plus,openbind_d68ev3c_c2_elabs,openbind_d68ev3c_c2_elabs_scored_top80percent_despaghettified,syndirella_product,openbind_d68ev3c_c2_elabs_scored_top80percent,syndirella_placed

>  <smiles>  (19) 
CC(C)[C@H](Cl)C(=O)NC1(c2n[nH]c(-c3cccs3)n2)CCC1

>  <subsites>  (19) 
None

>  <rmsd(smina/fragmenstein)>  (19) 
2.888

>  <alias>  (19) 
None

>  <energy_score>  (19) 
-17.221925

>  <HIPPO Pose ID>  (19) 
86489

>  <distance_score>  (19) 
1.349407

>  <HIPPO Compound ID>  (19) 
121876

>  <gnina_score_min>  (19) 
4.636

>  <name>  (19) 
P86489

>  <exports>  (19) 
['/opt/xchem-fragalysis-2/maxwin/BulkDock/OUTPUTS/openbind_d68ev3c_c2_elabs_1LOTQJ3.sdf', '/opt/xchem-fragalysis-2/maxwin/BulkDock/OUTPUTS/openbind_d68ev3c_c2_elabs_1LSYEHW.sdf', '/opt/xchem-fragalysis-2/maxwin/BulkDock/OUTPUTS/openbind_d68ev3c_c2_elabs_1LSYI5W.sdf']

$$$$
P86491
     RDKit          3D

 22 25  0  0  0  0  0  0  0  0999 V2000
  -23.1205   -2.7333   18.6101 O   0  0  0  0  0  0  0  0  0  0  0  0
  -22.4169   -1.7970   18.6756 C   0  0  0  0  0  0  0  0  0  0  0  0
  -22.6081   -0.3602   18.1383 N   0  0  0  0  0  0  0  0  0  0  0  0
  -23.6582    0.2049   17.3260 C   0  0  0  0  0  0  0  0  0  0  0  0
  -24.8698   -0.7898   17.2705 C   0  0  0  0  0  0  0  0  0  0  0  0
  -25.4754   -1.2275   18.3857 N   0  0  0  0  0  0  0  0  0  0  0  0
  -26.1315   -2.3014   17.9234 N   0  0  0  0  0  0  0  0  0  0  0  0
  -26.0481   -2.3820   16.5653 C   0  0  0  0  0  0  0  0  0  0  0  0
  -26.8061   -3.2688   15.7482 C   0  0  0  0  0  0  0  0  0  0  0  0
  -26.9901   -3.1505   14.3856 C   0  0  0  0  0  0  0  0  0  0  0  0
  -27.8812   -4.1340   13.8730 C   0  0  0  0  0  0  0  0  0  0  0  0
  -28.3205   -4.9917   14.8562 C   0  0  0  0  0  0  0  0  0  0  0  0
  -27.6585   -4.6091   16.3846 S   0  0  0  0  0  0  0  0  0  0  0  0
  -25.2257   -1.4547   16.1267 N   0  0  0  0  0  0  0  0  0  0  0  0
  -23.0812    0.6281   15.9439 C   0  0  0  0  0  0  0  0  0  0  0  0
  -23.8555    1.9434   16.0844 C   0  0  0  0  0  0  0  0  0  0  0  0
  -23.9644    1.6807   17.5987 C   0  0  0  0  0  0  0  0  0  0  0  0
  -21.0027   -1.9619   19.2978 C   0  0  0  0  0  0  0  0  0  0  0  0
  -20.8927   -1.7274   21.0861 Cl  0  0  0  0  0  0  0  0  0  0  0  0
  -19.9553   -1.1399   18.5933 C   0  0  0  0  0  0  0  0  0  0  0  0
  -19.0382   -2.3486   18.6147 C   0  0  0  0  0  0  0  0  0  0  0  0
  -20.2702   -3.2077   18.6401 C   0  0  0  0  0  0  0  0  0  0  0  0
  1  2  2  0
  2  3  1  0
  3  4  1  0
  4  5  1  0
  5  6  2  0
  6  7  1  0
  7  8  1  0
  8  9  1  0
  9 10  2  0
 10 11  1  0
 11 12  2  0
 12 13  1  0
  8 14  2  0
  4 15  1  0
 15 16  1  0
 16 17  1  0
  2 18  1  0
 18 19  1  0
 18 20  1  0
 20 21  1  0
 21 22  1  0
 17  4  1  0
 22 18  1  0
 14  5  1  0
 13  9  1  0
M  END
>  <ref_mols>  (20) 
B1159b

>  <gnina_score>  (20) 
4.612

>  <smina_score_min>  (20) 
-3.516

>  <ref_pdb>  (20) 
B1159b

>  <inspiration_score>  (20) 
None

>  <inchikey>  (20) 
FSXSVRUKOGHELL-UHFFFAOYSA-N

>  <tags>  (20) 
BulkDock Fragalysis export,openbind_d68ev3c_c2_elabs_scored,openbind_d68ev3c_c2_elabs,openbind_d68ev3c_c2_elabs_scored_top80percent_despaghettified,syndirella_product,openbind_d68ev3c_c2_elabs_scored_top80percent,syndirella_placed

>  <smiles>  (20) 
O=C(NC1(c2n[nH]c(-c3cccs3)n2)CCC1)C1(Cl)CCC1

>  <subsites>  (20) 
None

>  <rmsd(smina/fragmenstein)>  (20) 
3.256

>  <alias>  (20) 
None

>  <energy_score>  (20) 
-22.409555

>  <HIPPO Pose ID>  (20) 
86491

>  <distance_score>  (20) 
1.722276

>  <HIPPO Compound ID>  (20) 
121877

>  <gnina_score_min>  (20) 
4.378

>  <name>  (20) 
P86491

>  <exports>  (20) 
['/opt/xchem-fragalysis-2/maxwin/BulkDock/OUTPUTS/openbind_d68ev3c_c2_elabs_1LOTQJ3.sdf', '/opt/xchem-fragalysis-2/maxwin/BulkDock/OUTPUTS/openbind_d68ev3c_c2_elabs_1LSYEHW.sdf', '/opt/xchem-fragalysis-2/maxwin/BulkDock/OUTPUTS/openbind_d68ev3c_c2_elabs_1LSYI5W.sdf']

$$$$
P86493
     RDKit          3D

 22 24  0  0  0  0  0  0  0  0999 V2000
  -18.6962    2.0591   22.0591 C   0  0  0  0  0  0  0  0  0  0  0  0
  -19.6243    1.1105   22.2142 C   0  0  0  0  0  0  0  0  0  0  0  0
  -20.3877    0.5029   21.0702 C   0  0  0  0  0  0  0  0  0  0  0  0
  -20.1142   -0.9921   20.8757 C   0  0  1  0  0  0  0  0  0  0  0  0
  -20.7026   -1.9532   22.2347 Cl  0  0  0  0  0  0  0  0  0  0  0  0
  -20.5331   -1.6299   19.5320 C   0  0  0  0  0  0  0  0  0  0  0  0
  -19.9068   -2.5033   19.0677 O   0  0  0  0  0  0  0  0  0  0  0  0
  -21.7579   -0.8562   18.9651 N   0  0  0  0  0  0  0  0  0  0  0  0
  -22.4073   -0.9352   17.6616 C   0  0  0  0  0  0  0  0  0  0  0  0
  -23.5548   -2.0213   17.5969 C   0  0  0  0  0  0  0  0  0  0  0  0
  -23.7239   -3.0025   18.5038 N   0  0  0  0  0  0  0  0  0  0  0  0
  -24.8192   -3.6258   18.0116 N   0  0  0  0  0  0  0  0  0  0  0  0
  -25.2624   -3.0354   16.8641 C   0  0  0  0  0  0  0  0  0  0  0  0
  -26.3943   -3.4442   16.0928 C   0  0  0  0  0  0  0  0  0  0  0  0
  -26.8633   -2.8330   14.9453 C   0  0  0  0  0  0  0  0  0  0  0  0
  -28.0185   -3.4765   14.4146 C   0  0  0  0  0  0  0  0  0  0  0  0
  -28.3928   -4.5627   15.1727 C   0  0  0  0  0  0  0  0  0  0  0  0
  -27.3544   -4.7996   16.5108 S   0  0  0  0  0  0  0  0  0  0  0  0
  -24.4847   -2.0143   16.5870 N   0  0  0  0  0  0  0  0  0  0  0  0
  -22.8432    0.4783   17.1739 C   0  0  0  0  0  0  0  0  0  0  0  0
  -22.2387    0.1582   15.7987 C   0  0  0  0  0  0  0  0  0  0  0  0
  -21.4308   -0.9738   16.4578 C   0  0  0  0  0  0  0  0  0  0  0  0
  1  2  2  0
  2  3  1  0
  3  4  1  0
  4  5  1  1
  4  6  1  0
  6  7  2  0
  6  8  1  0
  8  9  1  0
  9 10  1  0
 10 11  2  0
 11 12  1  0
 12 13  1  0
 13 14  1  0
 14 15  2  0
 15 16  1  0
 16 17  2  0
 17 18  1  0
 13 19  2  0
  9 20  1  0
 20 21  1  0
 21 22  1  0
 22  9  1  0
 19 10  1  0
 18 14  1  0
M  END
>  <ref_mols>  (21) 
B1159b

>  <gnina_score>  (21) 
4.767

>  <smina_score_min>  (21) 
-3.613

>  <ref_pdb>  (21) 
B1159b

>  <inspiration_score>  (21) 
None

>  <inchikey>  (21) 
WNSUPUXAMHBEQP-SNVBAGLBSA-N

>  <tags>  (21) 
BulkDock Fragalysis export,openbind_d68ev3c_c2_elabs_scored,openbind_d68ev3c_c2_elabs,openbind_d68ev3c_c2_elabs_scored_top80percent_despaghettified,syndirella_product,openbind_d68ev3c_c2_elabs_scored_top80percent,syndirella_placed

>  <smiles>  (21) 
C=CC[C@@H](Cl)C(=O)NC1(c2n[nH]c(-c3cccs3)n2)CCC1

>  <subsites>  (21) 
None

>  <rmsd(smina/fragmenstein)>  (21) 
1.792

>  <alias>  (21) 
None

>  <energy_score>  (21) 
-27.821481

>  <HIPPO Pose ID>  (21) 
86493

>  <distance_score>  (21) 
0.89486

>  <HIPPO Compound ID>  (21) 
121878

>  <gnina_score_min>  (21) 
4.385

>  <name>  (21) 
P86493

>  <exports>  (21) 
['/opt/xchem-fragalysis-2/maxwin/BulkDock/OUTPUTS/openbind_d68ev3c_c2_elabs_1LOTQJ3.sdf', '/opt/xchem-fragalysis-2/maxwin/BulkDock/OUTPUTS/openbind_d68ev3c_c2_elabs_1LSYEHW.sdf', '/opt/xchem-fragalysis-2/maxwin/BulkDock/OUTPUTS/openbind_d68ev3c_c2_elabs_1LSYI5W.sdf']

$$$$
P86495
     RDKit          3D

 23 26  0  0  0  0  0  0  0  0999 V2000
  -19.5348   -2.2611   22.4944 C   0  0  0  0  0  0  0  0  0  0  0  0
  -19.6991   -1.8468   21.0469 C   0  0  0  0  0  0  0  0  0  0  0  0
  -18.9550   -2.7173   20.0581 C   0  0  0  0  0  0  0  0  0  0  0  0
  -19.8876   -0.3620   20.7510 C   0  0  0  0  0  0  0  0  0  0  0  0
  -21.0462   -1.2887   20.5937 C   0  0  2  0  0  0  0  0  0  0  0  0
  -22.2961   -0.9873   21.7988 Cl  0  0  0  0  0  0  0  0  0  0  0  0
  -21.5183   -1.5831   19.1860 C   0  0  0  0  0  0  0  0  0  0  0  0
  -21.2709   -2.6098   18.7073 O   0  0  0  0  0  0  0  0  0  0  0  0
  -22.3125   -0.4081   18.6420 N   0  0  0  0  0  0  0  0  0  0  0  0
  -23.0626   -0.2705   17.4194 C   0  0  0  0  0  0  0  0  0  0  0  0
  -24.0908   -1.4878   17.3017 C   0  0  0  0  0  0  0  0  0  0  0  0
  -24.1948   -2.4623   18.2318 N   0  0  0  0  0  0  0  0  0  0  0  0
  -25.1502   -3.2370   17.7020 N   0  0  0  0  0  0  0  0  0  0  0  0
  -25.5989   -2.7354   16.5177 C   0  0  0  0  0  0  0  0  0  0  0  0
  -26.6495   -3.2981   15.7339 C   0  0  0  0  0  0  0  0  0  0  0  0
  -27.1530   -2.7813   14.5571 C   0  0  0  0  0  0  0  0  0  0  0  0
  -28.2265   -3.5588   14.0372 C   0  0  0  0  0  0  0  0  0  0  0  0
  -28.5015   -4.6502   14.8300 C   0  0  0  0  0  0  0  0  0  0  0  0
  -27.4659   -4.7348   16.1868 S   0  0  0  0  0  0  0  0  0  0  0  0
  -24.9389   -1.6333   16.2355 N   0  0  0  0  0  0  0  0  0  0  0  0
  -22.1469   -0.0969   16.1804 C   0  0  0  0  0  0  0  0  0  0  0  0
  -23.0689    1.0412   15.7162 C   0  0  0  0  0  0  0  0  0  0  0  0
  -23.6210    1.1340   17.1514 C   0  0  0  0  0  0  0  0  0  0  0  0
  1  2  1  0
  2  3  1  0
  2  4  1  0
  4  5  1  0
  5  6  1  1
  5  7  1  0
  7  8  2  0
  7  9  1  0
  9 10  1  0
 10 11  1  0
 11 12  2  0
 12 13  1  0
 13 14  1  0
 14 15  1  0
 15 16  2  0
 16 17  1  0
 17 18  2  0
 18 19  1  0
 14 20  2  0
 10 21  1  0
 21 22  1  0
 22 23  1  0
  5  2  1  0
 23 10  1  0
 20 11  1  0
 19 15  1  0
M  END
>  <ref_mols>  (22) 
B1159b

>  <gnina_score>  (22) 
5.187

>  <smina_score_min>  (22) 
-3.936

>  <ref_pdb>  (22) 
B1159b

>  <inspiration_score>  (22) 
None

>  <inchikey>  (22) 
LZJVWYBWNHJGJP-MRXNPFEDSA-N

>  <tags>  (22) 
BulkDock Fragalysis export,openbind_d68ev3c_c2_elabs_scored,openbind_d68ev3c_c2_elabs_scored_4.5plus,openbind_d68ev3c_c2_elabs,openbind_d68ev3c_c2_elabs_scored_top80percent_despaghettified,syndirella_product,openbind_d68ev3c_c2_elabs_scored_top80percent,syndirella_placed

>  <smiles>  (22) 
CC1(C)C[C@@]1(Cl)C(=O)NC1(c2n[nH]c(-c3cccs3)n2)CCC1

>  <subsites>  (22) 
None

>  <rmsd(smina/fragmenstein)>  (22) 
2.756

>  <alias>  (22) 
None

>  <energy_score>  (22) 
-72.720201

>  <HIPPO Pose ID>  (22) 
86495

>  <distance_score>  (22) 
1.267754

>  <HIPPO Compound ID>  (22) 
121879

>  <gnina_score_min>  (22) 
4.689

>  <name>  (22) 
P86495

>  <exports>  (22) 
['/opt/xchem-fragalysis-2/maxwin/BulkDock/OUTPUTS/openbind_d68ev3c_c2_elabs_1LOTQJ3.sdf', '/opt/xchem-fragalysis-2/maxwin/BulkDock/OUTPUTS/openbind_d68ev3c_c2_elabs_1LSYEHW.sdf', '/opt/xchem-fragalysis-2/maxwin/BulkDock/OUTPUTS/openbind_d68ev3c_c2_elabs_1LSYI5W.sdf']

$$$$
P86496
     RDKit          3D

 23 25  0  0  0  0  0  0  0  0999 V2000
  -20.0070   -3.8349   18.4394 C   0  0  0  0  0  0  0  0  0  0  0  0
  -19.3514   -2.7064   19.2126 C   0  0  0  0  0  0  0  0  0  0  0  0
  -18.1983   -2.4430   18.5739 F   0  0  0  0  0  0  0  0  0  0  0  0
  -18.9608   -3.1664   20.4356 F   0  0  0  0  0  0  0  0  0  0  0  0
  -20.1209   -1.4149   19.3719 C   0  0  2  0  0  0  0  0  0  0  0  0
  -21.1764   -1.4475   20.8094 Cl  0  0  0  0  0  0  0  0  0  0  0  0
  -20.7833   -1.1172   18.0413 C   0  0  0  0  0  0  0  0  0  0  0  0
  -20.2794   -1.3821   17.0267 O   0  0  0  0  0  0  0  0  0  0  0  0
  -22.1729   -0.5472   18.3408 N   0  0  0  0  0  0  0  0  0  0  0  0
  -23.2720   -0.2705   17.4677 C   0  0  0  0  0  0  0  0  0  0  0  0
  -24.1608   -1.5760   17.3772 C   0  0  0  0  0  0  0  0  0  0  0  0
  -24.0201   -2.6483   18.1936 N   0  0  0  0  0  0  0  0  0  0  0  0
  -24.9881   -3.4579   17.7124 N   0  0  0  0  0  0  0  0  0  0  0  0
  -25.6235   -2.8992   16.6429 C   0  0  0  0  0  0  0  0  0  0  0  0
  -26.6865   -3.4823   15.8934 C   0  0  0  0  0  0  0  0  0  0  0  0
  -27.2848   -2.9269   14.7790 C   0  0  0  0  0  0  0  0  0  0  0  0
  -28.3374   -3.7354   14.2667 C   0  0  0  0  0  0  0  0  0  0  0  0
  -28.5047   -4.8848   15.0057 C   0  0  0  0  0  0  0  0  0  0  0  0
  -27.3916   -4.9860   16.3003 S   0  0  0  0  0  0  0  0  0  0  0  0
  -25.1177   -1.7115   16.4134 N   0  0  0  0  0  0  0  0  0  0  0  0
  -23.9942    1.0562   17.7251 C   0  0  0  0  0  0  0  0  0  0  0  0
  -23.9260    1.3453   16.2128 C   0  0  0  0  0  0  0  0  0  0  0  0
  -22.8135    0.2960   16.0963 C   0  0  0  0  0  0  0  0  0  0  0  0
  1  2  1  0
  2  3  1  0
  2  4  1  0
  2  5  1  0
  5  6  1  1
  5  7  1  0
  7  8  2  0
  7  9  1  0
  9 10  1  0
 10 11  1  0
 11 12  2  0
 12 13  1  0
 13 14  1  0
 14 15  1  0
 15 16  2  0
 16 17  1  0
 17 18  2  0
 18 19  1  0
 14 20  2  0
 10 21  1  0
 21 22  1  0
 22 23  1  0
 23 10  1  0
 20 11  1  0
 19 15  1  0
M  END
>  <ref_mols>  (23) 
B1159b

>  <gnina_score>  (23) 
5.138

>  <smina_score_min>  (23) 
-1.854

>  <ref_pdb>  (23) 
B1159b

>  <inspiration_score>  (23) 
None

>  <inchikey>  (23) 
KVCGLJQSTGZZGP-SECBINFHSA-N

>  <tags>  (23) 
BulkDock Fragalysis export,openbind_d68ev3c_c2_elabs_scored,openbind_d68ev3c_c2_elabs_scored_4.5plus,openbind_d68ev3c_c2_elabs,openbind_d68ev3c_c2_elabs_scored_top80percent_despaghettified,syndirella_product,openbind_d68ev3c_c2_elabs_scored_top80percent,syndirella_placed

>  <smiles>  (23) 
CC(F)(F)[C@H](Cl)C(=O)NC1(c2n[nH]c(-c3cccs3)n2)CCC1

>  <subsites>  (23) 
None

>  <rmsd(smina/fragmenstein)>  (23) 
1.633

>  <alias>  (23) 
None

>  <energy_score>  (23) 
-26.237619

>  <HIPPO Pose ID>  (23) 
86496

>  <distance_score>  (23) 
1.196627

>  <HIPPO Compound ID>  (23) 
121880

>  <gnina_score_min>  (23) 
4.88

>  <name>  (23) 
P86496

>  <exports>  (23) 
['/opt/xchem-fragalysis-2/maxwin/BulkDock/OUTPUTS/openbind_d68ev3c_c2_elabs_1LOTQJ3.sdf', '/opt/xchem-fragalysis-2/maxwin/BulkDock/OUTPUTS/openbind_d68ev3c_c2_elabs_1LSYEHW.sdf', '/opt/xchem-fragalysis-2/maxwin/BulkDock/OUTPUTS/openbind_d68ev3c_c2_elabs_1LSYI5W.sdf']

$$$$
P86497
     RDKit          3D

 23 26  0  0  0  0  0  0  0  0999 V2000
  -22.5578   -2.7868   18.5425 O   0  0  0  0  0  0  0  0  0  0  0  0
  -21.7415   -1.9609   18.4955 C   0  0  0  0  0  0  0  0  0  0  0  0
  -21.7848   -0.5583   17.8924 N   0  0  0  0  0  0  0  0  0  0  0  0
  -22.8217    0.1065   17.1243 C   0  0  0  0  0  0  0  0  0  0  0  0
  -24.1522   -0.7666   17.1568 C   0  0  0  0  0  0  0  0  0  0  0  0
  -24.7543   -1.0944   18.3124 N   0  0  0  0  0  0  0  0  0  0  0  0
  -25.5869   -2.0679   17.9129 N   0  0  0  0  0  0  0  0  0  0  0  0
  -25.5770   -2.2051   16.5564 C   0  0  0  0  0  0  0  0  0  0  0  0
  -26.4750   -3.0306   15.8131 C   0  0  0  0  0  0  0  0  0  0  0  0
  -26.7344   -2.9386   14.4602 C   0  0  0  0  0  0  0  0  0  0  0  0
  -27.7379   -3.8553   14.0335 C   0  0  0  0  0  0  0  0  0  0  0  0
  -28.1908   -4.6406   15.0694 C   0  0  0  0  0  0  0  0  0  0  0  0
  -27.4112   -4.2666   16.5440 S   0  0  0  0  0  0  0  0  0  0  0  0
  -24.6590   -1.4063   16.0518 N   0  0  0  0  0  0  0  0  0  0  0  0
  -22.3275    0.5161   15.7164 C   0  0  0  0  0  0  0  0  0  0  0  0
  -23.0370    1.8637   15.9245 C   0  0  0  0  0  0  0  0  0  0  0  0
  -23.0014    1.5998   17.4424 C   0  0  0  0  0  0  0  0  0  0  0  0
  -20.3908   -2.2886   18.9968 C   0  0  2  0  0  0  0  0  0  0  0  0
  -19.9614   -1.7616   20.6327 Cl  0  0  0  0  0  0  0  0  0  0  0  0
  -19.3127   -2.3723   17.9518 C   0  0  0  0  0  0  0  0  0  0  0  0
  -19.8571   -3.6024   18.5466 C   0  0  0  0  0  0  0  0  0  0  0  0
  -20.5655   -4.4562   17.7424 F   0  0  0  0  0  0  0  0  0  0  0  0
  -19.0048   -4.3768   19.2968 F   0  0  0  0  0  0  0  0  0  0  0  0
  1  2  2  0
  2  3  1  0
  3  4  1  0
  4  5  1  0
  5  6  2  0
  6  7  1  0
  7  8  1  0
  8  9  1  0
  9 10  2  0
 10 11  1  0
 11 12  2  0
 12 13  1  0
  8 14  2  0
  4 15  1  0
 15 16  1  0
 16 17  1  0
  2 18  1  0
 18 19  1  1
 18 20  1  0
 20 21  1  0
 21 22  1  0
 21 23  1  0
 17  4  1  0
 21 18  1  0
 14  5  1  0
 13  9  1  0
M  END
>  <ref_mols>  (24) 
B1159b

>  <gnina_score>  (24) 
4.999

>  <smina_score_min>  (24) 
-2.398

>  <ref_pdb>  (24) 
B1159b

>  <inspiration_score>  (24) 
None

>  <inchikey>  (24) 
RSTDWVPGRPRJIT-CYBMUJFWSA-N

>  <tags>  (24) 
BulkDock Fragalysis export,openbind_d68ev3c_c2_elabs_scored,openbind_d68ev3c_c2_elabs_scored_4.5plus,openbind_d68ev3c_c2_elabs,openbind_d68ev3c_c2_elabs_scored_top80percent_despaghettified,syndirella_product,openbind_d68ev3c_c2_elabs_scored_top80percent,syndirella_placed

>  <smiles>  (24) 
O=C(NC1(c2n[nH]c(-c3cccs3)n2)CCC1)[C@]1(Cl)CC1(F)F

>  <subsites>  (24) 
None

>  <rmsd(smina/fragmenstein)>  (24) 
4.715

>  <alias>  (24) 
None

>  <energy_score>  (24) 
-28.732504

>  <HIPPO Pose ID>  (24) 
86497

>  <distance_score>  (24) 
1.301523

>  <HIPPO Compound ID>  (24) 
121881

>  <gnina_score_min>  (24) 
4.969

>  <name>  (24) 
P86497

>  <exports>  (24) 
['/opt/xchem-fragalysis-2/maxwin/BulkDock/OUTPUTS/openbind_d68ev3c_c2_elabs_1LOTQJ3.sdf', '/opt/xchem-fragalysis-2/maxwin/BulkDock/OUTPUTS/openbind_d68ev3c_c2_elabs_1LSYEHW.sdf', '/opt/xchem-fragalysis-2/maxwin/BulkDock/OUTPUTS/openbind_d68ev3c_c2_elabs_1LSYI5W.sdf']

$$$$
P86500
     RDKit          3D

 23 26  0  0  0  0  0  0  0  0999 V2000
  -21.4453   -2.2157   19.5036 O   0  0  0  0  0  0  0  0  0  0  0  0
  -21.7389   -1.1172   19.7044 C   0  0  0  0  0  0  0  0  0  0  0  0
  -22.4156   -0.0993   18.8046 N   0  0  0  0  0  0  0  0  0  0  0  0
  -22.9720   -0.2413   17.4727 C   0  0  0  0  0  0  0  0  0  0  0  0
  -23.9555   -1.5016   17.3642 C   0  0  0  0  0  0  0  0  0  0  0  0
  -23.9914   -2.5228   18.2456 N   0  0  0  0  0  0  0  0  0  0  0  0
  -24.9667   -3.2886   17.7318 N   0  0  0  0  0  0  0  0  0  0  0  0
  -25.4805   -2.7470   16.5923 C   0  0  0  0  0  0  0  0  0  0  0  0
  -26.5527   -3.2956   15.8257 C   0  0  0  0  0  0  0  0  0  0  0  0
  -27.0941   -2.7510   14.6779 C   0  0  0  0  0  0  0  0  0  0  0  0
  -28.1748   -3.5236   14.1647 C   0  0  0  0  0  0  0  0  0  0  0  0
  -28.4196   -4.6382   14.9347 C   0  0  0  0  0  0  0  0  0  0  0  0
  -27.3476   -4.7494   16.2617 S   0  0  0  0  0  0  0  0  0  0  0  0
  -24.8530   -1.6219   16.3316 N   0  0  0  0  0  0  0  0  0  0  0  0
  -21.8775   -0.2329   16.3696 C   0  0  0  0  0  0  0  0  0  0  0  0
  -22.7417    0.7610   15.5779 C   0  0  0  0  0  0  0  0  0  0  0  0
  -23.5011    1.0796   16.8783 C   0  0  0  0  0  0  0  0  0  0  0  0
  -21.3622   -0.4963   21.0266 C   0  0  2  0  0  0  0  0  0  0  0  0
  -22.7020   -0.0021   22.0358 Cl  0  0  0  0  0  0  0  0  0  0  0  0
  -20.1029    0.3296   20.9718 C   0  0  0  0  0  0  0  0  0  0  0  0
  -20.1557   -0.8726   21.8775 C   0  0  2  0  0  0  0  0  0  0  0  0
  -19.6121   -2.2475   21.7912 C   0  0  0  0  0  0  0  0  0  0  0  0
  -18.8877   -2.7409   20.2696 Cl  0  0  0  0  0  0  0  0  0  0  0  0
  1  2  2  0
  2  3  1  0
  3  4  1  0
  4  5  1  0
  5  6  2  0
  6  7  1  0
  7  8  1  0
  8  9  1  0
  9 10  2  0
 10 11  1  0
 11 12  2  0
 12 13  1  0
  8 14  2  0
  4 15  1  0
 15 16  1  0
 16 17  1  0
  2 18  1  0
 18 19  1  1
 18 20  1  0
 20 21  1  0
 21 22  1  6
 22 23  1  0
 17  4  1  0
 21 18  1  0
 14  5  1  0
 13  9  1  0
M  END
>  <ref_mols>  (25) 
B1159b

>  <gnina_score>  (25) 
5.235

>  <smina_score_min>  (25) 
-2.225

>  <ref_pdb>  (25) 
B1159b

>  <inspiration_score>  (25) 
None

>  <inchikey>  (25) 
WURMHKYSABXQLU-PSLIRLAXSA-N

>  <tags>  (25) 
BulkDock Fragalysis export,openbind_d68ev3c_c2_elabs_scored,openbind_d68ev3c_c2_elabs_scored_4.5plus,openbind_d68ev3c_c2_elabs,openbind_d68ev3c_c2_elabs_scored_top80percent_despaghettified,openbind_d68ev3c_c2_elabs_scored_5plus,syndirella_product,openbind_d68ev3c_c2_elabs_scored_top80percent,syndirella_placed

>  <smiles>  (25) 
O=C(NC1(c2n[nH]c(-c3cccs3)n2)CCC1)[C@]1(Cl)C[C@@H]1CCl

>  <subsites>  (25) 
None

>  <rmsd(smina/fragmenstein)>  (25) 
1.986

>  <alias>  (25) 
None

>  <energy_score>  (25) 
-18.228205

>  <HIPPO Pose ID>  (25) 
86500

>  <distance_score>  (25) 
1.557161

>  <HIPPO Compound ID>  (25) 
121882

>  <gnina_score_min>  (25) 
5.031

>  <name>  (25) 
P86500

>  <exports>  (25) 
['/opt/xchem-fragalysis-2/maxwin/BulkDock/OUTPUTS/openbind_d68ev3c_c2_elabs_1LOTQJ3.sdf', '/opt/xchem-fragalysis-2/maxwin/BulkDock/OUTPUTS/openbind_d68ev3c_c2_elabs_1LSYEHW.sdf', '/opt/xchem-fragalysis-2/maxwin/BulkDock/OUTPUTS/openbind_d68ev3c_c2_elabs_1LSYI5W.sdf', '/opt/xchem-fragalysis-2/maxwin/openbind-hippo/d68ev3c/cycle_02/gnina/openbind_d68ev3c_c2_elabs_scored_5plus_products.sdf']

$$$$
P86501
     RDKit          3D

 23 25  0  0  0  0  0  0  0  0999 V2000
  -18.3071   -3.1459   21.1054 C   0  0  0  0  0  0  0  0  0  0  0  0
  -17.9957   -3.5651   19.6536 C   0  0  0  0  0  0  0  0  0  0  0  0
  -16.2997   -3.9761   19.2774 C   0  0  0  0  0  0  0  0  0  0  0  0
  -18.8653   -2.6182   18.7473 C   0  0  0  0  0  0  0  0  0  0  0  0
  -20.3250   -2.8090   19.0260 C   0  0  1  0  0  0  0  0  0  0  0  0
  -20.9182   -1.6833   20.3393 Cl  0  0  0  0  0  0  0  0  0  0  0  0
  -21.2069   -2.7000   17.8120 C   0  0  0  0  0  0  0  0  0  0  0  0
  -21.4833   -3.6295   17.1634 O   0  0  0  0  0  0  0  0  0  0  0  0
  -21.6882   -1.2377   17.7199 N   0  0  0  0  0  0  0  0  0  0  0  0
  -22.6787   -0.6339   16.8746 C   0  0  0  0  0  0  0  0  0  0  0  0
  -23.9792   -1.5410   17.0050 C   0  0  0  0  0  0  0  0  0  0  0  0
  -24.2200   -2.2958   18.1025 N   0  0  0  0  0  0  0  0  0  0  0  0
  -25.2753   -3.0157   17.6963 N   0  0  0  0  0  0  0  0  0  0  0  0
  -25.6542   -2.6756   16.4326 C   0  0  0  0  0  0  0  0  0  0  0  0
  -26.7444   -3.2543   15.7191 C   0  0  0  0  0  0  0  0  0  0  0  0
  -27.2126   -2.8499   14.4853 C   0  0  0  0  0  0  0  0  0  0  0  0
  -28.3257   -3.6215   14.0473 C   0  0  0  0  0  0  0  0  0  0  0  0
  -28.6636   -4.5982   14.9569 C   0  0  0  0  0  0  0  0  0  0  0  0
  -27.6432   -4.5791   16.3278 S   0  0  0  0  0  0  0  0  0  0  0  0
  -24.8638   -1.7273   15.9801 N   0  0  0  0  0  0  0  0  0  0  0  0
  -22.1858   -0.2914   15.4611 C   0  0  0  0  0  0  0  0  0  0  0  0
  -22.9024    1.0656   15.5943 C   0  0  0  0  0  0  0  0  0  0  0  0
  -22.9043    0.8703   17.1212 C   0  0  0  0  0  0  0  0  0  0  0  0
  1  2  1  0
  2  3  1  0
  2  4  1  0
  4  5  1  0
  5  6  1  1
  5  7  1  0
  7  8  2  0
  7  9  1  0
  9 10  1  0
 10 11  1  0
 11 12  2  0
 12 13  1  0
 13 14  1  0
 14 15  1  0
 15 16  2  0
 16 17  1  0
 17 18  2  0
 18 19  1  0
 14 20  2  0
 10 21  1  0
 21 22  1  0
 22 23  1  0
 23 10  1  0
 20 11  1  0
 19 15  1  0
M  END
>  <ref_mols>  (26) 
B1159b

>  <gnina_score>  (26) 
5.06

>  <smina_score_min>  (26) 
-2.561

>  <ref_pdb>  (26) 
B1159b

>  <inspiration_score>  (26) 
None

>  <inchikey>  (26) 
KIAWKUKIMQROAA-LLVKDONJSA-N

>  <tags>  (26) 
BulkDock Fragalysis export,openbind_d68ev3c_c2_elabs_scored,openbind_d68ev3c_c2_elabs_scored_4.5plus,openbind_d68ev3c_c2_elabs,openbind_d68ev3c_c2_elabs_scored_top80percent_despaghettified,openbind_d68ev3c_c2_elabs_scored_5plus,syndirella_product,openbind_d68ev3c_c2_elabs_scored_top80percent,syndirella_placed

>  <smiles>  (26) 
CC(C)C[C@@H](Cl)C(=O)NC1(c2n[nH]c(-c3cccs3)n2)CCC1

>  <subsites>  (26) 
None

>  <rmsd(smina/fragmenstein)>  (26) 
2.468

>  <alias>  (26) 
None

>  <energy_score>  (26) 
-5.87509

>  <HIPPO Pose ID>  (26) 
86501

>  <distance_score>  (26) 
0.943043

>  <HIPPO Compound ID>  (26) 
121883

>  <gnina_score_min>  (26) 
5.044

>  <name>  (26) 
P86501

>  <exports>  (26) 
['/opt/xchem-fragalysis-2/maxwin/BulkDock/OUTPUTS/openbind_d68ev3c_c2_elabs_1LOTQJ3.sdf', '/opt/xchem-fragalysis-2/maxwin/BulkDock/OUTPUTS/openbind_d68ev3c_c2_elabs_1LSYEHW.sdf', '/opt/xchem-fragalysis-2/maxwin/BulkDock/OUTPUTS/openbind_d68ev3c_c2_elabs_1LSYI5W.sdf', '/opt/xchem-fragalysis-2/maxwin/openbind-hippo/d68ev3c/cycle_02/gnina/openbind_d68ev3c_c2_elabs_scored_5plus_products.sdf']

$$$$
P86502
     RDKit          3D

 24 26  0  0  0  0  0  0  0  0999 V2000
  -19.5173   -2.0145   22.7475 C   0  0  0  0  0  0  0  0  0  0  0  0
  -19.7489   -0.5708   22.3280 C   0  0  0  0  0  0  0  0  0  0  0  0
  -19.9448    0.1374   23.4886 F   0  0  0  0  0  0  0  0  0  0  0  0
  -18.6078   -0.0456   21.8073 F   0  0  0  0  0  0  0  0  0  0  0  0
  -20.9074   -0.2756   21.3717 C   0  0  2  0  0  0  0  0  0  0  0  0
  -20.9581    1.2463   21.1390 C   0  0  0  0  0  0  0  0  0  0  0  0
  -22.4267   -0.8188   22.1256 Cl  0  0  0  0  0  0  0  0  0  0  0  0
  -20.7973   -1.0474   20.0272 C   0  0  0  0  0  0  0  0  0  0  0  0
  -19.8802   -1.7241   19.7606 O   0  0  0  0  0  0  0  0  0  0  0  0
  -22.0462   -0.6507   19.1715 N   0  0  0  0  0  0  0  0  0  0  0  0
  -22.3678   -0.9346   17.7723 C   0  0  0  0  0  0  0  0  0  0  0  0
  -23.5243   -2.0121   17.6353 C   0  0  0  0  0  0  0  0  0  0  0  0
  -23.6896   -3.0395   18.4904 N   0  0  0  0  0  0  0  0  0  0  0  0
  -24.7925   -3.6297   17.9802 N   0  0  0  0  0  0  0  0  0  0  0  0
  -25.2310   -2.9942   16.8556 C   0  0  0  0  0  0  0  0  0  0  0  0
  -26.3596   -3.3819   16.0678 C   0  0  0  0  0  0  0  0  0  0  0  0
  -26.8266   -2.7422   14.9355 C   0  0  0  0  0  0  0  0  0  0  0  0
  -27.9763   -3.3769   14.3819 C   0  0  0  0  0  0  0  0  0  0  0  0
  -28.3504   -4.4843   15.1088 C   0  0  0  0  0  0  0  0  0  0  0  0
  -27.3177   -4.7524   16.4450 S   0  0  0  0  0  0  0  0  0  0  0  0
  -24.4511   -1.9625   16.6224 N   0  0  0  0  0  0  0  0  0  0  0  0
  -22.6371    0.3947   17.0033 C   0  0  0  0  0  0  0  0  0  0  0  0
  -21.8155   -0.1594   15.8316 C   0  0  0  0  0  0  0  0  0  0  0  0
  -21.1834   -1.1696   16.8083 C   0  0  0  0  0  0  0  0  0  0  0  0
  1  2  1  0
  2  3  1  0
  2  4  1  0
  2  5  1  0
  5  6  1  6
  5  7  1  0
  5  8  1  0
  8  9  2  0
  8 10  1  0
 10 11  1  0
 11 12  1  0
 12 13  2  0
 13 14  1  0
 14 15  1  0
 15 16  1  0
 16 17  2  0
 17 18  1  0
 18 19  2  0
 19 20  1  0
 15 21  2  0
 11 22  1  0
 22 23  1  0
 23 24  1  0
 24 11  1  0
 21 12  1  0
 20 16  1  0
M  END
>  <ref_mols>  (27) 
B1159b

>  <gnina_score>  (27) 
4.747

>  <smina_score_min>  (27) 
-4.335

>  <ref_pdb>  (27) 
B1159b

>  <inspiration_score>  (27) 
None

>  <inchikey>  (27) 
JJNVOLUFOWFEOT-CYBMUJFWSA-N

>  <tags>  (27) 
BulkDock Fragalysis export,openbind_d68ev3c_c2_elabs_scored,openbind_d68ev3c_c2_elabs,openbind_d68ev3c_c2_elabs_scored_top80percent_despaghettified,syndirella_product,openbind_d68ev3c_c2_elabs_scored_top80percent,syndirella_placed

>  <smiles>  (27) 
CC(F)(F)[C@](C)(Cl)C(=O)NC1(c2n[nH]c(-c3cccs3)n2)CCC1

>  <subsites>  (27) 
None

>  <rmsd(smina/fragmenstein)>  (27) 
1.786

>  <alias>  (27) 
None

>  <energy_score>  (27) 
-42.018577

>  <HIPPO Pose ID>  (27) 
86502

>  <distance_score>  (27) 
1.417293

>  <HIPPO Compound ID>  (27) 
121884

>  <gnina_score_min>  (27) 
4.274

>  <name>  (27) 
P86502

>  <exports>  (27) 
['/opt/xchem-fragalysis-2/maxwin/BulkDock/OUTPUTS/openbind_d68ev3c_c2_elabs_1LOTQJ3.sdf', '/opt/xchem-fragalysis-2/maxwin/BulkDock/OUTPUTS/openbind_d68ev3c_c2_elabs_1LSYEHW.sdf', '/opt/xchem-fragalysis-2/maxwin/BulkDock/OUTPUTS/openbind_d68ev3c_c2_elabs_1LSYI5W.sdf']

$$$$
P86505
     RDKit          3D

 24 27  0  0  0  0  0  0  0  0999 V2000
  -20.8661    1.2719   24.0987 C   0  0  0  0  0  0  0  0  0  0  0  0
  -21.7662    0.7100   23.0362 C   0  0  0  0  0  0  0  0  0  0  0  0
  -22.9146    0.3478   23.2588 O   0  0  0  0  0  0  0  0  0  0  0  0
  -21.2508    0.6501   21.6495 C   0  0  1  0  0  0  0  0  0  0  0  0
  -19.7986    0.6552   21.2987 C   0  0  0  0  0  0  0  0  0  0  0  0
  -20.6056   -0.6306   21.1269 C   0  0  1  0  0  0  0  0  0  0  0  0
  -20.1535   -1.9060   22.3161 Cl  0  0  0  0  0  0  0  0  0  0  0  0
  -20.7707   -1.1500   19.7057 C   0  0  0  0  0  0  0  0  0  0  0  0
  -19.9347   -1.8491   19.2953 O   0  0  0  0  0  0  0  0  0  0  0  0
  -22.0078   -0.5583   19.0076 N   0  0  0  0  0  0  0  0  0  0  0  0
  -22.5374   -0.7813   17.6622 C   0  0  0  0  0  0  0  0  0  0  0  0
  -23.5978   -1.9488   17.5953 C   0  0  0  0  0  0  0  0  0  0  0  0
  -23.7112   -2.9404   18.5008 N   0  0  0  0  0  0  0  0  0  0  0  0
  -24.7849   -3.6109   18.0171 N   0  0  0  0  0  0  0  0  0  0  0  0
  -25.2582   -3.0449   16.8694 C   0  0  0  0  0  0  0  0  0  0  0  0
  -26.3839   -3.4883   16.1087 C   0  0  0  0  0  0  0  0  0  0  0  0
  -26.8788   -2.8897   14.9651 C   0  0  0  0  0  0  0  0  0  0  0  0
  -28.0240   -3.5600   14.4471 C   0  0  0  0  0  0  0  0  0  0  0  0
  -28.3642   -4.6539   15.2102 C   0  0  0  0  0  0  0  0  0  0  0  0
  -27.3054   -4.8660   16.5368 S   0  0  0  0  0  0  0  0  0  0  0  0
  -24.5228   -1.9969   16.5824 N   0  0  0  0  0  0  0  0  0  0  0  0
  -21.4695   -0.8295   16.5406 C   0  0  0  0  0  0  0  0  0  0  0  0
  -21.6301    0.6924   16.3747 C   0  0  0  0  0  0  0  0  0  0  0  0
  -23.0245    0.5440   16.9986 C   0  0  0  0  0  0  0  0  0  0  0  0
  1  2  1  0
  2  3  2  0
  4  2  1  1
  4  5  1  0
  5  6  1  0
  6  7  1  1
  6  8  1  0
  8  9  2  0
  8 10  1  0
 10 11  1  0
 11 12  1  0
 12 13  2  0
 13 14  1  0
 14 15  1  0
 15 16  1  0
 16 17  2  0
 17 18  1  0
 18 19  2  0
 19 20  1  0
 15 21  2  0
 11 22  1  0
 22 23  1  0
 23 24  1  0
  6  4  1  0
 24 11  1  0
 21 12  1  0
 20 16  1  0
M  END
>  <ref_mols>  (28) 
B1159b

>  <gnina_score>  (28) 
4.701

>  <smina_score_min>  (28) 
-3.702

>  <ref_pdb>  (28) 
B1159b

>  <inspiration_score>  (28) 
None

>  <inchikey>  (28) 
RVLIOGJYNXYPID-QLJPJBMISA-N

>  <tags>  (28) 
BulkDock Fragalysis export,openbind_d68ev3c_c2_elabs_scored,openbind_d68ev3c_c2_elabs_scored_4.5plus,openbind_d68ev3c_c2_elabs,openbind_d68ev3c_c2_elabs_scored_top80percent_despaghettified,syndirella_product,openbind_d68ev3c_c2_elabs_scored_top80percent,syndirella_placed

>  <smiles>  (28) 
CC(=O)[C@H]1C[C@]1(Cl)C(=O)NC1(c2n[nH]c(-c3cccs3)n2)CCC1

>  <subsites>  (28) 
None

>  <rmsd(smina/fragmenstein)>  (28) 
2.352

>  <alias>  (28) 
None

>  <energy_score>  (28) 
-45.998027

>  <HIPPO Pose ID>  (28) 
86505

>  <distance_score>  (28) 
1.26191

>  <HIPPO Compound ID>  (28) 
121885

>  <gnina_score_min>  (28) 
4.521

>  <name>  (28) 
P86505

>  <exports>  (28) 
['/opt/xchem-fragalysis-2/maxwin/BulkDock/OUTPUTS/openbind_d68ev3c_c2_elabs_1LOTQJ3.sdf', '/opt/xchem-fragalysis-2/maxwin/BulkDock/OUTPUTS/openbind_d68ev3c_c2_elabs_1LSYEHW.sdf', '/opt/xchem-fragalysis-2/maxwin/BulkDock/OUTPUTS/openbind_d68ev3c_c2_elabs_1LSYI5W.sdf']

$$$$
P86508
     RDKit          3D

 24 27  0  0  0  0  0  0  0  0999 V2000
  -21.6295   -1.8890   24.7630 C   0  0  0  0  0  0  0  0  0  0  0  0
  -20.8760   -1.9033   23.4361 C   0  0  0  0  0  0  0  0  0  0  0  0
  -19.4951   -2.5425   23.5917 C   0  0  0  0  0  0  0  0  0  0  0  0
  -20.7161   -0.5278   22.9081 C   0  0  2  0  0  0  0  0  0  0  0  0
  -21.7998    0.0598   22.1926 O   0  0  0  0  0  0  0  0  0  0  0  0
  -20.6107   -0.2505   21.4302 C   0  0  1  0  0  0  0  0  0  0  0  0
  -19.4219    0.9942   21.1022 Cl  0  0  0  0  0  0  0  0  0  0  0  0
  -20.8929   -1.1607   20.2673 C   0  0  0  0  0  0  0  0  0  0  0  0
  -20.3457   -2.1881   20.1779 O   0  0  0  0  0  0  0  0  0  0  0  0
  -21.8633   -0.4532   19.2917 N   0  0  0  0  0  0  0  0  0  0  0  0
  -22.2956   -0.8260   17.9360 C   0  0  0  0  0  0  0  0  0  0  0  0
  -23.5178   -1.8397   17.8534 C   0  0  0  0  0  0  0  0  0  0  0  0
  -23.7131   -2.8630   18.7035 N   0  0  0  0  0  0  0  0  0  0  0  0
  -24.8172   -3.4401   18.1783 N   0  0  0  0  0  0  0  0  0  0  0  0
  -25.2128   -2.8213   17.0297 C   0  0  0  0  0  0  0  0  0  0  0  0
  -26.3054   -3.2274   16.2001 C   0  0  0  0  0  0  0  0  0  0  0  0
  -26.7297   -2.6075   15.0402 C   0  0  0  0  0  0  0  0  0  0  0  0
  -27.8461   -3.2635   14.4439 C   0  0  0  0  0  0  0  0  0  0  0  0
  -28.2382   -4.3674   15.1666 C   0  0  0  0  0  0  0  0  0  0  0  0
  -27.2644   -4.6050   16.5518 S   0  0  0  0  0  0  0  0  0  0  0  0
  -24.4198   -1.7961   16.8122 N   0  0  0  0  0  0  0  0  0  0  0  0
  -22.5000    0.4645   17.0765 C   0  0  0  0  0  0  0  0  0  0  0  0
  -21.7242   -0.2057   15.9359 C   0  0  0  0  0  0  0  0  0  0  0  0
  -21.1501   -1.2016   16.9605 C   0  0  0  0  0  0  0  0  0  0  0  0
  1  2  1  0
  2  3  1  0
  4  2  1  6
  4  5  1  0
  5  6  1  0
  6  7  1  1
  6  8  1  0
  8  9  2  0
  8 10  1  0
 10 11  1  0
 11 12  1  0
 12 13  2  0
 13 14  1  0
 14 15  1  0
 15 16  1  0
 16 17  2  0
 17 18  1  0
 18 19  2  0
 19 20  1  0
 15 21  2  0
 11 22  1  0
 22 23  1  0
 23 24  1  0
  6  4  1  0
 24 11  1  0
 21 12  1  0
 20 16  1  0
M  END
>  <ref_mols>  (29) 
B1159b

>  <gnina_score>  (29) 
4.997

>  <smina_score_min>  (29) 
-4.597

>  <ref_pdb>  (29) 
B1159b

>  <inspiration_score>  (29) 
None

>  <inchikey>  (29) 
YRUAWCDIZPHSJL-ZBEGNZNMSA-N

>  <tags>  (29) 
BulkDock Fragalysis export,openbind_d68ev3c_c2_elabs_scored,openbind_d68ev3c_c2_elabs,openbind_d68ev3c_c2_elabs_scored_top80percent_despaghettified,syndirella_product,openbind_d68ev3c_c2_elabs_scored_top80percent,syndirella_placed

>  <smiles>  (29) 
CC(C)[C@@H]1O[C@]1(Cl)C(=O)NC1(c2n[nH]c(-c3cccs3)n2)CCC1

>  <subsites>  (29) 
None

>  <rmsd(smina/fragmenstein)>  (29) 
1.472

>  <alias>  (29) 
None

>  <energy_score>  (29) 
-62.890421

>  <HIPPO Pose ID>  (29) 
86508

>  <distance_score>  (29) 
1.450873

>  <HIPPO Compound ID>  (29) 
121886

>  <gnina_score_min>  (29) 
4.361

>  <name>  (29) 
P86508

>  <exports>  (29) 
['/opt/xchem-fragalysis-2/maxwin/BulkDock/OUTPUTS/openbind_d68ev3c_c2_elabs_1LOTQJ3.sdf', '/opt/xchem-fragalysis-2/maxwin/BulkDock/OUTPUTS/openbind_d68ev3c_c2_elabs_1LSYEHW.sdf', '/opt/xchem-fragalysis-2/maxwin/BulkDock/OUTPUTS/openbind_d68ev3c_c2_elabs_1LSYI5W.sdf']

$$$$
P86511
     RDKit          3D

 24 28  0  0  0  0  0  0  0  0999 V2000
  -22.9914   -2.7164   18.6136 O   0  0  0  0  0  0  0  0  0  0  0  0
  -22.1665   -1.9859   18.2399 C   0  0  0  0  0  0  0  0  0  0  0  0
  -22.2766   -0.5661   17.6837 N   0  0  0  0  0  0  0  0  0  0  0  0
  -23.4412    0.2351   17.3749 C   0  0  0  0  0  0  0  0  0  0  0  0
  -24.7012   -0.6974   17.3640 C   0  0  0  0  0  0  0  0  0  0  0  0
  -25.2893   -1.1277   18.4895 N   0  0  0  0  0  0  0  0  0  0  0  0
  -25.9931   -2.1769   18.0349 N   0  0  0  0  0  0  0  0  0  0  0  0
  -25.9307   -2.2649   16.6752 C   0  0  0  0  0  0  0  0  0  0  0  0
  -26.7098   -3.1461   15.8685 C   0  0  0  0  0  0  0  0  0  0  0  0
  -26.9034   -3.0356   14.5060 C   0  0  0  0  0  0  0  0  0  0  0  0
  -27.8051   -4.0159   14.0041 C   0  0  0  0  0  0  0  0  0  0  0  0
  -28.2448   -4.8641   14.9953 C   0  0  0  0  0  0  0  0  0  0  0  0
  -27.5714   -4.4753   16.5176 S   0  0  0  0  0  0  0  0  0  0  0  0
  -25.0914   -1.3582   16.2243 N   0  0  0  0  0  0  0  0  0  0  0  0
  -23.5311    1.5696   18.1253 C   0  0  0  0  0  0  0  0  0  0  0  0
  -22.7334    2.2056   16.9621 C   0  0  0  0  0  0  0  0  0  0  0  0
  -23.2359    1.0530   16.0733 C   0  0  0  0  0  0  0  0  0  0  0  0
  -20.7677   -2.4303   18.1584 C   0  0  1  0  0  0  0  0  0  0  0  0
  -19.7570   -2.0007   19.5422 Cl  0  0  0  0  0  0  0  0  0  0  0  0
  -20.4117   -3.7969   17.6365 C   0  0  0  0  0  0  0  0  0  0  0  0
  -20.3434   -2.6331   16.7164 C   0  0  0  0  0  0  0  0  0  0  0  0
  -19.3086   -1.8673   16.0072 C   0  0  0  0  0  0  0  0  0  0  0  0
  -19.8673   -2.5187   14.7311 C   0  0  0  0  0  0  0  0  0  0  0  0
  -21.2011   -2.6399   15.4770 C   0  0  0  0  0  0  0  0  0  0  0  0
  1  2  2  0
  2  3  1  0
  3  4  1  0
  4  5  1  0
  5  6  2  0
  6  7  1  0
  7  8  1  0
  8  9  1  0
  9 10  2  0
 10 11  1  0
 11 12  2  0
 12 13  1  0
  8 14  2  0
  4 15  1  0
 15 16  1  0
 16 17  1  0
  2 18  1  0
 18 19  1  1
 18 20  1  0
 20 21  1  0
 21 22  1  0
 22 23  1  0
 23 24  1  0
 17  4  1  0
 21 18  1  0
 14  5  1  0
 24 21  1  0
 13  9  1  0
M  END
>  <ref_mols>  (30) 
B1159b

>  <gnina_score>  (30) 
5.427

>  <smina_score_min>  (30) 
-2.46

>  <ref_pdb>  (30) 
B1159b

>  <inspiration_score>  (30) 
None

>  <inchikey>  (30) 
SJZVFYRJKFCNKX-KRWDZBQOSA-N

>  <tags>  (30) 
BulkDock Fragalysis export,openbind_d68ev3c_c2_elabs_scored,openbind_d68ev3c_c2_elabs_scored_4.5plus,openbind_d68ev3c_c2_elabs,openbind_d68ev3c_c2_elabs_scored_top80percent_despaghettified,openbind_d68ev3c_c2_elabs_scored_5plus,syndirella_product,openbind_d68ev3c_c2_elabs_scored_top80percent,syndirella_placed

>  <smiles>  (30) 
O=C(NC1(c2n[nH]c(-c3cccs3)n2)CCC1)[C@@]1(Cl)CC12CCC2

>  <subsites>  (30) 
None

>  <rmsd(smina/fragmenstein)>  (30) 
1.46

>  <alias>  (30) 
None

>  <energy_score>  (30) 
-14.467649

>  <HIPPO Pose ID>  (30) 
86511

>  <distance_score>  (30) 
1.662583

>  <HIPPO Compound ID>  (30) 
121888

>  <gnina_score_min>  (30) 
5.011

>  <name>  (30) 
P86511

>  <exports>  (30) 
['/opt/xchem-fragalysis-2/maxwin/BulkDock/OUTPUTS/openbind_d68ev3c_c2_elabs_1LOTQJ3.sdf', '/opt/xchem-fragalysis-2/maxwin/BulkDock/OUTPUTS/openbind_d68ev3c_c2_elabs_1LSYEHW.sdf', '/opt/xchem-fragalysis-2/maxwin/BulkDock/OUTPUTS/openbind_d68ev3c_c2_elabs_1LSYI5W.sdf', '/opt/xchem-fragalysis-2/maxwin/openbind-hippo/d68ev3c/cycle_02/gnina/openbind_d68ev3c_c2_elabs_scored_5plus_products.sdf']

$$$$
P86512
     RDKit          3D

 25 29  0  0  0  0  0  0  0  0999 V2000
  -19.9448   -2.0089   19.6706 O   0  0  0  0  0  0  0  0  0  0  0  0
  -20.7366   -1.1862   19.9290 C   0  0  0  0  0  0  0  0  0  0  0  0
  -21.9291   -0.6269   19.0844 N   0  0  0  0  0  0  0  0  0  0  0  0
  -22.3272   -0.9048   17.7070 C   0  0  0  0  0  0  0  0  0  0  0  0
  -23.4980   -1.9748   17.6164 C   0  0  0  0  0  0  0  0  0  0  0  0
  -23.6717   -2.9751   18.5017 N   0  0  0  0  0  0  0  0  0  0  0  0
  -24.7764   -3.5754   18.0062 N   0  0  0  0  0  0  0  0  0  0  0  0
  -25.2137   -2.9669   16.8664 C   0  0  0  0  0  0  0  0  0  0  0  0
  -26.3444   -3.3692   16.0886 C   0  0  0  0  0  0  0  0  0  0  0  0
  -26.8109   -2.7530   14.9431 C   0  0  0  0  0  0  0  0  0  0  0  0
  -27.9623   -3.3970   14.4038 C   0  0  0  0  0  0  0  0  0  0  0  0
  -28.3378   -4.4881   15.1543 C   0  0  0  0  0  0  0  0  0  0  0  0
  -27.3051   -4.7292   16.4957 S   0  0  0  0  0  0  0  0  0  0  0  0
  -24.4294   -1.9454   16.6058 N   0  0  0  0  0  0  0  0  0  0  0  0
  -21.1859   -1.1453   16.6934 C   0  0  0  0  0  0  0  0  0  0  0  0
  -21.8442   -0.1197   15.7512 C   0  0  0  0  0  0  0  0  0  0  0  0
  -22.6225    0.4278   16.9551 C   0  0  0  0  0  0  0  0  0  0  0  0
  -20.7713   -0.4127   21.2742 C   0  0  2  0  0  0  0  0  0  0  0  0
  -22.2627   -0.9292   22.0728 Cl  0  0  0  0  0  0  0  0  0  0  0  0
  -20.6922    1.1158   21.0976 C   0  0  0  0  0  0  0  0  0  0  0  0
  -19.4847    1.4780   21.9576 C   0  0  1  0  0  0  0  0  0  0  0  0
  -19.7864    1.3131   23.4461 C   0  0  0  0  0  0  0  0  0  0  0  0
  -19.7143   -0.2055   23.6195 C   0  0  0  0  0  0  0  0  0  0  0  0
  -19.5589   -0.6853   22.1712 C   0  0  2  0  0  0  0  0  0  0  0  0
  -18.6308    0.3420   21.7188 O   0  0  0  0  0  0  0  0  0  0  0  0
  1  2  2  0
  2  3  1  0
  3  4  1  0
  4  5  1  0
  5  6  2  0
  6  7  1  0
  7  8  1  0
  8  9  1  0
  9 10  2  0
 10 11  1  0
 11 12  2  0
 12 13  1  0
  8 14  2  0
  4 15  1  0
 15 16  1  0
 16 17  1  0
  2 18  1  0
 18 19  1  1
 18 20  1  0
 21 20  1  6
 21 22  1  0
 22 23  1  0
 24 23  1  1
 24 25  1  0
 17  4  1  0
 24 18  1  0
 14  5  1  0
 25 21  1  0
 13  9  1  0
M  END
>  <ref_mols>  (31) 
B1159b

>  <gnina_score>  (31) 
4.809

>  <smina_score_min>  (31) 
-5.004

>  <ref_pdb>  (31) 
B1159b

>  <inspiration_score>  (31) 
None

>  <inchikey>  (31) 
SXYOZKCBQDSBJT-MOCULFSLSA-N

>  <tags>  (31) 
BulkDock Fragalysis export,openbind_d68ev3c_c2_elabs_scored,openbind_d68ev3c_c2_elabs,openbind_d68ev3c_c2_elabs_scored_top80percent_despaghettified,syndirella_product,openbind_d68ev3c_c2_elabs_scored_top80percent,syndirella_placed

>  <smiles>  (31) 
O=C(NC1(c2n[nH]c(-c3cccs3)n2)CCC1)[C@]1(Cl)C[C@H]2CC[C@@H]1O2

>  <subsites>  (31) 
None

>  <rmsd(smina/fragmenstein)>  (31) 
1.841

>  <alias>  (31) 
None

>  <energy_score>  (31) 
-50.035251

>  <HIPPO Pose ID>  (31) 
86512

>  <distance_score>  (31) 
1.323032

>  <HIPPO Compound ID>  (31) 
121890

>  <gnina_score_min>  (31) 
4.387

>  <name>  (31) 
P86512

>  <exports>  (31) 
['/opt/xchem-fragalysis-2/maxwin/BulkDock/OUTPUTS/openbind_d68ev3c_c2_elabs_1LOTQJ3.sdf', '/opt/xchem-fragalysis-2/maxwin/BulkDock/OUTPUTS/openbind_d68ev3c_c2_elabs_1LSYEHW.sdf', '/opt/xchem-fragalysis-2/maxwin/BulkDock/OUTPUTS/openbind_d68ev3c_c2_elabs_1LSYI5W.sdf']

$$$$
P86516
     RDKit          3D

 25 28  0  0  0  0  0  0  0  0999 V2000
  -20.2810   -2.6509   19.3128 O   0  0  0  0  0  0  0  0  0  0  0  0
  -20.7785   -1.6873   19.7531 C   0  0  0  0  0  0  0  0  0  0  0  0
  -21.7621   -0.6729   19.1010 N   0  0  0  0  0  0  0  0  0  0  0  0
  -22.4167   -0.6907   17.7887 C   0  0  0  0  0  0  0  0  0  0  0  0
  -23.5183   -1.8357   17.6781 C   0  0  0  0  0  0  0  0  0  0  0  0
  -23.7018   -2.8093   18.5941 N   0  0  0  0  0  0  0  0  0  0  0  0
  -24.7580   -3.4701   18.0641 N   0  0  0  0  0  0  0  0  0  0  0  0
  -25.1736   -2.9059   16.8941 C   0  0  0  0  0  0  0  0  0  0  0  0
  -26.2784   -3.3499   16.1013 C   0  0  0  0  0  0  0  0  0  0  0  0
  -26.7361   -2.7658   14.9355 C   0  0  0  0  0  0  0  0  0  0  0  0
  -27.8694   -3.4385   14.3928 C   0  0  0  0  0  0  0  0  0  0  0  0
  -28.2386   -4.5205   15.1594 C   0  0  0  0  0  0  0  0  0  0  0  0
  -27.2216   -4.7189   16.5199 S   0  0  0  0  0  0  0  0  0  0  0  0
  -24.4077   -1.8718   16.6298 N   0  0  0  0  0  0  0  0  0  0  0  0
  -21.4504   -0.6313   16.5791 C   0  0  0  0  0  0  0  0  0  0  0  0
  -21.6318    0.8990   16.5646 C   0  0  0  0  0  0  0  0  0  0  0  0
  -22.9374    0.7080   17.3535 C   0  0  0  0  0  0  0  0  0  0  0  0
  -20.5772   -1.3173   21.2368 C   0  0  1  0  0  0  0  0  0  0  0  0
  -19.5097    0.0879   21.3322 Cl  0  0  0  0  0  0  0  0  0  0  0  0
  -21.8571   -1.0353   22.0176 C   0  0  0  0  0  0  0  0  0  0  0  0
  -21.7404   -1.2727   23.4407 N   0  0  0  0  0  0  0  0  0  0  0  0
  -22.4005   -0.6361   24.4450 C   0  0  0  0  0  0  0  0  0  0  0  0
  -22.0537   -1.1582   25.5991 N   0  0  0  0  0  0  0  0  0  0  0  0
  -21.1744   -2.1415   25.2385 C   0  0  0  0  0  0  0  0  0  0  0  0
  -20.9327   -2.2272   23.9276 N   0  0  0  0  0  0  0  0  0  0  0  0
  1  2  2  0
  2  3  1  0
  3  4  1  0
  4  5  1  0
  5  6  2  0
  6  7  1  0
  7  8  1  0
  8  9  1  0
  9 10  2  0
 10 11  1  0
 11 12  2  0
 12 13  1  0
  8 14  2  0
  4 15  1  0
 15 16  1  0
 16 17  1  0
  2 18  1  0
 18 19  1  6
 18 20  1  0
 20 21  1  0
 21 22  1  0
 22 23  2  0
 23 24  1  0
 24 25  2  0
 17  4  1  0
 25 21  1  0
 14  5  1  0
 13  9  1  0
M  END
>  <ref_mols>  (32) 
B1159b

>  <gnina_score>  (32) 
5.271

>  <smina_score_min>  (32) 
-4.034

>  <ref_pdb>  (32) 
B1159b

>  <inspiration_score>  (32) 
None

>  <inchikey>  (32) 
SZRVBFPUWRWUDL-JTQLQIEISA-N

>  <tags>  (32) 
BulkDock Fragalysis export,openbind_d68ev3c_c2_elabs_scored,openbind_d68ev3c_c2_elabs_scored_4.5plus,openbind_d68ev3c_c2_elabs,openbind_d68ev3c_c2_elabs_scored_top80percent_despaghettified,syndirella_product,openbind_d68ev3c_c2_elabs_scored_top80percent,syndirella_placed

>  <smiles>  (32) 
O=C(NC1(c2n[nH]c(-c3cccs3)n2)CCC1)[C@@H](Cl)Cn1cncn1

>  <subsites>  (32) 
None

>  <rmsd(smina/fragmenstein)>  (32) 
1.706

>  <alias>  (32) 
None

>  <energy_score>  (32) 
-24.192269

>  <HIPPO Pose ID>  (32) 
86516

>  <distance_score>  (32) 
1.020725

>  <HIPPO Compound ID>  (32) 
121891

>  <gnina_score_min>  (32) 
4.716

>  <name>  (32) 
P86516

>  <exports>  (32) 
['/opt/xchem-fragalysis-2/maxwin/BulkDock/OUTPUTS/openbind_d68ev3c_c2_elabs_1LOTQJ3.sdf', '/opt/xchem-fragalysis-2/maxwin/BulkDock/OUTPUTS/openbind_d68ev3c_c2_elabs_1LSYEHW.sdf', '/opt/xchem-fragalysis-2/maxwin/BulkDock/OUTPUTS/openbind_d68ev3c_c2_elabs_1LSYI5W.sdf']

$$$$
P86517
     RDKit          3D

 25 28  0  0  0  0  0  0  0  0999 V2000
  -21.0176   -2.2330   24.7951 C   0  0  0  0  0  0  0  0  0  0  0  0
  -20.0771   -2.8826   23.9308 O   0  0  0  0  0  0  0  0  0  0  0  0
  -19.6225   -2.3644   22.7573 C   0  0  0  0  0  0  0  0  0  0  0  0
  -18.8699   -3.0088   22.0415 O   0  0  0  0  0  0  0  0  0  0  0  0
  -19.9822   -0.9559   22.4334 C   0  0  2  0  0  0  0  0  0  0  0  0
  -18.9867    0.2855   23.3129 Cl  0  0  0  0  0  0  0  0  0  0  0  0
  -21.4183   -0.5683   22.1827 C   0  0  0  0  0  0  0  0  0  0  0  0
  -20.4251   -0.4875   21.0564 C   0  0  2  0  0  0  0  0  0  0  0  0
  -20.7035   -1.3144   19.8517 C   0  0  0  0  0  0  0  0  0  0  0  0
  -20.0921   -2.2715   19.6098 O   0  0  0  0  0  0  0  0  0  0  0  0
  -21.7996   -0.6033   19.0454 N   0  0  0  0  0  0  0  0  0  0  0  0
  -22.3174   -0.8711   17.7047 C   0  0  0  0  0  0  0  0  0  0  0  0
  -23.5033   -1.9268   17.6666 C   0  0  0  0  0  0  0  0  0  0  0  0
  -23.6934   -2.8962   18.5818 N   0  0  0  0  0  0  0  0  0  0  0  0
  -24.7917   -3.5128   18.0874 N   0  0  0  0  0  0  0  0  0  0  0  0
  -25.2159   -2.9363   16.9264 C   0  0  0  0  0  0  0  0  0  0  0  0
  -26.3366   -3.3576   16.1442 C   0  0  0  0  0  0  0  0  0  0  0  0
  -26.7901   -2.7664   14.9802 C   0  0  0  0  0  0  0  0  0  0  0  0
  -27.9342   -3.4231   14.4409 C   0  0  0  0  0  0  0  0  0  0  0  0
  -28.3166   -4.4993   15.2092 C   0  0  0  0  0  0  0  0  0  0  0  0
  -27.2996   -4.7106   16.5677 S   0  0  0  0  0  0  0  0  0  0  0  0
  -24.4273   -1.9237   16.6475 N   0  0  0  0  0  0  0  0  0  0  0  0
  -22.6491    0.4709   16.9815 C   0  0  0  0  0  0  0  0  0  0  0  0
  -21.9417   -0.0642   15.7294 C   0  0  0  0  0  0  0  0  0  0  0  0
  -21.2421   -1.1106   16.6161 C   0  0  0  0  0  0  0  0  0  0  0  0
  1  2  1  0
  2  3  1  0
  3  4  2  0
  3  5  1  0
  5  6  1  1
  5  7  1  0
  7  8  1  0
  8  9  1  6
  9 10  2  0
  9 11  1  0
 11 12  1  0
 12 13  1  0
 13 14  2  0
 14 15  1  0
 15 16  1  0
 16 17  1  0
 17 18  2  0
 18 19  1  0
 19 20  2  0
 20 21  1  0
 16 22  2  0
 12 23  1  0
 23 24  1  0
 24 25  1  0
  8  5  1  0
 25 12  1  0
 22 13  1  0
 21 17  1  0
M  END
>  <ref_mols>  (33) 
B1159b

>  <gnina_score>  (33) 
5.047

>  <smina_score_min>  (33) 
-4.634

>  <ref_pdb>  (33) 
B1159b

>  <inspiration_score>  (33) 
None

>  <inchikey>  (33) 
KMLQEHBLQYQGAW-ABKXIKBNSA-N

>  <tags>  (33) 
BulkDock Fragalysis export,openbind_d68ev3c_c2_elabs_scored,openbind_d68ev3c_c2_elabs,openbind_d68ev3c_c2_elabs_scored_top80percent_despaghettified,syndirella_product,openbind_d68ev3c_c2_elabs_scored_top80percent,syndirella_placed

>  <smiles>  (33) 
COC(=O)[C@]1(Cl)C[C@@H]1C(=O)NC1(c2n[nH]c(-c3cccs3)n2)CCC1

>  <subsites>  (33) 
None

>  <rmsd(smina/fragmenstein)>  (33) 
1.535

>  <alias>  (33) 
None

>  <energy_score>  (33) 
-23.863947

>  <HIPPO Pose ID>  (33) 
86517

>  <distance_score>  (33) 
1.200038

>  <HIPPO Compound ID>  (33) 
121892

>  <gnina_score_min>  (33) 
4.472

>  <name>  (33) 
P86517

>  <exports>  (33) 
['/opt/xchem-fragalysis-2/maxwin/BulkDock/OUTPUTS/openbind_d68ev3c_c2_elabs_1LOTQJ3.sdf', '/opt/xchem-fragalysis-2/maxwin/BulkDock/OUTPUTS/openbind_d68ev3c_c2_elabs_1LSYEHW.sdf', '/opt/xchem-fragalysis-2/maxwin/BulkDock/OUTPUTS/openbind_d68ev3c_c2_elabs_1LSYI5W.sdf']

$$$$
P86524
     RDKit          3D

 25 28  0  0  0  0  0  0  0  0999 V2000
  -17.4538   -0.9466   14.0286 O   0  0  0  0  0  0  0  0  0  0  0  0
  -18.4701   -1.3836   14.5384 C   0  0  0  0  0  0  0  0  0  0  0  0
  -19.8350   -1.4795   13.9080 C   0  0  0  0  0  0  0  0  0  0  0  0
  -20.6126   -2.2890   14.9449 C   0  0  0  0  0  0  0  0  0  0  0  0
  -19.9119   -1.9259   16.2605 C   0  0  1  0  0  0  0  0  0  0  0  0
  -20.2382   -2.8747   17.4465 C   0  0  1  0  0  0  0  0  0  0  0  0
  -19.5547   -2.4511   19.0527 Cl  0  0  0  0  0  0  0  0  0  0  0  0
  -21.7313   -2.7900   17.5708 C   0  0  0  0  0  0  0  0  0  0  0  0
  -22.4460   -3.6891   17.3439 O   0  0  0  0  0  0  0  0  0  0  0  0
  -22.0559   -1.3063   17.9353 N   0  0  0  0  0  0  0  0  0  0  0  0
  -23.3239   -0.6104   17.9992 C   0  0  0  0  0  0  0  0  0  0  0  0
  -24.4899   -1.6362   17.9822 C   0  0  0  0  0  0  0  0  0  0  0  0
  -24.6215   -2.6112   18.8985 N   0  0  0  0  0  0  0  0  0  0  0  0
  -25.5237   -3.4095   18.2892 N   0  0  0  0  0  0  0  0  0  0  0  0
  -25.8916   -2.9120   17.0715 C   0  0  0  0  0  0  0  0  0  0  0  0
  -26.8157   -3.4965   16.1558 C   0  0  0  0  0  0  0  0  0  0  0  0
  -27.1927   -2.9616   14.9382 C   0  0  0  0  0  0  0  0  0  0  0  0
  -28.1565   -3.7637   14.2654 C   0  0  0  0  0  0  0  0  0  0  0  0
  -28.4747   -4.8916   14.9875 C   0  0  0  0  0  0  0  0  0  0  0  0
  -27.6093   -4.9793   16.4603 S   0  0  0  0  0  0  0  0  0  0  0  0
  -25.2572   -1.7840   16.8599 N   0  0  0  0  0  0  0  0  0  0  0  0
  -23.3939    0.4548   16.8565 C   0  0  0  0  0  0  0  0  0  0  0  0
  -22.8254    1.4707   17.8610 C   0  0  0  0  0  0  0  0  0  0  0  0
  -23.3864    0.5649   18.9855 C   0  0  0  0  0  0  0  0  0  0  0  0
  -18.5566   -1.8526   15.8305 N   0  0  0  0  0  0  0  0  0  0  0  0
  1  2  2  0
  2  3  1  0
  3  4  1  0
  5  4  1  6
  5  6  1  0
  6  7  1  1
  6  8  1  0
  8  9  2  0
  8 10  1  0
 10 11  1  0
 11 12  1  0
 12 13  2  0
 13 14  1  0
 14 15  1  0
 15 16  1  0
 16 17  2  0
 17 18  1  0
 18 19  2  0
 19 20  1  0
 15 21  2  0
 11 22  1  0
 22 23  1  0
 23 24  1  0
  5 25  1  0
 25  2  1  0
 24 11  1  0
 21 12  1  0
 20 16  1  0
M  END
>  <ref_mols>  (34) 
B1159b

>  <gnina_score>  (34) 
4.916

>  <smina_score_min>  (34) 
-3.965

>  <ref_pdb>  (34) 
B1159b

>  <inspiration_score>  (34) 
None

>  <inchikey>  (34) 
KTLZNFHLUPGMBM-JOYOIKCWSA-N

>  <tags>  (34) 
BulkDock Fragalysis export,openbind_d68ev3c_c2_elabs_scored,openbind_d68ev3c_c2_elabs_scored_4.5plus,openbind_d68ev3c_c2_elabs,openbind_d68ev3c_c2_elabs_scored_top80percent_despaghettified,syndirella_product,openbind_d68ev3c_c2_elabs_scored_top80percent,syndirella_placed

>  <smiles>  (34) 
O=C1CC[C@@H]([C@@H](Cl)C(=O)NC2(c3n[nH]c(-c4cccs4)n3)CCC2)N1

>  <subsites>  (34) 
None

>  <rmsd(smina/fragmenstein)>  (34) 
2.626

>  <alias>  (34) 
None

>  <energy_score>  (34) 
-54.475771

>  <HIPPO Pose ID>  (34) 
86524

>  <distance_score>  (34) 
1.414581

>  <HIPPO Compound ID>  (34) 
121895

>  <gnina_score_min>  (34) 
4.512

>  <name>  (34) 
P86524

>  <exports>  (34) 
['/opt/xchem-fragalysis-2/maxwin/BulkDock/OUTPUTS/openbind_d68ev3c_c2_elabs_1LOTQJ3.sdf', '/opt/xchem-fragalysis-2/maxwin/BulkDock/OUTPUTS/openbind_d68ev3c_c2_elabs_1LSYEHW.sdf', '/opt/xchem-fragalysis-2/maxwin/BulkDock/OUTPUTS/openbind_d68ev3c_c2_elabs_1LSYI5W.sdf']

$$$$
P86526
     RDKit          3D

 26 30  0  0  0  0  0  0  0  0999 V2000
  -23.0617   -2.6716   18.6745 O   0  0  0  0  0  0  0  0  0  0  0  0
  -22.2191   -1.9711   18.2837 C   0  0  0  0  0  0  0  0  0  0  0  0
  -22.2905   -0.5517   17.7214 N   0  0  0  0  0  0  0  0  0  0  0  0
  -23.4278    0.2832   17.4278 C   0  0  0  0  0  0  0  0  0  0  0  0
  -24.7059   -0.6359   17.3634 C   0  0  0  0  0  0  0  0  0  0  0  0
  -25.3410   -1.0502   18.4693 N   0  0  0  0  0  0  0  0  0  0  0  0
  -26.0291   -2.1028   18.0034 N   0  0  0  0  0  0  0  0  0  0  0  0
  -25.9098   -2.2146   16.6496 C   0  0  0  0  0  0  0  0  0  0  0  0
  -26.6666   -3.1050   15.8318 C   0  0  0  0  0  0  0  0  0  0  0  0
  -26.8357   -3.0041   14.4655 C   0  0  0  0  0  0  0  0  0  0  0  0
  -27.7273   -3.9898   13.9548 C   0  0  0  0  0  0  0  0  0  0  0  0
  -28.1819   -4.8334   14.9431 C   0  0  0  0  0  0  0  0  0  0  0  0
  -27.5345   -4.4345   16.4738 S   0  0  0  0  0  0  0  0  0  0  0  0
  -25.0438   -1.3220   16.2193 N   0  0  0  0  0  0  0  0  0  0  0  0
  -23.1755    1.1488   16.1687 C   0  0  0  0  0  0  0  0  0  0  0  0
  -23.7803    2.3330   16.9300 C   0  0  0  0  0  0  0  0  0  0  0  0
  -23.5149    1.5765   18.2450 C   0  0  0  0  0  0  0  0  0  0  0  0
  -20.8397   -2.4574   18.1811 C   0  0  1  0  0  0  0  0  0  0  0  0
  -19.7896   -1.9807   19.5275 Cl  0  0  0  0  0  0  0  0  0  0  0  0
  -20.4660   -3.8200   17.7009 C   0  0  0  0  0  0  0  0  0  0  0  0
  -20.4634   -2.7027   16.6940 C   0  0  0  0  0  0  0  0  0  0  0  0
  -19.3158   -1.8761   16.1992 C   0  0  0  0  0  0  0  0  0  0  0  0
  -19.0715   -2.1198   14.7156 C   0  0  0  0  0  0  0  0  0  0  0  0
  -20.1736   -1.7069   13.9031 O   0  0  0  0  0  0  0  0  0  0  0  0
  -21.4553   -1.8591   14.5193 C   0  0  0  0  0  0  0  0  0  0  0  0
  -21.4929   -2.9582   15.5776 C   0  0  0  0  0  0  0  0  0  0  0  0
  1  2  2  0
  2  3  1  0
  3  4  1  0
  4  5  1  0
  5  6  2  0
  6  7  1  0
  7  8  1  0
  8  9  1  0
  9 10  2  0
 10 11  1  0
 11 12  2  0
 12 13  1  0
  8 14  2  0
  4 15  1  0
 15 16  1  0
 16 17  1  0
  2 18  1  0
 18 19  1  1
 18 20  1  0
 20 21  1  0
 21 22  1  0
 22 23  1  0
 23 24  1  0
 24 25  1  0
 25 26  1  0
 17  4  1  0
 21 18  1  0
 14  5  1  0
 26 21  1  0
 13  9  1  0
M  END
>  <ref_mols>  (35) 
B1159b

>  <gnina_score>  (35) 
5.489

>  <smina_score_min>  (35) 
-2.37

>  <ref_pdb>  (35) 
B1159b

>  <inspiration_score>  (35) 
None

>  <inchikey>  (35) 
HDPCQANCDLCDLF-SFHVURJKSA-N

>  <tags>  (35) 
BulkDock Fragalysis export,openbind_d68ev3c_c2_elabs_scored,openbind_d68ev3c_c2_elabs_scored_4.5plus,openbind_d68ev3c_c2_elabs,openbind_d68ev3c_c2_elabs_scored_top80percent_despaghettified,openbind_d68ev3c_c2_elabs_scored_5plus,syndirella_product,openbind_d68ev3c_c2_elabs_scored_top80percent,syndirella_placed

>  <smiles>  (35) 
O=C(NC1(c2n[nH]c(-c3cccs3)n2)CCC1)[C@@]1(Cl)CC12CCOCC2

>  <subsites>  (35) 
None

>  <rmsd(smina/fragmenstein)>  (35) 
1.425

>  <alias>  (35) 
None

>  <energy_score>  (35) 
-35.986015

>  <HIPPO Pose ID>  (35) 
86526

>  <distance_score>  (35) 
1.734838

>  <HIPPO Compound ID>  (35) 
121896

>  <gnina_score_min>  (35) 
5.115

>  <name>  (35) 
P86526

>  <exports>  (35) 
['/opt/xchem-fragalysis-2/maxwin/BulkDock/OUTPUTS/openbind_d68ev3c_c2_elabs_1LOTQJ3.sdf', '/opt/xchem-fragalysis-2/maxwin/BulkDock/OUTPUTS/openbind_d68ev3c_c2_elabs_1LSYEHW.sdf', '/opt/xchem-fragalysis-2/maxwin/BulkDock/OUTPUTS/openbind_d68ev3c_c2_elabs_1LSYI5W.sdf', '/opt/xchem-fragalysis-2/maxwin/openbind-hippo/d68ev3c/cycle_02/gnina/openbind_d68ev3c_c2_elabs_scored_5plus_products.sdf']

$$$$
P86530
     RDKit          3D

 26 29  0  0  0  0  0  0  0  0999 V2000
  -20.1238   -0.7457   16.0790 O   0  0  0  0  0  0  0  0  0  0  0  0
  -20.7451   -1.2573   16.9686 C   0  0  0  0  0  0  0  0  0  0  0  0
  -22.1559   -1.5163   17.1021 N   0  0  0  0  0  0  0  0  0  0  0  0
  -23.2511   -1.3290   16.1698 C   0  0  0  0  0  0  0  0  0  0  0  0
  -24.4270   -2.2922   16.6296 C   0  0  0  0  0  0  0  0  0  0  0  0
  -24.3676   -3.0267   17.7632 N   0  0  0  0  0  0  0  0  0  0  0  0
  -25.5324   -3.7063   17.6830 N   0  0  0  0  0  0  0  0  0  0  0  0
  -26.2217   -3.3899   16.5478 C   0  0  0  0  0  0  0  0  0  0  0  0
  -27.4630   -3.9563   16.1285 C   0  0  0  0  0  0  0  0  0  0  0  0
  -28.1623   -3.6147   14.9866 C   0  0  0  0  0  0  0  0  0  0  0  0
  -29.3609   -4.3676   14.8345 C   0  0  0  0  0  0  0  0  0  0  0  0
  -29.5374   -5.2613   15.8665 C   0  0  0  0  0  0  0  0  0  0  0  0
  -28.2650   -5.1859   17.0070 S   0  0  0  0  0  0  0  0  0  0  0  0
  -25.5515   -2.4818   15.8780 N   0  0  0  0  0  0  0  0  0  0  0  0
  -23.6671    0.1407   15.9382 C   0  0  0  0  0  0  0  0  0  0  0  0
  -23.8147   -0.1818   14.4401 C   0  0  0  0  0  0  0  0  0  0  0  0
  -22.9172   -1.4159   14.6615 C   0  0  0  0  0  0  0  0  0  0  0  0
  -20.0207   -1.8230   18.2088 C   0  0  2  0  0  0  0  0  0  0  0  0
  -20.3980   -3.6144   18.1699 Cl  0  0  0  0  0  0  0  0  0  0  0  0
  -20.3247   -1.2643   19.6024 C   0  0  0  0  0  0  0  0  0  0  0  0
  -19.8225   -1.9942   20.7098 C   0  0  0  0  0  0  0  0  0  0  0  0
  -20.0379   -1.6056   22.0342 C   0  0  0  0  0  0  0  0  0  0  0  0
  -20.7366   -0.4419   22.3009 C   0  0  0  0  0  0  0  0  0  0  0  0
  -21.1865    0.3367   21.2400 C   0  0  0  0  0  0  0  0  0  0  0  0
  -20.9704   -0.0516   19.9050 C   0  0  0  0  0  0  0  0  0  0  0  0
  -21.5159    1.0940   18.7382 Cl  0  0  0  0  0  0  0  0  0  0  0  0
  1  2  2  0
  2  3  1  0
  3  4  1  0
  4  5  1  0
  5  6  2  0
  6  7  1  0
  7  8  1  0
  8  9  1  0
  9 10  2  0
 10 11  1  0
 11 12  2  0
 12 13  1  0
  8 14  2  0
  4 15  1  0
 15 16  1  0
 16 17  1  0
  2 18  1  0
 18 19  1  1
 18 20  1  0
 20 21  2  0
 21 22  1  0
 22 23  2  0
 23 24  1  0
 24 25  2  0
 25 26  1  0
 17  4  1  0
 25 20  1  0
 14  5  1  0
 13  9  1  0
M  END
>  <ref_mols>  (36) 
B1159b

>  <gnina_score>  (36) 
5.305

>  <smina_score_min>  (36) 
-3.697

>  <ref_pdb>  (36) 
B1159b

>  <inspiration_score>  (36) 
None

>  <inchikey>  (36) 
FVBBCHIZODDLSA-CQSZACIVSA-N

>  <tags>  (36) 
BulkDock Fragalysis export,openbind_d68ev3c_c2_elabs_scored,openbind_d68ev3c_c2_elabs_scored_4.5plus,openbind_d68ev3c_c2_elabs,openbind_d68ev3c_c2_elabs_scored_top80percent_despaghettified,openbind_d68ev3c_c2_elabs_scored_5plus,syndirella_product,openbind_d68ev3c_c2_elabs_scored_top80percent,syndirella_placed

>  <smiles>  (36) 
O=C(NC1(c2n[nH]c(-c3cccs3)n2)CCC1)[C@H](Cl)c1ccccc1Cl

>  <subsites>  (36) 
None

>  <rmsd(smina/fragmenstein)>  (36) 
1.345

>  <alias>  (36) 
None

>  <energy_score>  (36) 
-45.200848

>  <HIPPO Pose ID>  (36) 
86530

>  <distance_score>  (36) 
1.963435

>  <HIPPO Compound ID>  (36) 
121901

>  <gnina_score_min>  (36) 
5.322

>  <name>  (36) 
P86530

>  <exports>  (36) 
['/opt/xchem-fragalysis-2/maxwin/BulkDock/OUTPUTS/openbind_d68ev3c_c2_elabs_1LOTQJ3.sdf', '/opt/xchem-fragalysis-2/maxwin/BulkDock/OUTPUTS/openbind_d68ev3c_c2_elabs_1LSYEHW.sdf', '/opt/xchem-fragalysis-2/maxwin/BulkDock/OUTPUTS/openbind_d68ev3c_c2_elabs_1LSYI5W.sdf', '/opt/xchem-fragalysis-2/maxwin/openbind-hippo/d68ev3c/cycle_02/gnina/openbind_d68ev3c_c2_elabs_scored_5plus_products.sdf']

$$$$
P86531
     RDKit          3D

 26 29  0  0  0  0  0  0  0  0999 V2000
  -24.9398   -1.4086   24.6083 C   0  0  0  0  0  0  0  0  0  0  0  0
  -24.3161   -0.8275   23.3547 C   0  0  0  0  0  0  0  0  0  0  0  0
  -22.9274   -1.1731   23.3456 O   0  0  0  0  0  0  0  0  0  0  0  0
  -22.2568   -0.8044   22.2236 C   0  0  0  0  0  0  0  0  0  0  0  0
  -22.7302   -0.1392   21.3086 O   0  0  0  0  0  0  0  0  0  0  0  0
  -20.8186   -1.2354   22.2195 C   0  0  2  0  0  0  0  0  0  0  0  0
  -20.1672   -1.9050   23.7839 Cl  0  0  0  0  0  0  0  0  0  0  0  0
  -19.8303   -0.3149   21.5184 C   0  0  0  0  0  0  0  0  0  0  0  0
  -20.0392   -1.7090   21.0016 C   0  0  2  0  0  0  0  0  0  0  0  0
  -20.5223   -1.9850   19.6050 C   0  0  0  0  0  0  0  0  0  0  0  0
  -20.0034   -2.8806   19.0730 O   0  0  0  0  0  0  0  0  0  0  0  0
  -21.6341   -1.0485   19.1181 N   0  0  0  0  0  0  0  0  0  0  0  0
  -22.2913   -0.9510   17.8169 C   0  0  0  0  0  0  0  0  0  0  0  0
  -23.4882   -1.9906   17.6728 C   0  0  0  0  0  0  0  0  0  0  0  0
  -23.7101   -2.9984   18.5402 N   0  0  0  0  0  0  0  0  0  0  0  0
  -24.8080   -3.5707   18.0034 N   0  0  0  0  0  0  0  0  0  0  0  0
  -25.2003   -2.9396   16.8601 C   0  0  0  0  0  0  0  0  0  0  0  0
  -26.3192   -3.3129   16.0509 C   0  0  0  0  0  0  0  0  0  0  0  0
  -26.7495   -2.6766   14.9025 C   0  0  0  0  0  0  0  0  0  0  0  0
  -27.8992   -3.2952   14.3304 C   0  0  0  0  0  0  0  0  0  0  0  0
  -28.3098   -4.3882   15.0595 C   0  0  0  0  0  0  0  0  0  0  0  0
  -27.3123   -4.6613   16.4209 S   0  0  0  0  0  0  0  0  0  0  0  0
  -24.3869   -1.9322   16.6328 N   0  0  0  0  0  0  0  0  0  0  0  0
  -21.3372   -0.9318   16.5976 C   0  0  0  0  0  0  0  0  0  0  0  0
  -22.1031    0.2883   16.0537 C   0  0  0  0  0  0  0  0  0  0  0  0
  -22.6723    0.5126   17.4640 C   0  0  0  0  0  0  0  0  0  0  0  0
  1  2  1  0
  2  3  1  0
  3  4  1  0
  4  5  2  0
  4  6  1  0
  6  7  1  1
  6  8  1  0
  8  9  1  0
  9 10  1  6
 10 11  2  0
 10 12  1  0
 12 13  1  0
 13 14  1  0
 14 15  2  0
 15 16  1  0
 16 17  1  0
 17 18  1  0
 18 19  2  0
 19 20  1  0
 20 21  2  0
 21 22  1  0
 17 23  2  0
 13 24  1  0
 24 25  1  0
 25 26  1  0
  9  6  1  0
 26 13  1  0
 23 14  1  0
 22 18  1  0
M  END
>  <ref_mols>  (37) 
B1159b

>  <gnina_score>  (37) 
5.31

>  <smina_score_min>  (37) 
-3.856

>  <ref_pdb>  (37) 
B1159b

>  <inspiration_score>  (37) 
None

>  <inchikey>  (37) 
HRUQOGUQNWSKEW-QGHHPUGFSA-N

>  <tags>  (37) 
BulkDock Fragalysis export,openbind_d68ev3c_c2_elabs_scored,openbind_d68ev3c_c2_elabs_scored_4.5plus,openbind_d68ev3c_c2_elabs,openbind_d68ev3c_c2_elabs_scored_top80percent_despaghettified,openbind_d68ev3c_c2_elabs_scored_5plus,syndirella_product,openbind_d68ev3c_c2_elabs_scored_top80percent,syndirella_placed

>  <smiles>  (37) 
CCOC(=O)[C@]1(Cl)C[C@@H]1C(=O)NC1(c2n[nH]c(-c3cccs3)n2)CCC1

>  <subsites>  (37) 
None

>  <rmsd(smina/fragmenstein)>  (37) 
1.933

>  <alias>  (37) 
None

>  <energy_score>  (37) 
-57.543757

>  <HIPPO Pose ID>  (37) 
86531

>  <distance_score>  (37) 
0.82668

>  <HIPPO Compound ID>  (37) 
121903

>  <gnina_score_min>  (37) 
5.039

>  <name>  (37) 
P86531

>  <exports>  (37) 
['/opt/xchem-fragalysis-2/maxwin/BulkDock/OUTPUTS/openbind_d68ev3c_c2_elabs_1LOTQJ3.sdf', '/opt/xchem-fragalysis-2/maxwin/BulkDock/OUTPUTS/openbind_d68ev3c_c2_elabs_1LSYEHW.sdf', '/opt/xchem-fragalysis-2/maxwin/BulkDock/OUTPUTS/openbind_d68ev3c_c2_elabs_1LSYI5W.sdf', '/opt/xchem-fragalysis-2/maxwin/openbind-hippo/d68ev3c/cycle_02/gnina/openbind_d68ev3c_c2_elabs_scored_5plus_products.sdf']

$$$$
P86534
     RDKit          3D

 26 29  0  0  0  0  0  0  0  0999 V2000
  -18.3271   -0.5852   25.6407 O   0  0  0  0  0  0  0  0  0  0  0  0
  -18.7805   -0.0470   24.6314 C   0  0  0  0  0  0  0  0  0  0  0  0
  -18.2470    1.2752   24.1301 C   0  0  0  0  0  0  0  0  0  0  0  0
  -19.2581    2.0554   23.3087 C   0  0  0  0  0  0  0  0  0  0  0  0
  -19.8310    1.1676   22.2125 C   0  0  0  0  0  0  0  0  0  0  0  0
  -20.5655   -0.0255   22.8414 C   0  0  1  0  0  0  0  0  0  0  0  0
  -21.0957   -1.0379   21.7895 C   0  0  2  0  0  0  0  0  0  0  0  0
  -19.7581   -1.9697   21.0405 Cl  0  0  0  0  0  0  0  0  0  0  0  0
  -22.0181   -0.3682   20.7324 C   0  0  0  0  0  0  0  0  0  0  0  0
  -22.7661    0.4770   21.0441 O   0  0  0  0  0  0  0  0  0  0  0  0
  -21.7554   -1.0210   19.3417 N   0  0  0  0  0  0  0  0  0  0  0  0
  -22.4361   -0.8295   18.0554 C   0  0  0  0  0  0  0  0  0  0  0  0
  -23.5839   -1.9046   17.8209 C   0  0  0  0  0  0  0  0  0  0  0  0
  -23.7089   -3.0217   18.5639 N   0  0  0  0  0  0  0  0  0  0  0  0
  -24.7972   -3.5898   18.0007 N   0  0  0  0  0  0  0  0  0  0  0  0
  -25.2370   -2.8796   16.9226 C   0  0  0  0  0  0  0  0  0  0  0  0
  -26.3379   -3.2454   16.0856 C   0  0  0  0  0  0  0  0  0  0  0  0
  -26.8084   -2.5418   14.9936 C   0  0  0  0  0  0  0  0  0  0  0  0
  -27.9256   -3.1742   14.3737 C   0  0  0  0  0  0  0  0  0  0  0  0
  -28.2725   -4.3436   15.0115 C   0  0  0  0  0  0  0  0  0  0  0  0
  -27.2530   -4.6729   16.3438 S   0  0  0  0  0  0  0  0  0  0  0  0
  -24.4857   -1.8090   16.7876 N   0  0  0  0  0  0  0  0  0  0  0  0
  -22.8306    0.6387   17.7571 C   0  0  0  0  0  0  0  0  0  0  0  0
  -22.2499    0.4779   16.3411 C   0  0  0  0  0  0  0  0  0  0  0  0
  -21.4626   -0.7435   16.8474 C   0  0  0  0  0  0  0  0  0  0  0  0
  -19.7223   -0.6776   23.8618 N   0  0  0  0  0  0  0  0  0  0  0  0
  1  2  2  0
  2  3  1  0
  3  4  1  0
  4  5  1  0
  6  5  1  6
  6  7  1  0
  7  8  1  6
  7  9  1  0
  9 10  2  0
  9 11  1  0
 11 12  1  0
 12 13  1  0
 13 14  2  0
 14 15  1  0
 15 16  1  0
 16 17  1  0
 17 18  2  0
 18 19  1  0
 19 20  2  0
 20 21  1  0
 16 22  2  0
 12 23  1  0
 23 24  1  0
 24 25  1  0
  6 26  1  0
 26  2  1  0
 25 12  1  0
 22 13  1  0
 21 17  1  0
M  END
>  <ref_mols>  (38) 
B1159b

>  <gnina_score>  (38) 
5.135

>  <smina_score_min>  (38) 
-4.711

>  <ref_pdb>  (38) 
B1159b

>  <inspiration_score>  (38) 
None

>  <inchikey>  (38) 
IPLFWAHRRMHFNK-GWCFXTLKSA-N

>  <tags>  (38) 
BulkDock Fragalysis export,openbind_d68ev3c_c2_elabs_scored,openbind_d68ev3c_c2_elabs_scored_4.5plus,openbind_d68ev3c_c2_elabs,openbind_d68ev3c_c2_elabs_scored_top80percent_despaghettified,syndirella_product,openbind_d68ev3c_c2_elabs_scored_top80percent,syndirella_placed

>  <smiles>  (38) 
O=C1CCC[C@@H]([C@H](Cl)C(=O)NC2(c3n[nH]c(-c4cccs4)n3)CCC2)N1

>  <subsites>  (38) 
None

>  <rmsd(smina/fragmenstein)>  (38) 
2.022

>  <alias>  (38) 
None

>  <energy_score>  (38) 
-50.188665

>  <HIPPO Pose ID>  (38) 
86534

>  <distance_score>  (38) 
1.70795

>  <HIPPO Compound ID>  (38) 
121904

>  <gnina_score_min>  (38) 
4.555

>  <name>  (38) 
P86534

>  <exports>  (38) 
['/opt/xchem-fragalysis-2/maxwin/BulkDock/OUTPUTS/openbind_d68ev3c_c2_elabs_1LOTQJ3.sdf', '/opt/xchem-fragalysis-2/maxwin/BulkDock/OUTPUTS/openbind_d68ev3c_c2_elabs_1LSYEHW.sdf', '/opt/xchem-fragalysis-2/maxwin/BulkDock/OUTPUTS/openbind_d68ev3c_c2_elabs_1LSYI5W.sdf']

$$$$
P86537
     RDKit          3D

 26 29  0  0  0  0  0  0  0  0999 V2000
  -19.5940   -1.8793   24.2446 C   0  0  0  0  0  0  0  0  0  0  0  0
  -19.5059   -0.6421   23.5013 N   0  0  0  0  0  0  0  0  0  0  0  0
  -18.5998    0.3574   23.8335 C   0  0  0  0  0  0  0  0  0  0  0  0
  -17.6121    0.2276   24.5421 O   0  0  0  0  0  0  0  0  0  0  0  0
  -19.0488    1.6217   23.1479 C   0  0  0  0  0  0  0  0  0  0  0  0
  -20.5348    1.3475   22.9031 C   0  0  0  0  0  0  0  0  0  0  0  0
  -20.6024   -0.1648   22.6525 C   0  0  1  0  0  0  0  0  0  0  0  0
  -20.4389   -0.4744   21.1409 C   0  0  1  0  0  0  0  0  0  0  0  0
  -19.7964   -2.1234   20.8518 Cl  0  0  0  0  0  0  0  0  0  0  0  0
  -21.7731   -0.3406   20.3754 C   0  0  0  0  0  0  0  0  0  0  0  0
  -22.7510    0.0613   20.8754 O   0  0  0  0  0  0  0  0  0  0  0  0
  -21.4927   -0.7613   18.9009 N   0  0  0  0  0  0  0  0  0  0  0  0
  -22.3414   -0.6809   17.7137 C   0  0  0  0  0  0  0  0  0  0  0  0
  -23.4611   -1.8170   17.6438 C   0  0  0  0  0  0  0  0  0  0  0  0
  -23.5533   -2.8649   18.4889 N   0  0  0  0  0  0  0  0  0  0  0  0
  -24.6667   -3.4783   18.0214 N   0  0  0  0  0  0  0  0  0  0  0  0
  -25.1500   -2.8689   16.9018 C   0  0  0  0  0  0  0  0  0  0  0  0
  -26.2800   -3.3013   16.1389 C   0  0  0  0  0  0  0  0  0  0  0  0
  -26.7972   -2.6799   15.0181 C   0  0  0  0  0  0  0  0  0  0  0  0
  -27.9314   -3.3606   14.4873 C   0  0  0  0  0  0  0  0  0  0  0  0
  -28.2438   -4.4838   15.2190 C   0  0  0  0  0  0  0  0  0  0  0  0
  -27.1724   -4.7114   16.5324 S   0  0  0  0  0  0  0  0  0  0  0  0
  -24.4086   -1.8160   16.6443 N   0  0  0  0  0  0  0  0  0  0  0  0
  -22.8706    0.7550   17.4559 C   0  0  0  0  0  0  0  0  0  0  0  0
  -22.4446    0.6193   15.9846 C   0  0  0  0  0  0  0  0  0  0  0  0
  -21.5333   -0.5505   16.3932 C   0  0  0  0  0  0  0  0  0  0  0  0
  1  2  1  0
  2  3  1  0
  3  4  2  0
  3  5  1  0
  5  6  1  0
  7  6  1  6
  7  8  1  0
  8  9  1  1
  8 10  1  0
 10 11  2  0
 10 12  1  0
 12 13  1  0
 13 14  1  0
 14 15  2  0
 15 16  1  0
 16 17  1  0
 17 18  1  0
 18 19  2  0
 19 20  1  0
 20 21  2  0
 21 22  1  0
 17 23  2  0
 13 24  1  0
 24 25  1  0
 25 26  1  0
  7  2  1  0
 26 13  1  0
 23 14  1  0
 22 18  1  0
M  END
>  <ref_mols>  (39) 
B1159b

>  <gnina_score>  (39) 
4.971

>  <smina_score_min>  (39) 
-4.552

>  <ref_pdb>  (39) 
B1159b

>  <inspiration_score>  (39) 
None

>  <inchikey>  (39) 
MTZUZROBGCNBLI-GXFFZTMASA-N

>  <tags>  (39) 
BulkDock Fragalysis export,openbind_d68ev3c_c2_elabs_scored,openbind_d68ev3c_c2_elabs_scored_4.5plus,openbind_d68ev3c_c2_elabs,openbind_d68ev3c_c2_elabs_scored_top80percent_despaghettified,syndirella_product,openbind_d68ev3c_c2_elabs_scored_top80percent,syndirella_placed

>  <smiles>  (39) 
CN1C(=O)CC[C@H]1[C@@H](Cl)C(=O)NC1(c2n[nH]c(-c3cccs3)n2)CCC1

>  <subsites>  (39) 
None

>  <rmsd(smina/fragmenstein)>  (39) 
2.119

>  <alias>  (39) 
None

>  <energy_score>  (39) 
-56.548248

>  <HIPPO Pose ID>  (39) 
86537

>  <distance_score>  (39) 
1.567421

>  <HIPPO Compound ID>  (39) 
121905

>  <gnina_score_min>  (39) 
4.522

>  <name>  (39) 
P86537

>  <exports>  (39) 
['/opt/xchem-fragalysis-2/maxwin/BulkDock/OUTPUTS/openbind_d68ev3c_c2_elabs_1LOTQJ3.sdf', '/opt/xchem-fragalysis-2/maxwin/BulkDock/OUTPUTS/openbind_d68ev3c_c2_elabs_1LSYEHW.sdf', '/opt/xchem-fragalysis-2/maxwin/BulkDock/OUTPUTS/openbind_d68ev3c_c2_elabs_1LSYI5W.sdf']

$$$$
P86538
     RDKit          3D

 26 28  0  0  0  0  0  0  0  0999 V2000
  -24.6647    2.1413   23.7596 C   0  0  0  0  0  0  0  0  0  0  0  0
  -23.5317    1.1330   23.7879 C   0  0  0  0  0  0  0  0  0  0  0  0
  -22.4370    1.5969   22.9837 O   0  0  0  0  0  0  0  0  0  0  0  0
  -22.4990    1.2690   21.6705 C   0  0  0  0  0  0  0  0  0  0  0  0
  -23.3961    0.6483   21.1137 O   0  0  0  0  0  0  0  0  0  0  0  0
  -21.2753    1.7170   20.9319 C   0  0  0  0  0  0  0  0  0  0  0  0
  -20.0752    0.7890   21.0711 C   0  0  0  0  0  0  0  0  0  0  0  0
  -20.1898   -0.7372   20.8756 C   0  0  1  0  0  0  0  0  0  0  0  0
  -21.0869   -1.5547   22.1527 Cl  0  0  0  0  0  0  0  0  0  0  0  0
  -20.5388   -1.3319   19.4932 C   0  0  0  0  0  0  0  0  0  0  0  0
  -19.7881   -2.0471   18.9532 O   0  0  0  0  0  0  0  0  0  0  0  0
  -21.8875   -0.7412   19.0096 N   0  0  0  0  0  0  0  0  0  0  0  0
  -22.5532   -0.8329   17.7107 C   0  0  0  0  0  0  0  0  0  0  0  0
  -23.6102   -1.9993   17.6168 C   0  0  0  0  0  0  0  0  0  0  0  0
  -23.7177   -3.0188   18.4909 N   0  0  0  0  0  0  0  0  0  0  0  0
  -24.7944   -3.6721   17.9960 N   0  0  0  0  0  0  0  0  0  0  0  0
  -25.2692   -3.0786   16.8632 C   0  0  0  0  0  0  0  0  0  0  0  0
  -26.3961   -3.5042   16.0944 C   0  0  0  0  0  0  0  0  0  0  0  0
  -26.8895   -2.8828   14.9624 C   0  0  0  0  0  0  0  0  0  0  0  0
  -28.0361   -3.5405   14.4317 C   0  0  0  0  0  0  0  0  0  0  0  0
  -28.3794   -4.6475   15.1743 C   0  0  0  0  0  0  0  0  0  0  0  0
  -27.3215   -4.8871   16.4970 S   0  0  0  0  0  0  0  0  0  0  0  0
  -24.5335   -2.0249   16.5996 N   0  0  0  0  0  0  0  0  0  0  0  0
  -21.6084   -0.7404   16.4774 C   0  0  0  0  0  0  0  0  0  0  0  0
  -21.8025    0.7882   16.5008 C   0  0  0  0  0  0  0  0  0  0  0  0
  -23.1187    0.5532   17.2631 C   0  0  0  0  0  0  0  0  0  0  0  0
  1  2  1  0
  2  3  1  0
  3  4  1  0
  4  5  2  0
  4  6  1  0
  6  7  1  0
  7  8  1  0
  8  9  1  1
  8 10  1  0
 10 11  2  0
 10 12  1  0
 12 13  1  0
 13 14  1  0
 14 15  2  0
 15 16  1  0
 16 17  1  0
 17 18  1  0
 18 19  2  0
 19 20  1  0
 20 21  2  0
 21 22  1  0
 17 23  2  0
 13 24  1  0
 24 25  1  0
 25 26  1  0
 26 13  1  0
 23 14  1  0
 22 18  1  0
M  END
>  <ref_mols>  (40) 
B1159b

>  <gnina_score>  (40) 
5.025

>  <smina_score_min>  (40) 
-2.252

>  <ref_pdb>  (40) 
B1159b

>  <inspiration_score>  (40) 
None

>  <inchikey>  (40) 
WTTHBHMQTMXBOQ-LLVKDONJSA-N

>  <tags>  (40) 
BulkDock Fragalysis export,openbind_d68ev3c_c2_elabs_scored,openbind_d68ev3c_c2_elabs_scored_4.5plus,openbind_d68ev3c_c2_elabs,openbind_d68ev3c_c2_elabs_scored_top80percent_despaghettified,openbind_d68ev3c_c2_elabs_scored_5plus,syndirella_product,openbind_d68ev3c_c2_elabs_scored_top80percent,syndirella_placed

>  <smiles>  (40) 
CCOC(=O)CC[C@@H](Cl)C(=O)NC1(c2n[nH]c(-c3cccs3)n2)CCC1

>  <subsites>  (40) 
None

>  <rmsd(smina/fragmenstein)>  (40) 
0.971

>  <alias>  (40) 
None

>  <energy_score>  (40) 
-1022.321104

>  <HIPPO Pose ID>  (40) 
86538

>  <distance_score>  (40) 
0.991848

>  <HIPPO Compound ID>  (40) 
121906

>  <gnina_score_min>  (40) 
5.051

>  <name>  (40) 
P86538

>  <exports>  (40) 
['/opt/xchem-fragalysis-2/maxwin/BulkDock/OUTPUTS/openbind_d68ev3c_c2_elabs_1LOTQJ3.sdf', '/opt/xchem-fragalysis-2/maxwin/BulkDock/OUTPUTS/openbind_d68ev3c_c2_elabs_1LSYEHW.sdf', '/opt/xchem-fragalysis-2/maxwin/BulkDock/OUTPUTS/openbind_d68ev3c_c2_elabs_1LSYI5W.sdf', '/opt/xchem-fragalysis-2/maxwin/openbind-hippo/d68ev3c/cycle_02/gnina/openbind_d68ev3c_c2_elabs_scored_5plus_products.sdf']

$$$$
P86540
     RDKit          3D

 26 29  0  0  0  0  0  0  0  0999 V2000
  -22.5343   -1.7619   19.9854 O   0  0  0  0  0  0  0  0  0  0  0  0
  -21.9050   -1.3859   19.0745 C   0  0  0  0  0  0  0  0  0  0  0  0
  -22.3433   -0.5957   17.7985 N   0  0  0  0  0  0  0  0  0  0  0  0
  -23.6458   -0.2006   17.3518 C   0  0  0  0  0  0  0  0  0  0  0  0
  -24.5483   -1.4913   17.2446 C   0  0  0  0  0  0  0  0  0  0  0  0
  -24.3893   -2.5880   18.0155 N   0  0  0  0  0  0  0  0  0  0  0  0
  -25.3362   -3.3984   17.5314 N   0  0  0  0  0  0  0  0  0  0  0  0
  -25.9468   -2.8461   16.4486 C   0  0  0  0  0  0  0  0  0  0  0  0
  -26.9638   -3.4605   15.6677 C   0  0  0  0  0  0  0  0  0  0  0  0
  -27.5471   -2.9227   14.5388 C   0  0  0  0  0  0  0  0  0  0  0  0
  -28.5552   -3.7671   13.9980 C   0  0  0  0  0  0  0  0  0  0  0  0
  -28.7025   -4.9238   14.7301 C   0  0  0  0  0  0  0  0  0  0  0  0
  -27.6222   -4.9909   16.0526 S   0  0  0  0  0  0  0  0  0  0  0  0
  -25.4634   -1.6435   16.2419 N   0  0  0  0  0  0  0  0  0  0  0  0
  -24.2170    1.0479   18.0302 C   0  0  0  0  0  0  0  0  0  0  0  0
  -23.4974    1.8858   16.9429 C   0  0  0  0  0  0  0  0  0  0  0  0
  -23.5534    0.6360   16.0432 C   0  0  0  0  0  0  0  0  0  0  0  0
  -20.4097   -1.6695   18.8179 C   0  0  1  0  0  0  0  0  0  0  0  0
  -19.8702   -0.4377   18.8194 F   0  0  0  0  0  0  0  0  0  0  0  0
  -19.6432   -2.5480   20.1419 Cl  0  0  0  0  0  0  0  0  0  0  0  0
  -20.3123   -2.4207   17.4579 C   0  0  0  0  0  0  0  0  0  0  0  0
  -19.6248   -1.8648   16.3661 C   0  0  0  0  0  0  0  0  0  0  0  0
  -19.7810   -2.3291   15.0568 C   0  0  0  0  0  0  0  0  0  0  0  0
  -20.6482   -3.3752   14.8017 C   0  0  0  0  0  0  0  0  0  0  0  0
  -21.3406   -3.9528   15.8573 C   0  0  0  0  0  0  0  0  0  0  0  0
  -21.1501   -3.5110   17.1723 C   0  0  0  0  0  0  0  0  0  0  0  0
  1  2  2  0
  2  3  1  0
  3  4  1  0
  4  5  1  0
  5  6  2  0
  6  7  1  0
  7  8  1  0
  8  9  1  0
  9 10  2  0
 10 11  1  0
 11 12  2  0
 12 13  1  0
  8 14  2  0
  4 15  1  0
 15 16  1  0
 16 17  1  0
  2 18  1  0
 18 19  1  6
 18 20  1  0
 18 21  1  0
 21 22  2  0
 22 23  1  0
 23 24  2  0
 24 25  1  0
 25 26  2  0
 17  4  1  0
 26 21  1  0
 14  5  1  0
 13  9  1  0
M  END
>  <ref_mols>  (41) 
B1159b

>  <gnina_score>  (41) 
5.344

>  <smina_score_min>  (41) 
-3.156

>  <ref_pdb>  (41) 
B1159b

>  <inspiration_score>  (41) 
None

>  <inchikey>  (41) 
DKPVRWPQFSOFDD-GOSISDBHSA-N

>  <tags>  (41) 
BulkDock Fragalysis export,openbind_d68ev3c_c2_elabs_scored,openbind_d68ev3c_c2_elabs_scored_4.5plus,openbind_d68ev3c_c2_elabs,openbind_d68ev3c_c2_elabs_scored_top80percent_despaghettified,syndirella_product,openbind_d68ev3c_c2_elabs_scored_top80percent,syndirella_placed

>  <smiles>  (41) 
O=C(NC1(c2n[nH]c(-c3cccs3)n2)CCC1)[C@@](F)(Cl)c1ccccc1

>  <subsites>  (41) 
None

>  <rmsd(smina/fragmenstein)>  (41) 
2.193

>  <alias>  (41) 
None

>  <energy_score>  (41) 
-12.176121

>  <HIPPO Pose ID>  (41) 
86540

>  <distance_score>  (41) 
1.572873

>  <HIPPO Compound ID>  (41) 
121907

>  <gnina_score_min>  (41) 
4.851

>  <name>  (41) 
P86540

>  <exports>  (41) 
['/opt/xchem-fragalysis-2/maxwin/BulkDock/OUTPUTS/openbind_d68ev3c_c2_elabs_1LOTQJ3.sdf', '/opt/xchem-fragalysis-2/maxwin/BulkDock/OUTPUTS/openbind_d68ev3c_c2_elabs_1LSYEHW.sdf', '/opt/xchem-fragalysis-2/maxwin/BulkDock/OUTPUTS/openbind_d68ev3c_c2_elabs_1LSYI5W.sdf']

$$$$
P86541
     RDKit          3D

 27 30  0  0  0  0  0  0  0  0999 V2000
  -20.3770   -2.5700   19.3402 O   0  0  0  0  0  0  0  0  0  0  0  0
  -20.7712   -1.4644   19.5920 C   0  0  0  0  0  0  0  0  0  0  0  0
  -21.7056   -0.6198   18.8967 N   0  0  0  0  0  0  0  0  0  0  0  0
  -22.3968   -0.8003   17.6151 C   0  0  0  0  0  0  0  0  0  0  0  0
  -23.5446   -1.9019   17.6686 C   0  0  0  0  0  0  0  0  0  0  0  0
  -23.7682   -2.7295   18.7086 N   0  0  0  0  0  0  0  0  0  0  0  0
  -24.8814   -3.3781   18.2951 N   0  0  0  0  0  0  0  0  0  0  0  0
  -25.2537   -2.9921   17.0410 C   0  0  0  0  0  0  0  0  0  0  0  0
  -26.3637   -3.5079   16.3012 C   0  0  0  0  0  0  0  0  0  0  0  0
  -26.7800   -3.0857   15.0528 C   0  0  0  0  0  0  0  0  0  0  0  0
  -27.9221   -3.7981   14.5849 C   0  0  0  0  0  0  0  0  0  0  0  0
  -28.3402   -4.7467   15.4904 C   0  0  0  0  0  0  0  0  0  0  0  0
  -27.3586   -4.7726   16.8908 S   0  0  0  0  0  0  0  0  0  0  0  0
  -24.4313   -2.0544   16.6278 N   0  0  0  0  0  0  0  0  0  0  0  0
  -21.4498   -0.9306   16.3924 C   0  0  0  0  0  0  0  0  0  0  0  0
  -21.5717    0.5931   16.1917 C   0  0  0  0  0  0  0  0  0  0  0  0
  -22.8810    0.5467   16.9972 C   0  0  0  0  0  0  0  0  0  0  0  0
  -20.3158   -0.8210   20.9213 C   0  0  1  0  0  0  0  0  0  0  0  0
  -20.0479    0.9354   20.7479 Cl  0  0  0  0  0  0  0  0  0  0  0  0
  -21.2186   -1.0515   22.1193 C   0  0  0  0  0  0  0  0  0  0  0  0
  -20.6642   -1.5450   23.3128 C   0  0  0  0  0  0  0  0  0  0  0  0
  -21.4486   -1.6872   24.4607 C   0  0  0  0  0  0  0  0  0  0  0  0
  -22.8013   -1.3389   24.4397 C   0  0  0  0  0  0  0  0  0  0  0  0
  -23.7002   -1.5295   25.9025 Cl  0  0  0  0  0  0  0  0  0  0  0  0
  -23.3690   -0.8422   23.2642 C   0  0  0  0  0  0  0  0  0  0  0  0
  -25.0270   -0.3629   23.1660 Cl  0  0  0  0  0  0  0  0  0  0  0  0
  -22.5812   -0.7017   22.1131 C   0  0  0  0  0  0  0  0  0  0  0  0
  1  2  2  0
  2  3  1  0
  3  4  1  0
  4  5  1  0
  5  6  2  0
  6  7  1  0
  7  8  1  0
  8  9  1  0
  9 10  2  0
 10 11  1  0
 11 12  2  0
 12 13  1  0
  8 14  2  0
  4 15  1  0
 15 16  1  0
 16 17  1  0
  2 18  1  0
 18 19  1  6
 18 20  1  0
 20 21  2  0
 21 22  1  0
 22 23  2  0
 23 24  1  0
 23 25  1  0
 25 26  1  0
 25 27  2  0
 17  4  1  0
 27 20  1  0
 14  5  1  0
 13  9  1  0
M  END
>  <ref_mols>  (42) 
B1159b

>  <gnina_score>  (42) 
5.822

>  <smina_score_min>  (42) 
-4.586

>  <ref_pdb>  (42) 
B1159b

>  <inspiration_score>  (42) 
None

>  <inchikey>  (42) 
RZQDBHWRBGNMEV-AWEZNQCLSA-N

>  <tags>  (42) 
BulkDock Fragalysis export,openbind_d68ev3c_c2_elabs_scored,openbind_d68ev3c_c2_elabs_scored_4.5plus,openbind_d68ev3c_c2_elabs,openbind_d68ev3c_c2_elabs_scored_top80percent_despaghettified,openbind_d68ev3c_c2_elabs_scored_5plus,syndirella_product,openbind_d68ev3c_c2_elabs_scored_top80percent,syndirella_placed

>  <smiles>  (42) 
O=C(NC1(c2n[nH]c(-c3cccs3)n2)CCC1)[C@@H](Cl)c1ccc(Cl)c(Cl)c1

>  <subsites>  (42) 
None

>  <rmsd(smina/fragmenstein)>  (42) 
1.508

>  <alias>  (42) 
None

>  <energy_score>  (42) 
-49.939556

>  <HIPPO Pose ID>  (42) 
86541

>  <distance_score>  (42) 
1.19225

>  <HIPPO Compound ID>  (42) 
121908

>  <gnina_score_min>  (42) 
5.292

>  <name>  (42) 
P86541

>  <exports>  (42) 
['/opt/xchem-fragalysis-2/maxwin/BulkDock/OUTPUTS/openbind_d68ev3c_c2_elabs_1LOTQJ3.sdf', '/opt/xchem-fragalysis-2/maxwin/BulkDock/OUTPUTS/openbind_d68ev3c_c2_elabs_1LSYEHW.sdf', '/opt/xchem-fragalysis-2/maxwin/BulkDock/OUTPUTS/openbind_d68ev3c_c2_elabs_1LSYI5W.sdf', '/opt/xchem-fragalysis-2/maxwin/openbind-hippo/d68ev3c/cycle_02/gnina/openbind_d68ev3c_c2_elabs_scored_5plus_products.sdf']

$$$$
P86542
     RDKit          3D

 28 31  0  0  0  0  0  0  0  0999 V2000
  -20.3922   -3.5852   13.5405 C   0  0  0  0  0  0  0  0  0  0  0  0
  -20.6647   -2.1473   14.0053 C   0  0  0  0  0  0  0  0  0  0  0  0
  -19.9167   -1.1641   13.0953 C   0  0  0  0  0  0  0  0  0  0  0  0
  -22.1676   -1.8602   13.9201 C   0  0  0  0  0  0  0  0  0  0  0  0
  -20.1269   -1.8942   15.3359 O   0  0  0  0  0  0  0  0  0  0  0  0
  -20.4357   -2.7550   16.3353 C   0  0  0  0  0  0  0  0  0  0  0  0
  -21.2059   -3.6998   16.2556 O   0  0  0  0  0  0  0  0  0  0  0  0
  -19.7012   -2.4650   17.6106 C   0  0  2  0  0  0  0  0  0  0  0  0
  -19.8402   -3.5113   18.6792 C   0  0  0  0  0  0  0  0  0  0  0  0
  -20.4893   -2.1624   18.8730 C   0  0  1  0  0  0  0  0  0  0  0  0
  -19.8686   -1.3900   20.3434 Cl  0  0  0  0  0  0  0  0  0  0  0  0
  -21.9054   -1.8631   18.5549 C   0  0  0  0  0  0  0  0  0  0  0  0
  -22.7028   -2.7028   18.6542 O   0  0  0  0  0  0  0  0  0  0  0  0
  -22.0320   -0.4322   18.0320 N   0  0  0  0  0  0  0  0  0  0  0  0
  -23.1599    0.2551   17.4219 C   0  0  0  0  0  0  0  0  0  0  0  0
  -24.3987   -0.7212   17.3471 C   0  0  0  0  0  0  0  0  0  0  0  0
  -25.0041   -1.1712   18.4579 N   0  0  0  0  0  0  0  0  0  0  0  0
  -25.7310   -2.1864   17.9718 N   0  0  0  0  0  0  0  0  0  0  0  0
  -25.6822   -2.2238   16.6098 C   0  0  0  0  0  0  0  0  0  0  0  0
  -26.5078   -3.0532   15.7914 C   0  0  0  0  0  0  0  0  0  0  0  0
  -26.7315   -2.8977   14.4381 C   0  0  0  0  0  0  0  0  0  0  0  0
  -27.6825   -3.8302   13.9327 C   0  0  0  0  0  0  0  0  0  0  0  0
  -28.1295   -4.6903   14.9102 C   0  0  0  0  0  0  0  0  0  0  0  0
  -27.4040   -4.3707   16.4242 S   0  0  0  0  0  0  0  0  0  0  0  0
  -24.8210   -1.3212   16.1856 N   0  0  0  0  0  0  0  0  0  0  0  0
  -22.7685    0.9652   16.1064 C   0  0  0  0  0  0  0  0  0  0  0  0
  -22.5384    2.2433   16.9283 C   0  0  0  0  0  0  0  0  0  0  0  0
  -23.4534    1.6452   18.0145 C   0  0  0  0  0  0  0  0  0  0  0  0
  1  2  1  0
  2  3  1  0
  2  4  1  0
  2  5  1  0
  5  6  1  0
  6  7  2  0
  8  6  1  6
  8  9  1  0
  9 10  1  0
 10 11  1  1
 10 12  1  0
 12 13  2  0
 12 14  1  0
 14 15  1  0
 15 16  1  0
 16 17  2  0
 17 18  1  0
 18 19  1  0
 19 20  1  0
 20 21  2  0
 21 22  1  0
 22 23  2  0
 23 24  1  0
 19 25  2  0
 15 26  1  0
 26 27  1  0
 27 28  1  0
 10  8  1  0
 28 15  1  0
 25 16  1  0
 24 20  1  0
M  END
>  <ref_mols>  (43) 
B1159b

>  <gnina_score>  (43) 
5.579

>  <smina_score_min>  (43) 
-3.471

>  <ref_pdb>  (43) 
B1159b

>  <inspiration_score>  (43) 
None

>  <inchikey>  (43) 
TVXURNXPAJWRQO-JEOXALJRSA-N

>  <tags>  (43) 
BulkDock Fragalysis export,openbind_d68ev3c_c2_elabs_scored,openbind_d68ev3c_c2_elabs_scored_4.5plus,openbind_d68ev3c_c2_elabs,openbind_d68ev3c_c2_elabs_scored_top80percent_despaghettified,syndirella_product,openbind_d68ev3c_c2_elabs_scored_top80percent,syndirella_placed

>  <smiles>  (43) 
CC(C)(C)OC(=O)[C@@H]1C[C@]1(Cl)C(=O)NC1(c2n[nH]c(-c3cccs3)n2)CCC1

>  <subsites>  (43) 
None

>  <rmsd(smina/fragmenstein)>  (43) 
4.669

>  <alias>  (43) 
None

>  <energy_score>  (43) 
-75.531254

>  <HIPPO Pose ID>  (43) 
86542

>  <distance_score>  (43) 
1.454286

>  <HIPPO Compound ID>  (43) 
121909

>  <gnina_score_min>  (43) 
4.811

>  <name>  (43) 
P86542

>  <exports>  (43) 
['/opt/xchem-fragalysis-2/maxwin/BulkDock/OUTPUTS/openbind_d68ev3c_c2_elabs_1LOTQJ3.sdf', '/opt/xchem-fragalysis-2/maxwin/BulkDock/OUTPUTS/openbind_d68ev3c_c2_elabs_1LSYEHW.sdf', '/opt/xchem-fragalysis-2/maxwin/BulkDock/OUTPUTS/openbind_d68ev3c_c2_elabs_1LSYI5W.sdf']

$$$$
P86545
     RDKit          3D

 29 31  0  0  0  0  0  0  0  0999 V2000
  -23.6535    0.2264   27.1581 C   0  0  0  0  0  0  0  0  0  0  0  0
  -22.8390   -1.0693   27.0267 C   0  0  0  0  0  0  0  0  0  0  0  0
  -22.0638   -1.2942   28.3298 C   0  0  0  0  0  0  0  0  0  0  0  0
  -23.7991   -2.2250   26.7234 C   0  0  0  0  0  0  0  0  0  0  0  0
  -21.9377   -0.8263   25.9153 O   0  0  0  0  0  0  0  0  0  0  0  0
  -21.0728   -1.7831   25.4929 C   0  0  0  0  0  0  0  0  0  0  0  0
  -20.9341   -2.8209   25.9860 O   0  0  0  0  0  0  0  0  0  0  0  0
  -20.3825   -1.1640   24.2951 N   0  0  0  0  0  0  0  0  0  0  0  0
  -19.2962   -1.6483   23.4895 C   0  0  0  0  0  0  0  0  0  0  0  0
  -19.7716   -2.2122   22.1532 C   0  0  0  0  0  0  0  0  0  0  0  0
  -20.5585   -1.2585   21.2564 C   0  0  1  0  0  0  0  0  0  0  0  0
  -19.7546    0.3170   21.1772 Cl  0  0  0  0  0  0  0  0  0  0  0  0
  -20.7097   -1.7508   19.7964 C   0  0  0  0  0  0  0  0  0  0  0  0
  -20.1471   -2.6812   19.3625 O   0  0  0  0  0  0  0  0  0  0  0  0
  -21.7451   -0.7912   19.1262 N   0  0  0  0  0  0  0  0  0  0  0  0
  -22.3739   -0.8439   17.8003 C   0  0  0  0  0  0  0  0  0  0  0  0
  -23.4878   -1.9696   17.6748 C   0  0  0  0  0  0  0  0  0  0  0  0
  -23.6937   -2.9454   18.5804 N   0  0  0  0  0  0  0  0  0  0  0  0
  -24.7635   -3.5786   18.0471 N   0  0  0  0  0  0  0  0  0  0  0  0
  -25.1651   -2.9987   16.8802 C   0  0  0  0  0  0  0  0  0  0  0  0
  -26.2811   -3.4085   16.0852 C   0  0  0  0  0  0  0  0  0  0  0  0
  -26.7258   -2.8027   14.9253 C   0  0  0  0  0  0  0  0  0  0  0  0
  -27.8759   -3.4423   14.3783 C   0  0  0  0  0  0  0  0  0  0  0  0
  -28.2706   -4.5217   15.1358 C   0  0  0  0  0  0  0  0  0  0  0  0
  -27.2576   -4.7568   16.4934 S   0  0  0  0  0  0  0  0  0  0  0  0
  -24.3732   -1.9831   16.6213 N   0  0  0  0  0  0  0  0  0  0  0  0
  -21.3870   -0.7944   16.6068 C   0  0  0  0  0  0  0  0  0  0  0  0
  -21.5761    0.7347   16.5614 C   0  0  0  0  0  0  0  0  0  0  0  0
  -22.8883    0.5549   17.3376 C   0  0  0  0  0  0  0  0  0  0  0  0
  1  2  1  0
  2  3  1  0
  2  4  1  0
  2  5  1  0
  5  6  1  0
  6  7  2  0
  6  8  1  0
  8  9  1  0
  9 10  1  0
 10 11  1  0
 11 12  1  6
 11 13  1  0
 13 14  2  0
 13 15  1  0
 15 16  1  0
 16 17  1  0
 17 18  2  0
 18 19  1  0
 19 20  1  0
 20 21  1  0
 21 22  2  0
 22 23  1  0
 23 24  2  0
 24 25  1  0
 20 26  2  0
 16 27  1  0
 27 28  1  0
 28 29  1  0
 29 16  1  0
 26 17  1  0
 25 21  1  0
M  END
>  <ref_mols>  (44) 
B1159b

>  <gnina_score>  (44) 
5.572

>  <smina_score_min>  (44) 
-3.944

>  <ref_pdb>  (44) 
B1159b

>  <inspiration_score>  (44) 
None

>  <inchikey>  (44) 
HWJMYWQCNDYNLN-GFCCVEGCSA-N

>  <tags>  (44) 
BulkDock Fragalysis export,openbind_d68ev3c_c2_elabs_scored,openbind_d68ev3c_c2_elabs_scored_4.5plus,openbind_d68ev3c_c2_elabs,openbind_d68ev3c_c2_elabs_scored_top80percent_despaghettified,syndirella_product,openbind_d68ev3c_c2_elabs_scored_top80percent,syndirella_placed

>  <smiles>  (44) 
CC(C)(C)OC(=O)NCC[C@@H](Cl)C(=O)NC1(c2n[nH]c(-c3cccs3)n2)CCC1

>  <subsites>  (44) 
None

>  <rmsd(smina/fragmenstein)>  (44) 
1.834

>  <alias>  (44) 
None

>  <energy_score>  (44) 
-41.832734

>  <HIPPO Pose ID>  (44) 
86545

>  <distance_score>  (44) 
1.051426

>  <HIPPO Compound ID>  (44) 
121911

>  <gnina_score_min>  (44) 
4.737

>  <name>  (44) 
P86545

>  <exports>  (44) 
['/opt/xchem-fragalysis-2/maxwin/BulkDock/OUTPUTS/openbind_d68ev3c_c2_elabs_1LOTQJ3.sdf', '/opt/xchem-fragalysis-2/maxwin/BulkDock/OUTPUTS/openbind_d68ev3c_c2_elabs_1LSYEHW.sdf', '/opt/xchem-fragalysis-2/maxwin/BulkDock/OUTPUTS/openbind_d68ev3c_c2_elabs_1LSYI5W.sdf']

$$$$
P139169
     RDKit          3D

 16 17  0  0  0  0  0  0  0  0999 V2000
  -21.9162   -4.0837   18.3004 O   0  0  0  0  0  0  0  0  0  0  0  0
  -21.7576   -3.0204   17.8351 C   0  0  0  0  0  0  0  0  0  0  0  0
  -22.6245   -1.7382   17.9395 N   0  0  0  0  0  0  0  0  0  0  0  0
  -23.8092   -1.4719   18.7102 C   0  0  0  0  0  0  0  0  0  0  0  0
  -25.0219   -2.0548   18.0222 C   0  0  0  0  0  0  0  0  0  0  0  0
  -25.3349   -3.4072   18.2059 C   0  0  0  0  0  0  0  0  0  0  0  0
  -26.4046   -3.9735   17.5099 C   0  0  0  0  0  0  0  0  0  0  0  0
  -27.1175   -3.1405   16.6371 C   0  0  0  0  0  0  0  0  0  0  0  0
  -28.2232   -3.2941   15.7578 C   0  0  0  0  0  0  0  0  0  0  0  0
  -28.4496   -2.0745   15.1535 C   0  0  0  0  0  0  0  0  0  0  0  0
  -27.5198   -1.1891   15.6363 N   0  0  0  0  0  0  0  0  0  0  0  0
  -26.7057   -1.8168   16.5381 C   0  0  0  0  0  0  0  0  0  0  0  0
  -25.6910   -1.2197   17.1867 N   0  0  0  0  0  0  0  0  0  0  0  0
  -20.5025   -2.7209   16.9667 C   0  0  1  0  0  0  0  0  0  0  0  0
  -20.1541   -3.8243   16.2509 F   0  0  0  0  0  0  0  0  0  0  0  0
  -20.7147   -1.3765   15.8295 Cl  0  0  0  0  0  0  0  0  0  0  0  0
  1  2  2  0
  2  3  1  0
  3  4  1  0
  4  5  1  0
  5  6  2  0
  6  7  1  0
  7  8  2  0
  8  9  1  0
  9 10  2  0
 10 11  1  0
 11 12  1  0
 12 13  2  0
  2 14  1  0
 14 15  1  6
 14 16  1  0
 13  5  1  0
 12  8  1  0
M  END
>  <ref_mols>  (45) 
B1157a

>  <gnina_score>  (45) 
3.806

>  <smina_score_min>  (45) 
-2.547

>  <ref_pdb>  (45) 
B1157a

>  <inspiration_score>  (45) 
None

>  <inchikey>  (45) 
GZSNADBRWQGOMP-MRVPVSSYSA-N

>  <tags>  (45) 
BulkDock Fragalysis export,openbind_d68ev3c_c2_elabs_scored,openbind_d68ev3c_c2_elabs,openbind_d68ev3c_c2_elabs_scored_top80percent_despaghettified,syndirella_product,openbind_d68ev3c_c2_elabs_scored_top80percent,syndirella_placed

>  <smiles>  (45) 
O=C(NCc1ccc2cc[nH]c2n1)[C@@H](F)Cl

>  <subsites>  (45) 
None

>  <rmsd(smina/fragmenstein)>  (45) 
2.022

>  <alias>  (45) 
None

>  <energy_score>  (45) 
-15.351439

>  <HIPPO Pose ID>  (45) 
139169

>  <distance_score>  (45) 
0.363265

>  <HIPPO Compound ID>  (45) 
165276

>  <gnina_score_min>  (45) 
3.77

>  <name>  (45) 
P139169

>  <exports>  (45) 
['/opt/xchem-fragalysis-2/maxwin/BulkDock/OUTPUTS/openbind_d68ev3c_c2_elabs_1LOTQJ3.sdf', '/opt/xchem-fragalysis-2/maxwin/BulkDock/OUTPUTS/openbind_d68ev3c_c2_elabs_1LSYI5W.sdf']

$$$$
P139172
     RDKit          3D

 17 18  0  0  0  0  0  0  0  0999 V2000
  -21.8413   -4.0236   18.0530 O   0  0  0  0  0  0  0  0  0  0  0  0
  -21.8128   -2.8538   17.9713 C   0  0  0  0  0  0  0  0  0  0  0  0
  -22.8634   -1.7829   18.4098 N   0  0  0  0  0  0  0  0  0  0  0  0
  -24.1058   -1.9300   19.1166 C   0  0  0  0  0  0  0  0  0  0  0  0
  -25.1929   -2.4095   18.1881 C   0  0  0  0  0  0  0  0  0  0  0  0
  -25.4727   -3.7775   18.1094 C   0  0  0  0  0  0  0  0  0  0  0  0
  -26.4539   -4.2332   17.2283 C   0  0  0  0  0  0  0  0  0  0  0  0
  -27.1117   -3.2757   16.4445 C   0  0  0  0  0  0  0  0  0  0  0  0
  -28.1338   -3.2962   15.4580 C   0  0  0  0  0  0  0  0  0  0  0  0
  -28.3419   -1.9966   15.0440 C   0  0  0  0  0  0  0  0  0  0  0  0
  -27.4803   -1.1911   15.7442 N   0  0  0  0  0  0  0  0  0  0  0  0
  -26.7317   -1.9483   16.6027 C   0  0  0  0  0  0  0  0  0  0  0  0
  -25.8001   -1.4540   17.4362 N   0  0  0  0  0  0  0  0  0  0  0  0
  -20.6037   -2.0503   17.3867 C   0  0  0  0  0  0  0  0  0  0  0  0
  -20.6265   -0.7717   17.8678 F   0  0  0  0  0  0  0  0  0  0  0  0
  -19.4196   -2.6028   17.7582 F   0  0  0  0  0  0  0  0  0  0  0  0
  -20.7100   -1.9965   15.6258 Cl  0  0  0  0  0  0  0  0  0  0  0  0
  1  2  2  0
  2  3  1  0
  3  4  1  0
  4  5  1  0
  5  6  2  0
  6  7  1  0
  7  8  2  0
  8  9  1  0
  9 10  2  0
 10 11  1  0
 11 12  1  0
 12 13  2  0
  2 14  1  0
 14 15  1  0
 14 16  1  0
 14 17  1  0
 13  5  1  0
 12  8  1  0
M  END
>  <ref_mols>  (46) 
B1157a

>  <gnina_score>  (46) 
3.642

>  <smina_score_min>  (46) 
-2.837

>  <ref_pdb>  (46) 
B1157a

>  <inspiration_score>  (46) 
None

>  <inchikey>  (46) 
SATMJZNWIIJRLP-UHFFFAOYSA-N

>  <tags>  (46) 
BulkDock Fragalysis export,openbind_d68ev3c_c2_elabs_scored,openbind_d68ev3c_c2_elabs,openbind_d68ev3c_c2_elabs_scored_top80percent_despaghettified,syndirella_product,openbind_d68ev3c_c2_elabs_scored_top80percent,syndirella_placed

>  <smiles>  (46) 
O=C(NCc1ccc2cc[nH]c2n1)C(F)(F)Cl

>  <subsites>  (46) 
None

>  <rmsd(smina/fragmenstein)>  (46) 
1.977

>  <alias>  (46) 
None

>  <energy_score>  (46) 
-7.125467

>  <HIPPO Pose ID>  (46) 
139172

>  <distance_score>  (46) 
0.411731

>  <HIPPO Compound ID>  (46) 
165279

>  <gnina_score_min>  (46) 
3.696

>  <name>  (46) 
P139172

>  <exports>  (46) 
['/opt/xchem-fragalysis-2/maxwin/BulkDock/OUTPUTS/openbind_d68ev3c_c2_elabs_1LOTQJ3.sdf', '/opt/xchem-fragalysis-2/maxwin/BulkDock/OUTPUTS/openbind_d68ev3c_c2_elabs_1LSYI5W.sdf']

$$$$
P139173
     RDKit          3D

 17 19  0  0  0  0  0  0  0  0999 V2000
  -21.9758   -3.8873   18.0859 O   0  0  0  0  0  0  0  0  0  0  0  0
  -22.0741   -2.7801   17.7364 C   0  0  0  0  0  0  0  0  0  0  0  0
  -23.0535   -1.6870   18.1673 N   0  0  0  0  0  0  0  0  0  0  0  0
  -24.1821   -1.7420   19.0491 C   0  0  0  0  0  0  0  0  0  0  0  0
  -25.3569   -2.2707   18.2617 C   0  0  0  0  0  0  0  0  0  0  0  0
  -25.6367   -3.6413   18.2832 C   0  0  0  0  0  0  0  0  0  0  0  0
  -26.6241   -4.1581   17.4432 C   0  0  0  0  0  0  0  0  0  0  0  0
  -27.2805   -3.2596   16.5907 C   0  0  0  0  0  0  0  0  0  0  0  0
  -28.2928   -3.3515   15.5978 C   0  0  0  0  0  0  0  0  0  0  0  0
  -28.4991   -2.0845   15.0915 C   0  0  0  0  0  0  0  0  0  0  0  0
  -27.6481   -1.2293   15.7438 N   0  0  0  0  0  0  0  0  0  0  0  0
  -26.9069   -1.9232   16.6592 C   0  0  0  0  0  0  0  0  0  0  0  0
  -25.9802   -1.3693   17.4577 N   0  0  0  0  0  0  0  0  0  0  0  0
  -21.1289   -2.2416   16.6679 C   0  0  0  0  0  0  0  0  0  0  0  0
  -21.4754   -0.6611   15.9054 Cl  0  0  0  0  0  0  0  0  0  0  0  0
  -20.4108   -3.2180   15.7614 C   0  0  0  0  0  0  0  0  0  0  0  0
  -19.6641   -2.5021   16.8515 C   0  0  0  0  0  0  0  0  0  0  0  0
  1  2  2  0
  2  3  1  0
  3  4  1  0
  4  5  1  0
  5  6  2  0
  6  7  1  0
  7  8  2  0
  8  9  1  0
  9 10  2  0
 10 11  1  0
 11 12  1  0
 12 13  2  0
  2 14  1  0
 14 15  1  0
 14 16  1  0
 16 17  1  0
 13  5  1  0
 17 14  1  0
 12  8  1  0
M  END
>  <ref_mols>  (47) 
B1157a

>  <gnina_score>  (47) 
3.792

>  <smina_score_min>  (47) 
-2.733

>  <ref_pdb>  (47) 
B1157a

>  <inspiration_score>  (47) 
None

>  <inchikey>  (47) 
OIDPTHXDHJDTLT-UHFFFAOYSA-N

>  <tags>  (47) 
BulkDock Fragalysis export,openbind_d68ev3c_c2_elabs_scored,openbind_d68ev3c_c2_elabs,openbind_d68ev3c_c2_elabs_scored_top80percent_despaghettified,syndirella_product,openbind_d68ev3c_c2_elabs_scored_top80percent,syndirella_placed

>  <smiles>  (47) 
O=C(NCc1ccc2cc[nH]c2n1)C1(Cl)CC1

>  <subsites>  (47) 
None

>  <rmsd(smina/fragmenstein)>  (47) 
2.075

>  <alias>  (47) 
None

>  <energy_score>  (47) 
-39.498059

>  <HIPPO Pose ID>  (47) 
139173

>  <distance_score>  (47) 
0.681457

>  <HIPPO Compound ID>  (47) 
165282

>  <gnina_score_min>  (47) 
3.655

>  <name>  (47) 
P139173

>  <exports>  (47) 
['/opt/xchem-fragalysis-2/maxwin/BulkDock/OUTPUTS/openbind_d68ev3c_c2_elabs_1LOTQJ3.sdf', '/opt/xchem-fragalysis-2/maxwin/BulkDock/OUTPUTS/openbind_d68ev3c_c2_elabs_1LSYI5W.sdf']

$$$$
P139181
     RDKit          3D

 18 19  0  0  0  0  0  0  0  0999 V2000
  -19.4323   -1.4578   14.8563 C   0  0  0  0  0  0  0  0  0  0  0  0
  -20.2159   -2.2718   15.8946 C   0  0  0  0  0  0  0  0  0  0  0  0
  -19.4572   -2.3139   17.2069 C   0  0  0  0  0  0  0  0  0  0  0  0
  -21.5771   -1.6687   16.2167 C   0  0  1  0  0  0  0  0  0  0  0  0
  -22.5716   -1.5778   14.7619 Cl  0  0  0  0  0  0  0  0  0  0  0  0
  -22.3414   -2.5017   17.2787 C   0  0  0  0  0  0  0  0  0  0  0  0
  -22.1754   -3.6461   17.4499 O   0  0  0  0  0  0  0  0  0  0  0  0
  -23.3091   -1.5108   17.9782 N   0  0  0  0  0  0  0  0  0  0  0  0
  -24.3304   -1.7418   18.9580 C   0  0  0  0  0  0  0  0  0  0  0  0
  -25.5232   -2.2918   18.2198 C   0  0  0  0  0  0  0  0  0  0  0  0
  -25.7658   -3.6686   18.2294 C   0  0  0  0  0  0  0  0  0  0  0  0
  -26.7424   -4.2000   17.3869 C   0  0  0  0  0  0  0  0  0  0  0  0
  -27.4182   -3.3096   16.5407 C   0  0  0  0  0  0  0  0  0  0  0  0
  -28.4185   -3.4175   15.5380 C   0  0  0  0  0  0  0  0  0  0  0  0
  -28.6533   -2.1515   15.0415 C   0  0  0  0  0  0  0  0  0  0  0  0
  -27.8328   -1.2807   15.7111 N   0  0  0  0  0  0  0  0  0  0  0  0
  -27.0844   -1.9642   16.6275 C   0  0  0  0  0  0  0  0  0  0  0  0
  -26.1812   -1.3938   17.4388 N   0  0  0  0  0  0  0  0  0  0  0  0
  1  2  1  0
  2  3  1  0
  2  4  1  0
  4  5  1  6
  4  6  1  0
  6  7  2  0
  6  8  1  0
  8  9  1  0
  9 10  1  0
 10 11  2  0
 11 12  1  0
 12 13  2  0
 13 14  1  0
 14 15  2  0
 15 16  1  0
 16 17  1  0
 17 18  2  0
 18 10  1  0
 17 13  1  0
M  END
>  <ref_mols>  (48) 
B1157a

>  <gnina_score>  (48) 
4.146

>  <smina_score_min>  (48) 
-1.831

>  <ref_pdb>  (48) 
B1157a

>  <inspiration_score>  (48) 
None

>  <inchikey>  (48) 
CPDQKKPZAPQPDL-LLVKDONJSA-N

>  <tags>  (48) 
BulkDock Fragalysis export,openbind_d68ev3c_c2_elabs_scored,openbind_d68ev3c_c2_elabs,openbind_d68ev3c_c2_elabs_scored_top80percent_despaghettified,syndirella_product,openbind_d68ev3c_c2_elabs_scored_top80percent,syndirella_placed

>  <smiles>  (48) 
CC(C)[C@@H](Cl)C(=O)NCc1ccc2cc[nH]c2n1

>  <subsites>  (48) 
None

>  <rmsd(smina/fragmenstein)>  (48) 
1.813

>  <alias>  (48) 
None

>  <energy_score>  (48) 
-1.435983

>  <HIPPO Pose ID>  (48) 
139181

>  <distance_score>  (48) 
1.086191

>  <HIPPO Compound ID>  (48) 
165289

>  <gnina_score_min>  (48) 
3.961

>  <name>  (48) 
P139181

>  <exports>  (48) 
['/opt/xchem-fragalysis-2/maxwin/BulkDock/OUTPUTS/openbind_d68ev3c_c2_elabs_1LOTQJ3.sdf', '/opt/xchem-fragalysis-2/maxwin/BulkDock/OUTPUTS/openbind_d68ev3c_c2_elabs_1LSYI5W.sdf']

$$$$
P139184
     RDKit          3D

 18 19  0  0  0  0  0  0  0  0999 V2000
  -21.9416   -3.0512   13.2790 C   0  0  0  0  0  0  0  0  0  0  0  0
  -21.8111   -3.4876   14.5382 C   0  0  0  0  0  0  0  0  0  0  0  0
  -20.5332   -3.3977   15.3370 C   0  0  0  0  0  0  0  0  0  0  0  0
  -20.5885   -2.4495   16.5417 C   0  0  1  0  0  0  0  0  0  0  0  0
  -20.7877   -0.7698   15.9674 Cl  0  0  0  0  0  0  0  0  0  0  0  0
  -21.6539   -2.9120   17.5765 C   0  0  0  0  0  0  0  0  0  0  0  0
  -21.6786   -4.0185   17.9553 O   0  0  0  0  0  0  0  0  0  0  0  0
  -22.5480   -1.7059   17.9468 N   0  0  0  0  0  0  0  0  0  0  0  0
  -23.7140   -1.6302   18.7845 C   0  0  0  0  0  0  0  0  0  0  0  0
  -24.9223   -2.1804   18.0601 C   0  0  0  0  0  0  0  0  0  0  0  0
  -25.2215   -3.5439   18.1632 C   0  0  0  0  0  0  0  0  0  0  0  0
  -26.2926   -4.0775   17.4436 C   0  0  0  0  0  0  0  0  0  0  0  0
  -27.0205   -3.2011   16.6273 C   0  0  0  0  0  0  0  0  0  0  0  0
  -28.1338   -3.3119   15.7508 C   0  0  0  0  0  0  0  0  0  0  0  0
  -28.3751   -2.0609   15.2210 C   0  0  0  0  0  0  0  0  0  0  0  0
  -27.4478   -1.1974   15.7472 N   0  0  0  0  0  0  0  0  0  0  0  0
  -26.6206   -1.8704   16.6035 C   0  0  0  0  0  0  0  0  0  0  0  0
  -25.6058   -1.3041   17.2791 N   0  0  0  0  0  0  0  0  0  0  0  0
  1  2  2  0
  2  3  1  0
  3  4  1  0
  4  5  1  6
  4  6  1  0
  6  7  2  0
  6  8  1  0
  8  9  1  0
  9 10  1  0
 10 11  2  0
 11 12  1  0
 12 13  2  0
 13 14  1  0
 14 15  2  0
 15 16  1  0
 16 17  1  0
 17 18  2  0
 18 10  1  0
 17 13  1  0
M  END
>  <ref_mols>  (49) 
B1157a

>  <gnina_score>  (49) 
3.973

>  <smina_score_min>  (49) 
-2.809

>  <ref_pdb>  (49) 
B1157a

>  <inspiration_score>  (49) 
None

>  <inchikey>  (49) 
UYAOGRSVTLAKGX-LLVKDONJSA-N

>  <tags>  (49) 
BulkDock Fragalysis export,openbind_d68ev3c_c2_elabs_scored,openbind_d68ev3c_c2_elabs,openbind_d68ev3c_c2_elabs_scored_top80percent_despaghettified,syndirella_product,openbind_d68ev3c_c2_elabs_scored_top80percent,syndirella_placed

>  <smiles>  (49) 
C=CC[C@@H](Cl)C(=O)NCc1ccc2cc[nH]c2n1

>  <subsites>  (49) 
None

>  <rmsd(smina/fragmenstein)>  (49) 
1.829

>  <alias>  (49) 
None

>  <energy_score>  (49) 
-11.025499

>  <HIPPO Pose ID>  (49) 
139184

>  <distance_score>  (49) 
0.425506

>  <HIPPO Compound ID>  (49) 
165291

>  <gnina_score_min>  (49) 
3.667

>  <name>  (49) 
P139184

>  <exports>  (49) 
['/opt/xchem-fragalysis-2/maxwin/BulkDock/OUTPUTS/openbind_d68ev3c_c2_elabs_1LOTQJ3.sdf', '/opt/xchem-fragalysis-2/maxwin/BulkDock/OUTPUTS/openbind_d68ev3c_c2_elabs_1LSYI5W.sdf']

$$$$
P139185
     RDKit          3D

 19 21  0  0  0  0  0  0  0  0999 V2000
  -20.7631   -3.3720   13.3026 C   0  0  0  0  0  0  0  0  0  0  0  0
  -21.7893   -3.1159   14.3796 C   0  0  0  0  0  0  0  0  0  0  0  0
  -22.8746   -4.1656   14.4319 C   0  0  0  0  0  0  0  0  0  0  0  0
  -22.2218   -1.6979   14.6364 C   0  0  0  0  0  0  0  0  0  0  0  0
  -21.3583   -2.4098   15.6773 C   0  0  2  0  0  0  0  0  0  0  0  0
  -19.7115   -1.7500   15.8016 Cl  0  0  0  0  0  0  0  0  0  0  0  0
  -21.9744   -2.8325   17.0003 C   0  0  0  0  0  0  0  0  0  0  0  0
  -21.8260   -3.9191   17.3899 O   0  0  0  0  0  0  0  0  0  0  0  0
  -22.8143   -1.6822   17.5624 N   0  0  0  0  0  0  0  0  0  0  0  0
  -23.7260   -1.6478   18.6695 C   0  0  0  0  0  0  0  0  0  0  0  0
  -25.0533   -2.1591   18.1466 C   0  0  0  0  0  0  0  0  0  0  0  0
  -25.3883   -3.5062   18.3230 C   0  0  0  0  0  0  0  0  0  0  0  0
  -26.4905   -4.0393   17.6509 C   0  0  0  0  0  0  0  0  0  0  0  0
  -27.2049   -3.1835   16.8010 C   0  0  0  0  0  0  0  0  0  0  0  0
  -28.3203   -3.3095   15.9294 C   0  0  0  0  0  0  0  0  0  0  0  0
  -28.5381   -2.0778   15.3466 C   0  0  0  0  0  0  0  0  0  0  0  0
  -27.5982   -1.2095   15.8404 N   0  0  0  0  0  0  0  0  0  0  0  0
  -26.7795   -1.8636   16.7188 C   0  0  0  0  0  0  0  0  0  0  0  0
  -25.7432   -1.2930   17.3551 N   0  0  0  0  0  0  0  0  0  0  0  0
  1  2  1  0
  2  3  1  0
  2  4  1  0
  4  5  1  0
  5  6  1  1
  5  7  1  0
  7  8  2  0
  7  9  1  0
  9 10  1  0
 10 11  1  0
 11 12  2  0
 12 13  1  0
 13 14  2  0
 14 15  1  0
 15 16  2  0
 16 17  1  0
 17 18  1  0
 18 19  2  0
  5  2  1  0
 19 11  1  0
 18 14  1  0
M  END
>  <ref_mols>  (50) 
B1157a

>  <gnina_score>  (50) 
4.305

>  <smina_score_min>  (50) 
-3.809

>  <ref_pdb>  (50) 
B1157a

>  <inspiration_score>  (50) 
None

>  <inchikey>  (50) 
IKHKYUXWYFAJSO-CQSZACIVSA-N

>  <tags>  (50) 
BulkDock Fragalysis export,openbind_d68ev3c_c2_elabs_scored,openbind_d68ev3c_c2_elabs,openbind_d68ev3c_c2_elabs_scored_top80percent_despaghettified,syndirella_product,openbind_d68ev3c_c2_elabs_scored_top80percent,syndirella_placed

>  <smiles>  (50) 
CC1(C)C[C@@]1(Cl)C(=O)NCc1ccc2cc[nH]c2n1

>  <subsites>  (50) 
None

>  <rmsd(smina/fragmenstein)>  (50) 
2.335

>  <alias>  (50) 
None

>  <energy_score>  (50) 
-9.878576

>  <HIPPO Pose ID>  (50) 
139185

>  <distance_score>  (50) 
0.7289

>  <HIPPO Compound ID>  (50) 
165292

>  <gnina_score_min>  (50) 
3.735

>  <name>  (50) 
P139185

>  <exports>  (50) 
['/opt/xchem-fragalysis-2/maxwin/BulkDock/OUTPUTS/openbind_d68ev3c_c2_elabs_1LOTQJ3.sdf', '/opt/xchem-fragalysis-2/maxwin/BulkDock/OUTPUTS/openbind_d68ev3c_c2_elabs_1LSYI5W.sdf']

$$$$
P139187
     RDKit          3D

 19 20  0  0  0  0  0  0  0  0999 V2000
  -21.3151   -3.5692   13.4760 C   0  0  0  0  0  0  0  0  0  0  0  0
  -21.9912   -3.4491   14.8304 C   0  0  0  0  0  0  0  0  0  0  0  0
  -22.7122   -4.5810   15.0520 F   0  0  0  0  0  0  0  0  0  0  0  0
  -22.8974   -2.4349   14.7506 F   0  0  0  0  0  0  0  0  0  0  0  0
  -21.0314   -3.2092   15.9882 C   0  0  1  0  0  0  0  0  0  0  0  0
  -20.1423   -1.6660   15.8329 Cl  0  0  0  0  0  0  0  0  0  0  0  0
  -21.7936   -3.2461   17.3234 C   0  0  0  0  0  0  0  0  0  0  0  0
  -21.7405   -4.1857   18.0171 O   0  0  0  0  0  0  0  0  0  0  0  0
  -22.6302   -1.9508   17.4523 N   0  0  0  0  0  0  0  0  0  0  0  0
  -23.6415   -1.5835   18.4057 C   0  0  0  0  0  0  0  0  0  0  0  0
  -24.9738   -2.1007   17.9138 C   0  0  0  0  0  0  0  0  0  0  0  0
  -25.3366   -3.4266   18.1804 C   0  0  0  0  0  0  0  0  0  0  0  0
  -26.4783   -3.9660   17.5847 C   0  0  0  0  0  0  0  0  0  0  0  0
  -27.2059   -3.1367   16.7201 C   0  0  0  0  0  0  0  0  0  0  0  0
  -28.3641   -3.2755   15.9084 C   0  0  0  0  0  0  0  0  0  0  0  0
  -28.5734   -2.0714   15.2676 C   0  0  0  0  0  0  0  0  0  0  0  0
  -27.5848   -1.2082   15.6661 N   0  0  0  0  0  0  0  0  0  0  0  0
  -26.7468   -1.8373   16.5440 C   0  0  0  0  0  0  0  0  0  0  0  0
  -25.6683   -1.2631   17.1019 N   0  0  0  0  0  0  0  0  0  0  0  0
  1  2  1  0
  2  3  1  0
  2  4  1  0
  2  5  1  0
  5  6  1  6
  5  7  1  0
  7  8  2  0
  7  9  1  0
  9 10  1  0
 10 11  1  0
 11 12  2  0
 12 13  1  0
 13 14  2  0
 14 15  1  0
 15 16  2  0
 16 17  1  0
 17 18  1  0
 18 19  2  0
 19 11  1  0
 18 14  1  0
M  END
>  <ref_mols>  (51) 
B1157a

>  <gnina_score>  (51) 
4.107

>  <smina_score_min>  (51) 
-3.598

>  <ref_pdb>  (51) 
B1157a

>  <inspiration_score>  (51) 
None

>  <inchikey>  (51) 
GXZIIQDMVJEBPC-VIFPVBQESA-N

>  <tags>  (51) 
BulkDock Fragalysis export,openbind_d68ev3c_c2_elabs_scored,openbind_d68ev3c_c2_elabs,openbind_d68ev3c_c2_elabs_scored_top80percent_despaghettified,syndirella_product,openbind_d68ev3c_c2_elabs_scored_top80percent,syndirella_placed

>  <smiles>  (51) 
CC(F)(F)[C@@H](Cl)C(=O)NCc1ccc2cc[nH]c2n1

>  <subsites>  (51) 
None

>  <rmsd(smina/fragmenstein)>  (51) 
2.538

>  <alias>  (51) 
None

>  <energy_score>  (51) 
-15.313583

>  <HIPPO Pose ID>  (51) 
139187

>  <distance_score>  (51) 
0.642709

>  <HIPPO Compound ID>  (51) 
165293

>  <gnina_score_min>  (51) 
3.627

>  <name>  (51) 
P139187

>  <exports>  (51) 
['/opt/xchem-fragalysis-2/maxwin/BulkDock/OUTPUTS/openbind_d68ev3c_c2_elabs_1LOTQJ3.sdf', '/opt/xchem-fragalysis-2/maxwin/BulkDock/OUTPUTS/openbind_d68ev3c_c2_elabs_1LSYI5W.sdf']

$$$$
P139189
     RDKit          3D

 19 21  0  0  0  0  0  0  0  0999 V2000
  -21.5189   -3.9177   17.7431 O   0  0  0  0  0  0  0  0  0  0  0  0
  -21.7407   -2.8912   17.2398 C   0  0  0  0  0  0  0  0  0  0  0  0
  -22.7219   -1.7818   17.6353 N   0  0  0  0  0  0  0  0  0  0  0  0
  -23.7078   -1.7359   18.6787 C   0  0  0  0  0  0  0  0  0  0  0  0
  -25.0137   -2.2327   18.0998 C   0  0  0  0  0  0  0  0  0  0  0  0
  -25.3825   -3.5702   18.2769 C   0  0  0  0  0  0  0  0  0  0  0  0
  -26.4954   -4.0759   17.6017 C   0  0  0  0  0  0  0  0  0  0  0  0
  -27.1876   -3.2023   16.7512 C   0  0  0  0  0  0  0  0  0  0  0  0
  -28.3101   -3.2988   15.8850 C   0  0  0  0  0  0  0  0  0  0  0  0
  -28.4943   -2.0632   15.2989 C   0  0  0  0  0  0  0  0  0  0  0  0
  -27.5247   -1.2221   15.7824 N   0  0  0  0  0  0  0  0  0  0  0  0
  -26.7238   -1.8957   16.6627 C   0  0  0  0  0  0  0  0  0  0  0  0
  -25.6714   -1.3528   17.2977 N   0  0  0  0  0  0  0  0  0  0  0  0
  -21.0808   -2.5377   15.9296 C   0  0  1  0  0  0  0  0  0  0  0  0
  -20.4581   -0.8804   15.7452 Cl  0  0  0  0  0  0  0  0  0  0  0  0
  -20.3404   -3.5770   15.1082 C   0  0  0  0  0  0  0  0  0  0  0  0
  -21.7075   -3.1768   14.7277 C   0  0  0  0  0  0  0  0  0  0  0  0
  -22.7553   -4.0617   14.8552 F   0  0  0  0  0  0  0  0  0  0  0  0
  -21.9254   -2.4582   13.5720 F   0  0  0  0  0  0  0  0  0  0  0  0
  1  2  2  0
  2  3  1  0
  3  4  1  0
  4  5  1  0
  5  6  2  0
  6  7  1  0
  7  8  2  0
  8  9  1  0
  9 10  2  0
 10 11  1  0
 11 12  1  0
 12 13  2  0
  2 14  1  0
 14 15  1  6
 14 16  1  0
 16 17  1  0
 17 18  1  0
 17 19  1  0
 13  5  1  0
 17 14  1  0
 12  8  1  0
M  END
>  <ref_mols>  (52) 
B1157a

>  <gnina_score>  (52) 
4.052

>  <smina_score_min>  (52) 
-2.978

>  <ref_pdb>  (52) 
B1157a

>  <inspiration_score>  (52) 
None

>  <inchikey>  (52) 
MIPCSFCRJDWZFB-NSHDSACASA-N

>  <tags>  (52) 
BulkDock Fragalysis export,openbind_d68ev3c_c2_elabs_scored,openbind_d68ev3c_c2_elabs,openbind_d68ev3c_c2_elabs_scored_top80percent_despaghettified,syndirella_product,openbind_d68ev3c_c2_elabs_scored_top80percent,syndirella_placed

>  <smiles>  (52) 
O=C(NCc1ccc2cc[nH]c2n1)[C@@]1(Cl)CC1(F)F

>  <subsites>  (52) 
None

>  <rmsd(smina/fragmenstein)>  (52) 
1.739

>  <alias>  (52) 
None

>  <energy_score>  (52) 
-7.171654

>  <HIPPO Pose ID>  (52) 
139189

>  <distance_score>  (52) 
0.614715

>  <HIPPO Compound ID>  (52) 
165294

>  <gnina_score_min>  (52) 
3.953

>  <name>  (52) 
P139189

>  <exports>  (52) 
['/opt/xchem-fragalysis-2/maxwin/BulkDock/OUTPUTS/openbind_d68ev3c_c2_elabs_1LOTQJ3.sdf', '/opt/xchem-fragalysis-2/maxwin/BulkDock/OUTPUTS/openbind_d68ev3c_c2_elabs_1LSYI5W.sdf']

$$$$
P139194
     RDKit          3D

 19 20  0  0  0  0  0  0  0  0999 V2000
  -20.8967   -2.3850   12.7002 C   0  0  0  0  0  0  0  0  0  0  0  0
  -21.3101   -3.6602   13.4376 C   0  0  0  0  0  0  0  0  0  0  0  0
  -22.2796   -4.4487   12.5476 C   0  0  0  0  0  0  0  0  0  0  0  0
  -21.9756   -3.3930   14.8067 C   0  0  0  0  0  0  0  0  0  0  0  0
  -21.0138   -3.1450   15.9811 C   0  0  1  0  0  0  0  0  0  0  0  0
  -20.1984   -1.5653   15.8711 Cl  0  0  0  0  0  0  0  0  0  0  0  0
  -21.7929   -3.2359   17.3203 C   0  0  0  0  0  0  0  0  0  0  0  0
  -21.7592   -4.1959   17.9861 O   0  0  0  0  0  0  0  0  0  0  0  0
  -22.6170   -1.9355   17.4771 N   0  0  0  0  0  0  0  0  0  0  0  0
  -23.6360   -1.5857   18.4270 C   0  0  0  0  0  0  0  0  0  0  0  0
  -24.9607   -2.1063   17.9171 C   0  0  0  0  0  0  0  0  0  0  0  0
  -25.3333   -3.4268   18.1961 C   0  0  0  0  0  0  0  0  0  0  0  0
  -26.4715   -3.9680   17.5949 C   0  0  0  0  0  0  0  0  0  0  0  0
  -27.1881   -3.1451   16.7150 C   0  0  0  0  0  0  0  0  0  0  0  0
  -28.3429   -3.2861   15.8991 C   0  0  0  0  0  0  0  0  0  0  0  0
  -28.5419   -2.0880   15.2441 C   0  0  0  0  0  0  0  0  0  0  0  0
  -27.5503   -1.2260   15.6376 N   0  0  0  0  0  0  0  0  0  0  0  0
  -26.7188   -1.8512   16.5246 C   0  0  0  0  0  0  0  0  0  0  0  0
  -25.6382   -1.2787   17.0802 N   0  0  0  0  0  0  0  0  0  0  0  0
  1  2  1  0
  2  3  1  0
  2  4  1  0
  4  5  1  0
  5  6  1  6
  5  7  1  0
  7  8  2  0
  7  9  1  0
  9 10  1  0
 10 11  1  0
 11 12  2  0
 12 13  1  0
 13 14  2  0
 14 15  1  0
 15 16  2  0
 16 17  1  0
 17 18  1  0
 18 19  2  0
 19 11  1  0
 18 14  1  0
M  END
>  <ref_mols>  (53) 
B1157a

>  <gnina_score>  (53) 
4.194

>  <smina_score_min>  (53) 
-3.359

>  <ref_pdb>  (53) 
B1157a

>  <inspiration_score>  (53) 
None

>  <inchikey>  (53) 
CIQPRWWOGOLRTO-GFCCVEGCSA-N

>  <tags>  (53) 
BulkDock Fragalysis export,openbind_d68ev3c_c2_elabs_scored,openbind_d68ev3c_c2_elabs,openbind_d68ev3c_c2_elabs_scored_top80percent_despaghettified,syndirella_product,openbind_d68ev3c_c2_elabs_scored_top80percent,syndirella_placed

>  <smiles>  (53) 
CC(C)C[C@@H](Cl)C(=O)NCc1ccc2cc[nH]c2n1

>  <subsites>  (53) 
None

>  <rmsd(smina/fragmenstein)>  (53) 
2.948

>  <alias>  (53) 
None

>  <energy_score>  (53) 
-0.614474

>  <HIPPO Pose ID>  (53) 
139194

>  <distance_score>  (53) 
0.628232

>  <HIPPO Compound ID>  (53) 
165296

>  <gnina_score_min>  (53) 
3.821

>  <name>  (53) 
P139194

>  <exports>  (53) 
['/opt/xchem-fragalysis-2/maxwin/BulkDock/OUTPUTS/openbind_d68ev3c_c2_elabs_1LOTQJ3.sdf', '/opt/xchem-fragalysis-2/maxwin/BulkDock/OUTPUTS/openbind_d68ev3c_c2_elabs_1LSYI5W.sdf']

$$$$
P139195
     RDKit          3D

 20 21  0  0  0  0  0  0  0  0999 V2000
  -19.0766   -1.4613   15.3747 C   0  0  0  0  0  0  0  0  0  0  0  0
  -20.0022   -1.8418   16.5281 C   0  0  0  0  0  0  0  0  0  0  0  0
  -19.3129   -2.5840   17.4315 F   0  0  0  0  0  0  0  0  0  0  0  0
  -20.4040   -0.7122   17.1723 F   0  0  0  0  0  0  0  0  0  0  0  0
  -21.2441   -2.6040   16.0984 C   0  0  2  0  0  0  0  0  0  0  0  0
  -20.9247   -3.8557   15.2910 C   0  0  0  0  0  0  0  0  0  0  0  0
  -22.2481   -1.5445   15.0461 Cl  0  0  0  0  0  0  0  0  0  0  0  0
  -22.0299   -3.0085   17.3830 C   0  0  0  0  0  0  0  0  0  0  0  0
  -21.9725   -4.0922   17.8197 O   0  0  0  0  0  0  0  0  0  0  0  0
  -22.8758   -1.7903   17.8294 N   0  0  0  0  0  0  0  0  0  0  0  0
  -23.8905   -1.6795   18.8386 C   0  0  0  0  0  0  0  0  0  0  0  0
  -25.1782   -2.1829   18.2229 C   0  0  0  0  0  0  0  0  0  0  0  0
  -25.5232   -3.5321   18.3632 C   0  0  0  0  0  0  0  0  0  0  0  0
  -26.5901   -4.0542   17.6293 C   0  0  0  0  0  0  0  0  0  0  0  0
  -27.2590   -3.1851   16.7562 C   0  0  0  0  0  0  0  0  0  0  0  0
  -28.3330   -3.2954   15.8321 C   0  0  0  0  0  0  0  0  0  0  0  0
  -28.5151   -2.0567   15.2517 C   0  0  0  0  0  0  0  0  0  0  0  0
  -27.5914   -1.2004   15.7949 N   0  0  0  0  0  0  0  0  0  0  0  0
  -26.8235   -1.8667   16.7091 C   0  0  0  0  0  0  0  0  0  0  0  0
  -25.8203   -1.3070   17.4050 N   0  0  0  0  0  0  0  0  0  0  0  0
  1  2  1  0
  2  3  1  0
  2  4  1  0
  2  5  1  0
  5  6  1  6
  5  7  1  0
  5  8  1  0
  8  9  2  0
  8 10  1  0
 10 11  1  0
 11 12  1  0
 12 13  2  0
 13 14  1  0
 14 15  2  0
 15 16  1  0
 16 17  2  0
 17 18  1  0
 18 19  1  0
 19 20  2  0
 20 12  1  0
 19 15  1  0
M  END
>  <ref_mols>  (54) 
B1157a

>  <gnina_score>  (54) 
4.004

>  <smina_score_min>  (54) 
-2.962

>  <ref_pdb>  (54) 
B1157a

>  <inspiration_score>  (54) 
None

>  <inchikey>  (54) 
JNOSCBNRHOEIHU-GFCCVEGCSA-N

>  <tags>  (54) 
BulkDock Fragalysis export,openbind_d68ev3c_c2_elabs_scored,openbind_d68ev3c_c2_elabs,openbind_d68ev3c_c2_elabs_scored_top80percent_despaghettified,syndirella_product,openbind_d68ev3c_c2_elabs_scored_top80percent,syndirella_placed

>  <smiles>  (54) 
CC(F)(F)[C@](C)(Cl)C(=O)NCc1ccc2cc[nH]c2n1

>  <subsites>  (54) 
None

>  <rmsd(smina/fragmenstein)>  (54) 
2.54

>  <alias>  (54) 
None

>  <energy_score>  (54) 
-12.166484

>  <HIPPO Pose ID>  (54) 
139195

>  <distance_score>  (54) 
0.853854

>  <HIPPO Compound ID>  (54) 
165297

>  <gnina_score_min>  (54) 
3.878

>  <name>  (54) 
P139195

>  <exports>  (54) 
['/opt/xchem-fragalysis-2/maxwin/BulkDock/OUTPUTS/openbind_d68ev3c_c2_elabs_1LOTQJ3.sdf', '/opt/xchem-fragalysis-2/maxwin/BulkDock/OUTPUTS/openbind_d68ev3c_c2_elabs_1LSYI5W.sdf']

$$$$
P139198
     RDKit          3D

 20 22  0  0  0  0  0  0  0  0999 V2000
  -21.7430   -3.7137   13.6643 C   0  0  0  0  0  0  0  0  0  0  0  0
  -20.4095   -3.4840   14.3183 C   0  0  0  0  0  0  0  0  0  0  0  0
  -19.3633   -3.4341   13.6837 O   0  0  0  0  0  0  0  0  0  0  0  0
  -20.4019   -3.3999   15.7913 C   0  0  1  0  0  0  0  0  0  0  0  0
  -19.6539   -2.3599   16.5839 C   0  0  0  0  0  0  0  0  0  0  0  0
  -21.1498   -2.2979   16.5200 C   0  0  1  0  0  0  0  0  0  0  0  0
  -21.6957   -0.8769   15.5798 Cl  0  0  0  0  0  0  0  0  0  0  0  0
  -22.0018   -2.7541   17.6997 C   0  0  0  0  0  0  0  0  0  0  0  0
  -21.9008   -3.8488   18.0846 O   0  0  0  0  0  0  0  0  0  0  0  0
  -22.9595   -1.6389   18.1213 N   0  0  0  0  0  0  0  0  0  0  0  0
  -24.0620   -1.6539   19.0389 C   0  0  0  0  0  0  0  0  0  0  0  0
  -25.2605   -2.1996   18.2947 C   0  0  0  0  0  0  0  0  0  0  0  0
  -25.5683   -3.5612   18.3882 C   0  0  0  0  0  0  0  0  0  0  0  0
  -26.5732   -4.1005   17.5825 C   0  0  0  0  0  0  0  0  0  0  0  0
  -27.2215   -3.2337   16.6915 C   0  0  0  0  0  0  0  0  0  0  0  0
  -28.2475   -3.3547   15.7158 C   0  0  0  0  0  0  0  0  0  0  0  0
  -28.4372   -2.1101   15.1509 C   0  0  0  0  0  0  0  0  0  0  0  0
  -27.5635   -1.2398   15.7519 N   0  0  0  0  0  0  0  0  0  0  0  0
  -26.8211   -1.9033   16.6891 C   0  0  0  0  0  0  0  0  0  0  0  0
  -25.8718   -1.3302   17.4472 N   0  0  0  0  0  0  0  0  0  0  0  0
  1  2  1  0
  2  3  2  0
  4  2  1  6
  4  5  1  0
  5  6  1  0
  6  7  1  6
  6  8  1  0
  8  9  2  0
  8 10  1  0
 10 11  1  0
 11 12  1  0
 12 13  2  0
 13 14  1  0
 14 15  2  0
 15 16  1  0
 16 17  2  0
 17 18  1  0
 18 19  1  0
 19 20  2  0
  6  4  1  0
 20 12  1  0
 19 15  1  0
M  END
>  <ref_mols>  (55) 
B1157a

>  <gnina_score>  (55) 
4.106

>  <smina_score_min>  (55) 
-3.93

>  <ref_pdb>  (55) 
B1157a

>  <inspiration_score>  (55) 
None

>  <inchikey>  (55) 
HOOXSUKWJUWDOG-BXUZGUMPSA-N

>  <tags>  (55) 
BulkDock Fragalysis export,openbind_d68ev3c_c2_elabs_scored,openbind_d68ev3c_c2_elabs,openbind_d68ev3c_c2_elabs_scored_top80percent_despaghettified,syndirella_product,openbind_d68ev3c_c2_elabs_scored_top80percent,syndirella_placed

>  <smiles>  (55) 
CC(=O)[C@H]1C[C@]1(Cl)C(=O)NCc1ccc2cc[nH]c2n1

>  <subsites>  (55) 
None

>  <rmsd(smina/fragmenstein)>  (55) 
2.247

>  <alias>  (55) 
None

>  <energy_score>  (55) 
-11.969213

>  <HIPPO Pose ID>  (55) 
139198

>  <distance_score>  (55) 
0.684414

>  <HIPPO Compound ID>  (55) 
165298

>  <gnina_score_min>  (55) 
3.693

>  <name>  (55) 
P139198

>  <exports>  (55) 
['/opt/xchem-fragalysis-2/maxwin/BulkDock/OUTPUTS/openbind_d68ev3c_c2_elabs_1LOTQJ3.sdf', '/opt/xchem-fragalysis-2/maxwin/BulkDock/OUTPUTS/openbind_d68ev3c_c2_elabs_1LSYI5W.sdf']

$$$$
P139202
     RDKit          3D

 20 22  0  0  0  0  0  0  0  0999 V2000
  -18.4204   -1.2300   14.4485 C   0  0  0  0  0  0  0  0  0  0  0  0
  -19.8256   -0.6411   14.4249 C   0  0  0  0  0  0  0  0  0  0  0  0
  -19.7706    0.8780   14.2554 C   0  0  0  0  0  0  0  0  0  0  0  0
  -20.5856   -1.0083   15.6745 C   0  0  1  0  0  0  0  0  0  0  0  0
  -22.0021   -0.9284   15.4944 O   0  0  0  0  0  0  0  0  0  0  0  0
  -21.4616   -2.2405   15.8084 C   0  0  1  0  0  0  0  0  0  0  0  0
  -21.5012   -3.4173   14.4864 Cl  0  0  0  0  0  0  0  0  0  0  0  0
  -21.9175   -2.7457   17.1759 C   0  0  0  0  0  0  0  0  0  0  0  0
  -21.3815   -3.7122   17.6315 O   0  0  0  0  0  0  0  0  0  0  0  0
  -23.0214   -1.9846   17.6512 N   0  0  0  0  0  0  0  0  0  0  0  0
  -23.8971   -2.1906   18.7716 C   0  0  0  0  0  0  0  0  0  0  0  0
  -25.2433   -2.6387   18.2474 C   0  0  0  0  0  0  0  0  0  0  0  0
  -25.6689   -3.9532   18.4550 C   0  0  0  0  0  0  0  0  0  0  0  0
  -26.8525   -4.3970   17.8604 C   0  0  0  0  0  0  0  0  0  0  0  0
  -27.5587   -3.4866   17.0610 C   0  0  0  0  0  0  0  0  0  0  0  0
  -28.7464   -3.5208   16.2813 C   0  0  0  0  0  0  0  0  0  0  0  0
  -28.9087   -2.2752   15.7100 C   0  0  0  0  0  0  0  0  0  0  0  0
  -27.8630   -1.4875   16.1200 N   0  0  0  0  0  0  0  0  0  0  0  0
  -27.0349   -2.2061   16.9376 C   0  0  0  0  0  0  0  0  0  0  0  0
  -25.9121   -1.7223   17.4945 N   0  0  0  0  0  0  0  0  0  0  0  0
  1  2  1  0
  2  3  1  0
  4  2  1  6
  4  5  1  0
  5  6  1  0
  6  7  1  6
  6  8  1  0
  8  9  2  0
  8 10  1  0
 10 11  1  0
 11 12  1  0
 12 13  2  0
 13 14  1  0
 14 15  2  0
 15 16  1  0
 16 17  2  0
 17 18  1  0
 18 19  1  0
 19 20  2  0
  6  4  1  0
 20 12  1  0
 19 15  1  0
M  END
>  <ref_mols>  (56) 
B1157a

>  <gnina_score>  (56) 
4.156

>  <smina_score_min>  (56) 
-3.082

>  <ref_pdb>  (56) 
B1157a

>  <inspiration_score>  (56) 
None

>  <inchikey>  (56) 
FAHFMELMTMPKAK-RISCZKNCSA-N

>  <tags>  (56) 
BulkDock Fragalysis export,openbind_d68ev3c_c2_elabs_scored,openbind_d68ev3c_c2_elabs,openbind_d68ev3c_c2_elabs_scored_top80percent_despaghettified,syndirella_product,openbind_d68ev3c_c2_elabs_scored_top80percent,syndirella_placed

>  <smiles>  (56) 
CC(C)[C@H]1O[C@]1(Cl)C(=O)NCc1ccc2cc[nH]c2n1

>  <subsites>  (56) 
None

>  <rmsd(smina/fragmenstein)>  (56) 
1.73

>  <alias>  (56) 
None

>  <energy_score>  (56) 
-21.763121

>  <HIPPO Pose ID>  (56) 
139202

>  <distance_score>  (56) 
1.134334

>  <HIPPO Compound ID>  (56) 
165299

>  <gnina_score_min>  (56) 
3.858

>  <name>  (56) 
P139202

>  <exports>  (56) 
['/opt/xchem-fragalysis-2/maxwin/BulkDock/OUTPUTS/openbind_d68ev3c_c2_elabs_1LOTQJ3.sdf', '/opt/xchem-fragalysis-2/maxwin/BulkDock/OUTPUTS/openbind_d68ev3c_c2_elabs_1LSYI5W.sdf']

$$$$
P139204
     RDKit          3D

 20 22  0  0  0  0  0  0  0  0999 V2000
  -21.2743   -3.2727   17.6388 O   0  0  0  0  0  0  0  0  0  0  0  0
  -21.8399   -2.2824   17.3829 C   0  0  0  0  0  0  0  0  0  0  0  0
  -23.1291   -1.6721   17.9988 N   0  0  0  0  0  0  0  0  0  0  0  0
  -24.0305   -2.1985   18.9813 C   0  0  0  0  0  0  0  0  0  0  0  0
  -25.2776   -2.6119   18.2355 C   0  0  0  0  0  0  0  0  0  0  0  0
  -25.6906   -3.9442   18.2596 C   0  0  0  0  0  0  0  0  0  0  0  0
  -26.7499   -4.3469   17.4451 C   0  0  0  0  0  0  0  0  0  0  0  0
  -27.3471   -3.3778   16.6258 C   0  0  0  0  0  0  0  0  0  0  0  0
  -28.3941   -3.3604   15.6657 C   0  0  0  0  0  0  0  0  0  0  0  0
  -28.5051   -2.0701   15.1893 C   0  0  0  0  0  0  0  0  0  0  0  0
  -27.5645   -1.3051   15.8304 N   0  0  0  0  0  0  0  0  0  0  0  0
  -26.8529   -2.0821   16.7022 C   0  0  0  0  0  0  0  0  0  0  0  0
  -25.8495   -1.6336   17.4733 N   0  0  0  0  0  0  0  0  0  0  0  0
  -21.4308   -1.3320   16.1831 C   0  0  0  0  0  0  0  0  0  0  0  0
  -19.8179   -1.8934   15.5767 Cl  0  0  0  0  0  0  0  0  0  0  0  0
  -22.4559   -1.4855   15.0294 C   0  0  0  0  0  0  0  0  0  0  0  0
  -22.7635   -0.1792   14.2893 C   0  0  0  0  0  0  0  0  0  0  0  0
  -21.5250    0.6869   14.1068 C   0  0  0  0  0  0  0  0  0  0  0  0
  -20.8784    1.0689   15.4396 C   0  0  0  0  0  0  0  0  0  0  0  0
  -21.2815    0.1468   16.5967 C   0  0  0  0  0  0  0  0  0  0  0  0
  1  2  2  0
  2  3  1  0
  3  4  1  0
  4  5  1  0
  5  6  2  0
  6  7  1  0
  7  8  2  0
  8  9  1  0
  9 10  2  0
 10 11  1  0
 11 12  1  0
 12 13  2  0
  2 14  1  0
 14 15  1  0
 14 16  1  0
 16 17  1  0
 17 18  1  0
 18 19  1  0
 19 20  1  0
 13  5  1  0
 20 14  1  0
 12  8  1  0
M  END
>  <ref_mols>  (57) 
B1157a

>  <gnina_score>  (57) 
4.573

>  <smina_score_min>  (57) 
-3.817

>  <ref_pdb>  (57) 
B1157a

>  <inspiration_score>  (57) 
None

>  <inchikey>  (57) 
AENMQBPMJXMGGW-UHFFFAOYSA-N

>  <tags>  (57) 
BulkDock Fragalysis export,openbind_d68ev3c_c2_elabs_scored,openbind_d68ev3c_c2_elabs,openbind_d68ev3c_c2_elabs_scored_top80percent_despaghettified,syndirella_product,openbind_d68ev3c_c2_elabs_scored_top80percent,syndirella_placed

>  <smiles>  (57) 
O=C(NCc1ccc2cc[nH]c2n1)C1(Cl)CCCCC1

>  <subsites>  (57) 
None

>  <rmsd(smina/fragmenstein)>  (57) 
2.294

>  <alias>  (57) 
None

>  <energy_score>  (57) 
-12.507686

>  <HIPPO Pose ID>  (57) 
139204

>  <distance_score>  (57) 
0.769403

>  <HIPPO Compound ID>  (57) 
165300

>  <gnina_score_min>  (57) 
4.113

>  <name>  (57) 
P139204

>  <exports>  (57) 
['/opt/xchem-fragalysis-2/maxwin/BulkDock/OUTPUTS/openbind_d68ev3c_c2_elabs_1LOTQJ3.sdf', '/opt/xchem-fragalysis-2/maxwin/BulkDock/OUTPUTS/openbind_d68ev3c_c2_elabs_1LSYI5W.sdf']

$$$$
P139206
     RDKit          3D

 20 23  0  0  0  0  0  0  0  0999 V2000
  -21.8777   -4.0318   17.6641 O   0  0  0  0  0  0  0  0  0  0  0  0
  -21.9794   -2.9771   17.1816 C   0  0  0  0  0  0  0  0  0  0  0  0
  -22.8038   -1.7623   17.6154 N   0  0  0  0  0  0  0  0  0  0  0  0
  -23.7538   -1.6118   18.6811 C   0  0  0  0  0  0  0  0  0  0  0  0
  -25.0805   -2.1236   18.1585 C   0  0  0  0  0  0  0  0  0  0  0  0
  -25.4104   -3.4729   18.3326 C   0  0  0  0  0  0  0  0  0  0  0  0
  -26.5071   -4.0113   17.6561 C   0  0  0  0  0  0  0  0  0  0  0  0
  -27.2218   -3.1581   16.8039 C   0  0  0  0  0  0  0  0  0  0  0  0
  -28.3314   -3.2890   15.9257 C   0  0  0  0  0  0  0  0  0  0  0  0
  -28.5518   -2.0579   15.3427 C   0  0  0  0  0  0  0  0  0  0  0  0
  -27.6204   -1.1847   15.8439 N   0  0  0  0  0  0  0  0  0  0  0  0
  -26.8034   -1.8356   16.7262 C   0  0  0  0  0  0  0  0  0  0  0  0
  -25.7713   -1.2611   17.3660 N   0  0  0  0  0  0  0  0  0  0  0  0
  -21.3080   -2.6789   15.8579 C   0  0  1  0  0  0  0  0  0  0  0  0
  -19.8614   -1.6598   15.9296 Cl  0  0  0  0  0  0  0  0  0  0  0  0
  -21.3202   -3.7500   14.7825 C   0  0  0  0  0  0  0  0  0  0  0  0
  -22.1553   -2.5273   14.6142 C   0  0  0  0  0  0  0  0  0  0  0  0
  -22.0113   -1.5449   13.5095 C   0  0  0  0  0  0  0  0  0  0  0  0
  -23.3746   -2.0821   13.0377 C   0  0  0  0  0  0  0  0  0  0  0  0
  -23.6347   -2.5252   14.4881 C   0  0  0  0  0  0  0  0  0  0  0  0
  1  2  2  0
  2  3  1  0
  3  4  1  0
  4  5  1  0
  5  6  2  0
  6  7  1  0
  7  8  2  0
  8  9  1  0
  9 10  2  0
 10 11  1  0
 11 12  1  0
 12 13  2  0
  2 14  1  0
 14 15  1  1
 14 16  1  0
 16 17  1  0
 17 18  1  0
 18 19  1  0
 19 20  1  0
 13  5  1  0
 17 14  1  0
 12  8  1  0
 20 17  1  0
M  END
>  <ref_mols>  (58) 
B1157a

>  <gnina_score>  (58) 
4.549

>  <smina_score_min>  (58) 
-3.803

>  <ref_pdb>  (58) 
B1157a

>  <inspiration_score>  (58) 
None

>  <inchikey>  (58) 
NRDLODHAJVCNBN-HNNXBMFYSA-N

>  <tags>  (58) 
BulkDock Fragalysis export,openbind_d68ev3c_c2_elabs_scored,openbind_d68ev3c_c2_elabs,openbind_d68ev3c_c2_elabs_scored_top80percent_despaghettified,syndirella_product,openbind_d68ev3c_c2_elabs_scored_top80percent,syndirella_placed

>  <smiles>  (58) 
O=C(NCc1ccc2cc[nH]c2n1)[C@@]1(Cl)CC12CCC2

>  <subsites>  (58) 
None

>  <rmsd(smina/fragmenstein)>  (58) 
2.303

>  <alias>  (58) 
None

>  <energy_score>  (58) 
-13.214689

>  <HIPPO Pose ID>  (58) 
139206

>  <distance_score>  (58) 
0.669578

>  <HIPPO Compound ID>  (58) 
165301

>  <gnina_score_min>  (58) 
3.883

>  <name>  (58) 
P139206

>  <exports>  (58) 
['/opt/xchem-fragalysis-2/maxwin/BulkDock/OUTPUTS/openbind_d68ev3c_c2_elabs_1LOTQJ3.sdf', '/opt/xchem-fragalysis-2/maxwin/BulkDock/OUTPUTS/openbind_d68ev3c_c2_elabs_1LSYI5W.sdf']

$$$$
P139210
     RDKit          3D

 21 24  0  0  0  0  0  0  0  0999 V2000
  -21.8811   -4.0665   16.1660 O   0  0  0  0  0  0  0  0  0  0  0  0
  -21.7686   -2.9147   16.3195 C   0  0  0  0  0  0  0  0  0  0  0  0
  -22.3165   -1.9914   17.4419 N   0  0  0  0  0  0  0  0  0  0  0  0
  -23.1910   -2.2827   18.5477 C   0  0  0  0  0  0  0  0  0  0  0  0
  -24.5898   -2.5733   18.0298 C   0  0  0  0  0  0  0  0  0  0  0  0
  -25.1391   -3.8462   18.2137 C   0  0  0  0  0  0  0  0  0  0  0  0
  -26.3626   -4.1692   17.6209 C   0  0  0  0  0  0  0  0  0  0  0  0
  -26.9863   -3.1829   16.8452 C   0  0  0  0  0  0  0  0  0  0  0  0
  -28.1689   -3.0988   16.0607 C   0  0  0  0  0  0  0  0  0  0  0  0
  -28.2231   -1.8300   15.5213 C   0  0  0  0  0  0  0  0  0  0  0  0
  -27.1186   -1.1424   15.9582 N   0  0  0  0  0  0  0  0  0  0  0  0
  -26.3558   -1.9480   16.7591 C   0  0  0  0  0  0  0  0  0  0  0  0
  -25.1956   -1.5757   17.3288 N   0  0  0  0  0  0  0  0  0  0  0  0
  -21.0230   -2.0050   15.2958 C   0  0  1  0  0  0  0  0  0  0  0  0
  -22.0361   -0.5472   15.0228 Cl  0  0  0  0  0  0  0  0  0  0  0  0
  -19.6456   -1.5573   15.7815 C   0  0  0  0  0  0  0  0  0  0  0  0
  -18.7630   -1.8837   14.5805 C   0  0  2  0  0  0  0  0  0  0  0  0
  -19.1306   -1.0351   13.3568 C   0  0  0  0  0  0  0  0  0  0  0  0
  -20.3624   -1.7704   12.8191 C   0  0  0  0  0  0  0  0  0  0  0  0
  -20.6675   -2.7327   13.9724 C   0  0  1  0  0  0  0  0  0  0  0  0
  -19.2953   -3.1775   14.2104 O   0  0  0  0  0  0  0  0  0  0  0  0
  1  2  2  0
  2  3  1  0
  3  4  1  0
  4  5  1  0
  5  6  2  0
  6  7  1  0
  7  8  2  0
  8  9  1  0
  9 10  2  0
 10 11  1  0
 11 12  1  0
 12 13  2  0
  2 14  1  0
 14 15  1  6
 14 16  1  0
 17 16  1  1
 17 18  1  0
 18 19  1  0
 20 19  1  6
 20 21  1  0
 13  5  1  0
 20 14  1  0
 12  8  1  0
 21 17  1  0
M  END
>  <ref_mols>  (59) 
B1157a

>  <gnina_score>  (59) 
4.365

>  <smina_score_min>  (59) 
-4.278

>  <ref_pdb>  (59) 
B1157a

>  <inspiration_score>  (59) 
None

>  <inchikey>  (59) 
RJIVJYYEYKOKQF-YWPYICTPSA-N

>  <tags>  (59) 
BulkDock Fragalysis export,openbind_d68ev3c_c2_elabs_scored,openbind_d68ev3c_c2_elabs,openbind_d68ev3c_c2_elabs_scored_top80percent_despaghettified,syndirella_product,openbind_d68ev3c_c2_elabs_scored_top80percent,syndirella_placed

>  <smiles>  (59) 
O=C(NCc1ccc2cc[nH]c2n1)[C@@]1(Cl)C[C@@H]2CC[C@H]1O2

>  <subsites>  (59) 
None

>  <rmsd(smina/fragmenstein)>  (59) 
2.653

>  <alias>  (59) 
None

>  <energy_score>  (59) 
-40.244505

>  <HIPPO Pose ID>  (59) 
139210

>  <distance_score>  (59) 
1.148407

>  <HIPPO Compound ID>  (59) 
165303

>  <gnina_score_min>  (59) 
3.812

>  <name>  (59) 
P139210

>  <exports>  (59) 
['/opt/xchem-fragalysis-2/maxwin/BulkDock/OUTPUTS/openbind_d68ev3c_c2_elabs_1LOTQJ3.sdf', '/opt/xchem-fragalysis-2/maxwin/BulkDock/OUTPUTS/openbind_d68ev3c_c2_elabs_1LSYI5W.sdf']

$$$$
P139211
     RDKit          3D

 21 23  0  0  0  0  0  0  0  0999 V2000
  -20.1814   -3.1327   17.3145 O   0  0  0  0  0  0  0  0  0  0  0  0
  -20.8135   -2.2076   16.9801 C   0  0  0  0  0  0  0  0  0  0  0  0
  -22.2292   -1.7381   17.4285 N   0  0  0  0  0  0  0  0  0  0  0  0
  -23.1082   -2.2576   18.4438 C   0  0  0  0  0  0  0  0  0  0  0  0
  -24.4837   -2.5607   17.8825 C   0  0  0  0  0  0  0  0  0  0  0  0
  -25.0821   -3.7919   18.1697 C   0  0  0  0  0  0  0  0  0  0  0  0
  -26.3246   -4.1084   17.6148 C   0  0  0  0  0  0  0  0  0  0  0  0
  -26.9243   -3.1528   16.7836 C   0  0  0  0  0  0  0  0  0  0  0  0
  -28.1233   -3.0720   16.0245 C   0  0  0  0  0  0  0  0  0  0  0  0
  -28.1419   -1.8402   15.4035 C   0  0  0  0  0  0  0  0  0  0  0  0
  -26.9981   -1.1725   15.7633 N   0  0  0  0  0  0  0  0  0  0  0  0
  -26.2456   -1.9545   16.5972 C   0  0  0  0  0  0  0  0  0  0  0  0
  -25.0576   -1.5928   17.1159 N   0  0  0  0  0  0  0  0  0  0  0  0
  -20.3234   -1.1753   15.9381 C   0  0  2  0  0  0  0  0  0  0  0  0
  -21.4803   -1.2144   14.5781 Cl  0  0  0  0  0  0  0  0  0  0  0  0
  -18.9326   -1.4889   15.4050 C   0  0  0  0  0  0  0  0  0  0  0  0
  -18.2971   -0.4092   14.6722 N   0  0  0  0  0  0  0  0  0  0  0  0
  -17.1943   -0.5001   13.8779 C   0  0  0  0  0  0  0  0  0  0  0  0
  -16.8501    0.6944   13.4538 N   0  0  0  0  0  0  0  0  0  0  0  0
  -17.7883    1.5022   14.0207 C   0  0  0  0  0  0  0  0  0  0  0  0
  -18.6685    0.8832   14.8111 N   0  0  0  0  0  0  0  0  0  0  0  0
  1  2  2  0
  2  3  1  0
  3  4  1  0
  4  5  1  0
  5  6  2  0
  6  7  1  0
  7  8  2  0
  8  9  1  0
  9 10  2  0
 10 11  1  0
 11 12  1  0
 12 13  2  0
  2 14  1  0
 14 15  1  6
 14 16  1  0
 16 17  1  0
 17 18  1  0
 18 19  2  0
 19 20  1  0
 20 21  2  0
 13  5  1  0
 21 17  1  0
 12  8  1  0
M  END
>  <ref_mols>  (60) 
B1157a

>  <gnina_score>  (60) 
4.409

>  <smina_score_min>  (60) 
-4.08

>  <ref_pdb>  (60) 
B1157a

>  <inspiration_score>  (60) 
None

>  <inchikey>  (60) 
ZTHWCAUSDHJSMN-LLVKDONJSA-N

>  <tags>  (60) 
BulkDock Fragalysis export,openbind_d68ev3c_c2_elabs_scored,openbind_d68ev3c_c2_elabs,openbind_d68ev3c_c2_elabs_scored_top80percent_despaghettified,syndirella_product,openbind_d68ev3c_c2_elabs_scored_top80percent,syndirella_placed

>  <smiles>  (60) 
O=C(NCc1ccc2cc[nH]c2n1)[C@H](Cl)Cn1cncn1

>  <subsites>  (60) 
None

>  <rmsd(smina/fragmenstein)>  (60) 
1.997

>  <alias>  (60) 
None

>  <energy_score>  (60) 
-9.720993

>  <HIPPO Pose ID>  (60) 
139211

>  <distance_score>  (60) 
1.01582

>  <HIPPO Compound ID>  (60) 
165304

>  <gnina_score_min>  (60) 
3.684

>  <name>  (60) 
P139211

>  <exports>  (60) 
['/opt/xchem-fragalysis-2/maxwin/BulkDock/OUTPUTS/openbind_d68ev3c_c2_elabs_1LOTQJ3.sdf', '/opt/xchem-fragalysis-2/maxwin/BulkDock/OUTPUTS/openbind_d68ev3c_c2_elabs_1LSYI5W.sdf']

$$$$
P139215
     RDKit          3D

 21 23  0  0  0  0  0  0  0  0999 V2000
  -24.2596   -4.3706   14.5717 C   0  0  0  0  0  0  0  0  0  0  0  0
  -22.9658   -4.1142   15.1154 O   0  0  0  0  0  0  0  0  0  0  0  0
  -22.4652   -2.8919   14.7931 C   0  0  0  0  0  0  0  0  0  0  0  0
  -23.0407   -2.0276   14.1441 O   0  0  0  0  0  0  0  0  0  0  0  0
  -21.0668   -2.7027   15.2868 C   0  0  1  0  0  0  0  0  0  0  0  0
  -19.8012   -3.3348   14.1973 Cl  0  0  0  0  0  0  0  0  0  0  0  0
  -20.7261   -1.3708   15.9308 C   0  0  0  0  0  0  0  0  0  0  0  0
  -20.7480   -2.6153   16.7747 C   0  0  1  0  0  0  0  0  0  0  0  0
  -21.8075   -3.0049   17.7519 C   0  0  0  0  0  0  0  0  0  0  0  0
  -21.8706   -4.1246   18.0563 O   0  0  0  0  0  0  0  0  0  0  0  0
  -22.6540   -1.8115   18.1869 N   0  0  0  0  0  0  0  0  0  0  0  0
  -23.8243   -1.7499   19.0197 C   0  0  0  0  0  0  0  0  0  0  0  0
  -25.0292   -2.2559   18.2581 C   0  0  0  0  0  0  0  0  0  0  0  0
  -25.4109   -3.5959   18.3871 C   0  0  0  0  0  0  0  0  0  0  0  0
  -26.4841   -4.0876   17.6412 C   0  0  0  0  0  0  0  0  0  0  0  0
  -27.1231   -3.1980   16.7669 C   0  0  0  0  0  0  0  0  0  0  0  0
  -28.2000   -3.2748   15.8428 C   0  0  0  0  0  0  0  0  0  0  0  0
  -28.3351   -2.0340   15.2547 C   0  0  0  0  0  0  0  0  0  0  0  0
  -27.3795   -1.2089   15.7922 N   0  0  0  0  0  0  0  0  0  0  0  0
  -26.6404   -1.8956   16.7159 C   0  0  0  0  0  0  0  0  0  0  0  0
  -25.6239   -1.3676   17.4197 N   0  0  0  0  0  0  0  0  0  0  0  0
  1  2  1  0
  2  3  1  0
  3  4  2  0
  3  5  1  0
  5  6  1  6
  5  7  1  0
  7  8  1  0
  8  9  1  1
  9 10  2  0
  9 11  1  0
 11 12  1  0
 12 13  1  0
 13 14  2  0
 14 15  1  0
 15 16  2  0
 16 17  1  0
 17 18  2  0
 18 19  1  0
 19 20  1  0
 20 21  2  0
  8  5  1  0
 21 13  1  0
 20 16  1  0
M  END
>  <ref_mols>  (61) 
B1157a

>  <gnina_score>  (61) 
4.12

>  <smina_score_min>  (61) 
-3.142

>  <ref_pdb>  (61) 
B1157a

>  <inspiration_score>  (61) 
None

>  <inchikey>  (61) 
IROQQWRMJIGPLY-IINYFYTJSA-N

>  <tags>  (61) 
BulkDock Fragalysis export,openbind_d68ev3c_c2_elabs_scored,openbind_d68ev3c_c2_elabs,openbind_d68ev3c_c2_elabs_scored_top80percent_despaghettified,syndirella_product,openbind_d68ev3c_c2_elabs_scored_top80percent,syndirella_placed

>  <smiles>  (61) 
COC(=O)[C@@]1(Cl)C[C@H]1C(=O)NCc1ccc2cc[nH]c2n1

>  <subsites>  (61) 
None

>  <rmsd(smina/fragmenstein)>  (61) 
1.78

>  <alias>  (61) 
None

>  <energy_score>  (61) 
-29.6252

>  <HIPPO Pose ID>  (61) 
139215

>  <distance_score>  (61) 
0.385347

>  <HIPPO Compound ID>  (61) 
165305

>  <gnina_score_min>  (61) 
3.849

>  <name>  (61) 
P139215

>  <exports>  (61) 
['/opt/xchem-fragalysis-2/maxwin/BulkDock/OUTPUTS/openbind_d68ev3c_c2_elabs_1LOTQJ3.sdf', '/opt/xchem-fragalysis-2/maxwin/BulkDock/OUTPUTS/openbind_d68ev3c_c2_elabs_1LSYI5W.sdf']

$$$$
P139216
     RDKit          3D

 21 23  0  0  0  0  0  0  0  0999 V2000
  -22.4355   -4.3541   11.6881 C   0  0  0  0  0  0  0  0  0  0  0  0
  -22.0093   -3.1738   12.4410 N   0  0  0  0  0  0  0  0  0  0  0  0
  -23.0704   -2.7432   13.3588 C   0  0  0  0  0  0  0  0  0  0  0  0
  -22.5324   -1.7586   14.3946 C   0  0  0  0  0  0  0  0  0  0  0  0
  -21.4842   -2.4352   15.3131 C   0  0  0  0  0  0  0  0  0  0  0  0
  -20.2056   -1.2356   15.7219 Cl  0  0  0  0  0  0  0  0  0  0  0  0
  -22.1243   -2.8956   16.6714 C   0  0  0  0  0  0  0  0  0  0  0  0
  -22.1515   -4.0157   17.0018 O   0  0  0  0  0  0  0  0  0  0  0  0
  -22.7421   -1.6382   17.3341 N   0  0  0  0  0  0  0  0  0  0  0  0
  -23.5966   -1.5135   18.4822 C   0  0  0  0  0  0  0  0  0  0  0  0
  -24.9607   -2.0297   18.0617 C   0  0  0  0  0  0  0  0  0  0  0  0
  -25.2919   -3.3688   18.3025 C   0  0  0  0  0  0  0  0  0  0  0  0
  -26.4225   -3.9243   17.6983 C   0  0  0  0  0  0  0  0  0  0  0  0
  -27.1697   -3.0990   16.8467 C   0  0  0  0  0  0  0  0  0  0  0  0
  -28.3154   -3.2562   16.0206 C   0  0  0  0  0  0  0  0  0  0  0  0
  -28.5557   -2.0458   15.4029 C   0  0  0  0  0  0  0  0  0  0  0  0
  -27.6010   -1.1599   15.8332 N   0  0  0  0  0  0  0  0  0  0  0  0
  -26.7491   -1.7828   16.7026 C   0  0  0  0  0  0  0  0  0  0  0  0
  -25.6880   -1.1909   17.2757 N   0  0  0  0  0  0  0  0  0  0  0  0
  -20.8423   -3.6331   14.6012 C   0  0  0  0  0  0  0  0  0  0  0  0
  -20.7130   -3.4024   13.1009 C   0  0  0  0  0  0  0  0  0  0  0  0
  1  2  1  0
  2  3  1  0
  3  4  1  0
  4  5  1  0
  5  6  1  0
  5  7  1  0
  7  8  2  0
  7  9  1  0
  9 10  1  0
 10 11  1  0
 11 12  2  0
 12 13  1  0
 13 14  2  0
 14 15  1  0
 15 16  2  0
 16 17  1  0
 17 18  1  0
 18 19  2  0
  5 20  1  0
 20 21  1  0
 21  2  1  0
 19 11  1  0
 18 14  1  0
M  END
>  <ref_mols>  (62) 
B1157a

>  <gnina_score>  (62) 
4.587

>  <smina_score_min>  (62) 
-3.932

>  <ref_pdb>  (62) 
B1157a

>  <inspiration_score>  (62) 
None

>  <inchikey>  (62) 
KPNWKSFDTARERL-UHFFFAOYSA-N

>  <tags>  (62) 
BulkDock Fragalysis export,openbind_d68ev3c_c2_elabs_scored,openbind_d68ev3c_c2_elabs,openbind_d68ev3c_c2_elabs_scored_top80percent_despaghettified,syndirella_product,openbind_d68ev3c_c2_elabs_scored_top80percent,syndirella_placed

>  <smiles>  (62) 
CN1CCC(Cl)(C(=O)NCc2ccc3cc[nH]c3n2)CC1

>  <subsites>  (62) 
None

>  <rmsd(smina/fragmenstein)>  (62) 
2.348

>  <alias>  (62) 
None

>  <energy_score>  (62) 
-18.563745

>  <HIPPO Pose ID>  (62) 
139216

>  <distance_score>  (62) 
0.893321

>  <HIPPO Compound ID>  (62) 
165306

>  <gnina_score_min>  (62) 
3.754

>  <name>  (62) 
P139216

>  <exports>  (62) 
['/opt/xchem-fragalysis-2/maxwin/BulkDock/OUTPUTS/openbind_d68ev3c_c2_elabs_1LOTQJ3.sdf', '/opt/xchem-fragalysis-2/maxwin/BulkDock/OUTPUTS/openbind_d68ev3c_c2_elabs_1LSYI5W.sdf']

$$$$
P139222
     RDKit          3D

 21 23  0  0  0  0  0  0  0  0999 V2000
  -19.9521   -4.4475   17.5613 O   0  0  0  0  0  0  0  0  0  0  0  0
  -20.2598   -3.5241   16.8322 C   0  0  0  0  0  0  0  0  0  0  0  0
  -21.3730   -3.5093   15.8189 C   0  0  0  0  0  0  0  0  0  0  0  0
  -21.2052   -2.1524   15.1493 C   0  0  0  0  0  0  0  0  0  0  0  0
  -20.4064   -1.3159   16.1529 C   0  0  1  0  0  0  0  0  0  0  0  0
  -21.2431   -0.4160   17.0762 C   0  0  1  0  0  0  0  0  0  0  0  0
  -21.9803    0.8194   16.0291 Cl  0  0  0  0  0  0  0  0  0  0  0  0
  -22.2749   -1.1472   17.9896 C   0  0  0  0  0  0  0  0  0  0  0  0
  -22.0430   -2.1969   18.4368 O   0  0  0  0  0  0  0  0  0  0  0  0
  -23.4930   -0.2273   18.1851 N   0  0  0  0  0  0  0  0  0  0  0  0
  -24.7213   -0.4452   18.8944 C   0  0  0  0  0  0  0  0  0  0  0  0
  -25.5709   -1.4223   18.1151 C   0  0  0  0  0  0  0  0  0  0  0  0
  -25.4858   -2.7986   18.3631 C   0  0  0  0  0  0  0  0  0  0  0  0
  -26.2361   -3.6907   17.5908 C   0  0  0  0  0  0  0  0  0  0  0  0
  -27.0388   -3.1461   16.5782 C   0  0  0  0  0  0  0  0  0  0  0  0
  -27.9347   -3.6518   15.5983 C   0  0  0  0  0  0  0  0  0  0  0  0
  -28.4173   -2.5787   14.8765 C   0  0  0  0  0  0  0  0  0  0  0  0
  -27.8422   -1.4420   15.3820 N   0  0  0  0  0  0  0  0  0  0  0  0
  -27.0139   -1.7671   16.4180 C   0  0  0  0  0  0  0  0  0  0  0  0
  -26.3181   -0.8690   17.1293 N   0  0  0  0  0  0  0  0  0  0  0  0
  -19.6451   -2.2982   16.8481 N   0  0  0  0  0  0  0  0  0  0  0  0
  1  2  2  0
  2  3  1  0
  3  4  1  0
  5  4  1  6
  5  6  1  0
  6  7  1  6
  6  8  1  0
  8  9  2  0
  8 10  1  0
 10 11  1  0
 11 12  1  0
 12 13  2  0
 13 14  1  0
 14 15  2  0
 15 16  1  0
 16 17  2  0
 17 18  1  0
 18 19  1  0
 19 20  2  0
  5 21  1  0
 21  2  1  0
 20 12  1  0
 19 15  1  0
M  END
>  <ref_mols>  (63) 
B1157a

>  <gnina_score>  (63) 
4.597

>  <smina_score_min>  (63) 
-3.549

>  <ref_pdb>  (63) 
B1157a

>  <inspiration_score>  (63) 
None

>  <inchikey>  (63) 
ABTOHOJCXOGOCU-CMPLNLGQSA-N

>  <tags>  (63) 
BulkDock Fragalysis export,openbind_d68ev3c_c2_elabs_scored,openbind_d68ev3c_c2_elabs,openbind_d68ev3c_c2_elabs_scored_top80percent_despaghettified,syndirella_product,openbind_d68ev3c_c2_elabs_scored_top80percent,syndirella_placed

>  <smiles>  (63) 
O=C1CC[C@@H]([C@@H](Cl)C(=O)NCc2ccc3cc[nH]c3n2)N1

>  <subsites>  (63) 
None

>  <rmsd(smina/fragmenstein)>  (63) 
2.508

>  <alias>  (63) 
None

>  <energy_score>  (63) 
-15.876941

>  <HIPPO Pose ID>  (63) 
139222

>  <distance_score>  (63) 
1.450184

>  <HIPPO Compound ID>  (63) 
165308

>  <gnina_score_min>  (63) 
4.046

>  <name>  (63) 
P139222

>  <exports>  (63) 
['/opt/xchem-fragalysis-2/maxwin/BulkDock/OUTPUTS/openbind_d68ev3c_c2_elabs_1LOTQJ3.sdf', '/opt/xchem-fragalysis-2/maxwin/BulkDock/OUTPUTS/openbind_d68ev3c_c2_elabs_1LSYI5W.sdf']

$$$$
P139223
     RDKit          3D

 22 25  0  0  0  0  0  0  0  0999 V2000
  -22.7166   -4.2989   16.7964 O   0  0  0  0  0  0  0  0  0  0  0  0
  -22.6761   -3.1579   16.5827 C   0  0  0  0  0  0  0  0  0  0  0  0
  -23.4141   -1.9982   17.2498 N   0  0  0  0  0  0  0  0  0  0  0  0
  -24.2886   -1.9806   18.3842 C   0  0  0  0  0  0  0  0  0  0  0  0
  -25.6356   -2.4187   17.8976 C   0  0  0  0  0  0  0  0  0  0  0  0
  -25.9863   -3.7690   17.9849 C   0  0  0  0  0  0  0  0  0  0  0  0
  -27.0882   -4.2342   17.2715 C   0  0  0  0  0  0  0  0  0  0  0  0
  -27.7690   -3.3098   16.4669 C   0  0  0  0  0  0  0  0  0  0  0  0
  -28.8558   -3.3603   15.5554 C   0  0  0  0  0  0  0  0  0  0  0  0
  -29.0364   -2.0905   15.0458 C   0  0  0  0  0  0  0  0  0  0  0  0
  -28.1036   -1.2700   15.6246 N   0  0  0  0  0  0  0  0  0  0  0  0
  -27.3307   -1.9923   16.4871 C   0  0  0  0  0  0  0  0  0  0  0  0
  -26.3122   -1.4796   17.1883 N   0  0  0  0  0  0  0  0  0  0  0  0
  -21.7385   -2.6195   15.5266 C   0  0  2  0  0  0  0  0  0  0  0  0
  -22.4903   -2.1111   14.0187 Cl  0  0  0  0  0  0  0  0  0  0  0  0
  -20.3396   -3.1789   15.4198 C   0  0  0  0  0  0  0  0  0  0  0  0
  -20.5386   -1.8027   16.0011 C   0  0  0  0  0  0  0  0  0  0  0  0
  -20.4165   -1.5836   17.4845 C   0  0  0  0  0  0  0  0  0  0  0  0
  -21.0493   -0.2412   17.8928 C   0  0  0  0  0  0  0  0  0  0  0  0
  -21.7888    0.3443   16.8132 O   0  0  0  0  0  0  0  0  0  0  0  0
  -20.9450    0.6371   15.6874 C   0  0  0  0  0  0  0  0  0  0  0  0
  -20.1173   -0.5747   15.2322 C   0  0  0  0  0  0  0  0  0  0  0  0
  1  2  2  0
  2  3  1  0
  3  4  1  0
  4  5  1  0
  5  6  2  0
  6  7  1  0
  7  8  2  0
  8  9  1  0
  9 10  2  0
 10 11  1  0
 11 12  1  0
 12 13  2  0
  2 14  1  0
 14 15  1  6
 14 16  1  0
 16 17  1  0
 17 18  1  0
 18 19  1  0
 19 20  1  0
 20 21  1  0
 21 22  1  0
 13  5  1  0
 17 14  1  0
 12  8  1  0
 22 17  1  0
M  END
>  <ref_mols>  (64) 
B1157a

>  <gnina_score>  (64) 
4.691

>  <smina_score_min>  (64) 
-2.082

>  <ref_pdb>  (64) 
B1157a

>  <inspiration_score>  (64) 
None

>  <inchikey>  (64) 
PSAMLJNRZBLWSP-MRXNPFEDSA-N

>  <tags>  (64) 
BulkDock Fragalysis export,openbind_d68ev3c_c2_elabs_scored,openbind_d68ev3c_c2_elabs,openbind_d68ev3c_c2_elabs_scored_top80percent_despaghettified,syndirella_product,openbind_d68ev3c_c2_elabs_scored_top80percent,syndirella_placed

>  <smiles>  (64) 
O=C(NCc1ccc2cc[nH]c2n1)[C@]1(Cl)CC12CCOCC2

>  <subsites>  (64) 
None

>  <rmsd(smina/fragmenstein)>  (64) 
1.701

>  <alias>  (64) 
None

>  <energy_score>  (64) 
-22.368863

>  <HIPPO Pose ID>  (64) 
139223

>  <distance_score>  (64) 
1.436248

>  <HIPPO Compound ID>  (64) 
165309

>  <gnina_score_min>  (64) 
4.473

>  <name>  (64) 
P139223

>  <exports>  (64) 
['/opt/xchem-fragalysis-2/maxwin/BulkDock/OUTPUTS/openbind_d68ev3c_c2_elabs_1LOTQJ3.sdf', '/opt/xchem-fragalysis-2/maxwin/BulkDock/OUTPUTS/openbind_d68ev3c_c2_elabs_1LSYI5W.sdf']

$$$$
P139225
     RDKit          3D

 22 24  0  0  0  0  0  0  0  0999 V2000
  -21.8264    0.0405   17.0209 O   0  0  0  0  0  0  0  0  0  0  0  0
  -21.6765   -1.1126   16.8943 C   0  0  0  0  0  0  0  0  0  0  0  0
  -22.3323   -2.3067   17.6566 N   0  0  0  0  0  0  0  0  0  0  0  0
  -23.3693   -2.3208   18.6567 C   0  0  0  0  0  0  0  0  0  0  0  0
  -24.7070   -2.6453   18.0230 C   0  0  0  0  0  0  0  0  0  0  0  0
  -25.2722   -3.9099   18.2148 C   0  0  0  0  0  0  0  0  0  0  0  0
  -26.4595   -4.2477   17.5589 C   0  0  0  0  0  0  0  0  0  0  0  0
  -27.0369   -3.2809   16.7240 C   0  0  0  0  0  0  0  0  0  0  0  0
  -28.1870   -3.2033   15.8929 C   0  0  0  0  0  0  0  0  0  0  0  0
  -28.2055   -1.9476   15.3206 C   0  0  0  0  0  0  0  0  0  0  0  0
  -27.1087   -1.2618   15.7789 N   0  0  0  0  0  0  0  0  0  0  0  0
  -26.3868   -2.0582   16.6246 C   0  0  0  0  0  0  0  0  0  0  0  0
  -25.2477   -1.6852   17.2298 N   0  0  0  0  0  0  0  0  0  0  0  0
  -20.7694   -1.7543   15.8049 C   0  0  2  0  0  0  0  0  0  0  0  0
  -19.7509   -0.5129   15.0394 Cl  0  0  0  0  0  0  0  0  0  0  0  0
  -21.5360   -2.4791   14.7151 C   0  0  0  0  0  0  0  0  0  0  0  0
  -22.8712   -2.1812   14.3929 C   0  0  0  0  0  0  0  0  0  0  0  0
  -23.5329   -2.8762   13.3762 C   0  0  0  0  0  0  0  0  0  0  0  0
  -22.8665   -3.8618   12.6510 C   0  0  0  0  0  0  0  0  0  0  0  0
  -21.5353   -4.1489   12.9399 C   0  0  0  0  0  0  0  0  0  0  0  0
  -20.8840   -3.4603   13.9601 C   0  0  0  0  0  0  0  0  0  0  0  0
  -19.5982   -3.7500   14.2092 F   0  0  0  0  0  0  0  0  0  0  0  0
  1  2  2  0
  2  3  1  0
  3  4  1  0
  4  5  1  0
  5  6  2  0
  6  7  1  0
  7  8  2  0
  8  9  1  0
  9 10  2  0
 10 11  1  0
 11 12  1  0
 12 13  2  0
  2 14  1  0
 14 15  1  6
 14 16  1  0
 16 17  2  0
 17 18  1  0
 18 19  2  0
 19 20  1  0
 20 21  2  0
 21 22  1  0
 13  5  1  0
 21 16  1  0
 12  8  1  0
M  END
>  <ref_mols>  (65) 
B1157a

>  <gnina_score>  (65) 
4.795

>  <smina_score_min>  (65) 
-3.644

>  <ref_pdb>  (65) 
B1157a

>  <inspiration_score>  (65) 
None

>  <inchikey>  (65) 
KCJVHLTYSZBLEU-CQSZACIVSA-N

>  <tags>  (65) 
BulkDock Fragalysis export,openbind_d68ev3c_c2_elabs_scored,openbind_d68ev3c_c2_elabs,openbind_d68ev3c_c2_elabs_scored_top80percent_despaghettified,syndirella_product,openbind_d68ev3c_c2_elabs_scored_top80percent,syndirella_placed

>  <smiles>  (65) 
O=C(NCc1ccc2cc[nH]c2n1)[C@H](Cl)c1ccccc1F

>  <subsites>  (65) 
None

>  <rmsd(smina/fragmenstein)>  (65) 
2.129

>  <alias>  (65) 
None

>  <energy_score>  (65) 
-10.786893

>  <HIPPO Pose ID>  (65) 
139225

>  <distance_score>  (65) 
1.344715

>  <HIPPO Compound ID>  (65) 
165310

>  <gnina_score_min>  (65) 
4.239

>  <name>  (65) 
P139225

>  <exports>  (65) 
['/opt/xchem-fragalysis-2/maxwin/BulkDock/OUTPUTS/openbind_d68ev3c_c2_elabs_1LOTQJ3.sdf', '/opt/xchem-fragalysis-2/maxwin/BulkDock/OUTPUTS/openbind_d68ev3c_c2_elabs_1LSYI5W.sdf']

$$$$
P139227
     RDKit          3D

 22 24  0  0  0  0  0  0  0  0999 V2000
  -21.3235   -3.4592   17.6065 O   0  0  0  0  0  0  0  0  0  0  0  0
  -21.6934   -2.3505   17.5472 C   0  0  0  0  0  0  0  0  0  0  0  0
  -22.8647   -1.6355   18.2894 N   0  0  0  0  0  0  0  0  0  0  0  0
  -23.8665   -2.1612   19.1737 C   0  0  0  0  0  0  0  0  0  0  0  0
  -25.0709   -2.5444   18.3395 C   0  0  0  0  0  0  0  0  0  0  0  0
  -25.4900   -3.8763   18.2989 C   0  0  0  0  0  0  0  0  0  0  0  0
  -26.5311   -4.2467   17.4446 C   0  0  0  0  0  0  0  0  0  0  0  0
  -27.1043   -3.2459   16.6473 C   0  0  0  0  0  0  0  0  0  0  0  0
  -28.1282   -3.1874   15.6634 C   0  0  0  0  0  0  0  0  0  0  0  0
  -28.2163   -1.8809   15.2281 C   0  0  0  0  0  0  0  0  0  0  0  0
  -27.2839   -1.1467   15.9166 N   0  0  0  0  0  0  0  0  0  0  0  0
  -26.6043   -1.9570   16.7840 C   0  0  0  0  0  0  0  0  0  0  0  0
  -25.6220   -1.5405   17.6011 N   0  0  0  0  0  0  0  0  0  0  0  0
  -21.1156   -1.2765   16.5709 C   0  0  1  0  0  0  0  0  0  0  0  0
  -19.7120   -1.8962   15.6734 Cl  0  0  0  0  0  0  0  0  0  0  0  0
  -22.1462   -0.7910   15.5604 C   0  0  0  0  0  0  0  0  0  0  0  0
  -22.9071   -1.7026   14.8057 C   0  0  0  0  0  0  0  0  0  0  0  0
  -23.8667   -1.2530   13.8972 C   0  0  0  0  0  0  0  0  0  0  0  0
  -24.0748    0.1133   13.7233 C   0  0  0  0  0  0  0  0  0  0  0  0
  -23.3179    1.0250   14.4559 C   0  0  0  0  0  0  0  0  0  0  0  0
  -23.5815    2.7120   14.2416 Cl  0  0  0  0  0  0  0  0  0  0  0  0
  -22.3552    0.5843   15.3660 C   0  0  0  0  0  0  0  0  0  0  0  0
  1  2  2  0
  2  3  1  0
  3  4  1  0
  4  5  1  0
  5  6  2  0
  6  7  1  0
  7  8  2  0
  8  9  1  0
  9 10  2  0
 10 11  1  0
 11 12  1  0
 12 13  2  0
  2 14  1  0
 14 15  1  6
 14 16  1  0
 16 17  2  0
 17 18  1  0
 18 19  2  0
 19 20  1  0
 20 21  1  0
 20 22  2  0
 13  5  1  0
 22 16  1  0
 12  8  1  0
M  END
>  <ref_mols>  (66) 
B1157a

>  <gnina_score>  (66) 
4.682

>  <smina_score_min>  (66) 
-3.741

>  <ref_pdb>  (66) 
B1157a

>  <inspiration_score>  (66) 
None

>  <inchikey>  (66) 
BJRHZIMEAUANCY-AWEZNQCLSA-N

>  <tags>  (66) 
BulkDock Fragalysis export,openbind_d68ev3c_c2_elabs_scored,openbind_d68ev3c_c2_elabs,openbind_d68ev3c_c2_elabs_scored_top80percent_despaghettified,syndirella_product,openbind_d68ev3c_c2_elabs_scored_top80percent,syndirella_placed

>  <smiles>  (66) 
O=C(NCc1ccc2cc[nH]c2n1)[C@@H](Cl)c1cccc(Cl)c1

>  <subsites>  (66) 
None

>  <rmsd(smina/fragmenstein)>  (66) 
2.911

>  <alias>  (66) 
None

>  <energy_score>  (66) 
-9.852381

>  <HIPPO Pose ID>  (66) 
139227

>  <distance_score>  (66) 
0.607474

>  <HIPPO Compound ID>  (66) 
165311

>  <gnina_score_min>  (66) 
4.156

>  <name>  (66) 
P139227

>  <exports>  (66) 
['/opt/xchem-fragalysis-2/maxwin/BulkDock/OUTPUTS/openbind_d68ev3c_c2_elabs_1LOTQJ3.sdf', '/opt/xchem-fragalysis-2/maxwin/BulkDock/OUTPUTS/openbind_d68ev3c_c2_elabs_1LSYI5W.sdf']

$$$$
P139228
     RDKit          3D

 22 24  0  0  0  0  0  0  0  0999 V2000
  -21.8200   -4.1943   17.9995 O   0  0  0  0  0  0  0  0  0  0  0  0
  -21.8187   -3.2117   17.3642 C   0  0  0  0  0  0  0  0  0  0  0  0
  -22.6201   -1.8977   17.5458 N   0  0  0  0  0  0  0  0  0  0  0  0
  -23.6533   -1.5567   18.4848 C   0  0  0  0  0  0  0  0  0  0  0  0
  -24.9728   -2.0818   17.9683 C   0  0  0  0  0  0  0  0  0  0  0  0
  -25.3686   -3.3864   18.2865 C   0  0  0  0  0  0  0  0  0  0  0  0
  -26.5103   -3.9285   17.6926 C   0  0  0  0  0  0  0  0  0  0  0  0
  -27.2085   -3.1223   16.7829 C   0  0  0  0  0  0  0  0  0  0  0  0
  -28.3631   -3.2688   15.9677 C   0  0  0  0  0  0  0  0  0  0  0  0
  -28.5330   -2.0925   15.2667 C   0  0  0  0  0  0  0  0  0  0  0  0
  -27.5231   -1.2389   15.6305 N   0  0  0  0  0  0  0  0  0  0  0  0
  -26.7123   -1.8459   16.5489 C   0  0  0  0  0  0  0  0  0  0  0  0
  -25.6254   -1.2746   17.0934 N   0  0  0  0  0  0  0  0  0  0  0  0
  -21.0023   -3.1057   16.0448 C   0  0  2  0  0  0  0  0  0  0  0  0
  -20.3347   -1.4553   15.8411 Cl  0  0  0  0  0  0  0  0  0  0  0  0
  -21.7359   -3.5157   14.7780 C   0  0  0  0  0  0  0  0  0  0  0  0
  -20.9841   -3.7225   13.6031 C   0  0  0  0  0  0  0  0  0  0  0  0
  -21.5904   -4.1186   12.4097 C   0  0  0  0  0  0  0  0  0  0  0  0
  -22.9652   -4.3205   12.3650 C   0  0  0  0  0  0  0  0  0  0  0  0
  -23.7235   -4.1219   13.5155 C   0  0  0  0  0  0  0  0  0  0  0  0
  -25.5887   -4.4264   13.4561 Br  0  0  0  0  0  0  0  0  0  0  0  0
  -23.1236   -3.7161   14.7122 C   0  0  0  0  0  0  0  0  0  0  0  0
  1  2  2  0
  2  3  1  0
  3  4  1  0
  4  5  1  0
  5  6  2  0
  6  7  1  0
  7  8  2  0
  8  9  1  0
  9 10  2  0
 10 11  1  0
 11 12  1  0
 12 13  2  0
  2 14  1  0
 14 15  1  6
 14 16  1  0
 16 17  2  0
 17 18  1  0
 18 19  2  0
 19 20  1  0
 20 21  1  0
 20 22  2  0
 13  5  1  0
 22 16  1  0
 12  8  1  0
M  END
>  <ref_mols>  (67) 
B1157a

>  <gnina_score>  (67) 
4.612

>  <smina_score_min>  (67) 
-3.366

>  <ref_pdb>  (67) 
B1157a

>  <inspiration_score>  (67) 
None

>  <inchikey>  (67) 
ZAKURLDFCVDXSC-CQSZACIVSA-N

>  <tags>  (67) 
BulkDock Fragalysis export,openbind_d68ev3c_c2_elabs_scored,openbind_d68ev3c_c2_elabs_scored_4.5plus,openbind_d68ev3c_c2_elabs,openbind_d68ev3c_c2_elabs_scored_top80percent_despaghettified,syndirella_product,openbind_d68ev3c_c2_elabs_scored_top80percent,syndirella_placed

>  <smiles>  (67) 
O=C(NCc1ccc2cc[nH]c2n1)[C@H](Cl)c1cccc(Br)c1

>  <subsites>  (67) 
None

>  <rmsd(smina/fragmenstein)>  (67) 
1.975

>  <alias>  (67) 
None

>  <energy_score>  (67) 
-7.652398

>  <HIPPO Pose ID>  (67) 
139228

>  <distance_score>  (67) 
0.6141

>  <HIPPO Compound ID>  (67) 
165312

>  <gnina_score_min>  (67) 
4.539

>  <name>  (67) 
P139228

>  <exports>  (67) 
['/opt/xchem-fragalysis-2/maxwin/BulkDock/OUTPUTS/openbind_d68ev3c_c2_elabs_1LOTQJ3.sdf', '/opt/xchem-fragalysis-2/maxwin/BulkDock/OUTPUTS/openbind_d68ev3c_c2_elabs_1LSYI5W.sdf']

$$$$
P139232
     RDKit          3D

 22 24  0  0  0  0  0  0  0  0999 V2000
  -22.8553   -0.7014   14.9710 O   0  0  0  0  0  0  0  0  0  0  0  0
  -22.2592   -1.5120   15.5690 C   0  0  0  0  0  0  0  0  0  0  0  0
  -22.3944   -1.9760   17.0536 N   0  0  0  0  0  0  0  0  0  0  0  0
  -23.3501   -1.6034   18.0669 C   0  0  0  0  0  0  0  0  0  0  0  0
  -24.7168   -2.1570   17.7260 C   0  0  0  0  0  0  0  0  0  0  0  0
  -25.0315   -3.4855   18.0340 C   0  0  0  0  0  0  0  0  0  0  0  0
  -26.2248   -4.0437   17.5636 C   0  0  0  0  0  0  0  0  0  0  0  0
  -27.0484   -3.2328   16.7690 C   0  0  0  0  0  0  0  0  0  0  0  0
  -28.2735   -3.3916   16.0657 C   0  0  0  0  0  0  0  0  0  0  0  0
  -28.5559   -2.1944   15.4387 C   0  0  0  0  0  0  0  0  0  0  0  0
  -27.5492   -1.3144   15.7449 N   0  0  0  0  0  0  0  0  0  0  0  0
  -26.6323   -1.9267   16.5519 C   0  0  0  0  0  0  0  0  0  0  0  0
  -25.5209   -1.3345   17.0116 N   0  0  0  0  0  0  0  0  0  0  0  0
  -21.1616   -2.3921   14.9263 C   0  0  2  0  0  0  0  0  0  0  0  0
  -19.5946   -1.6469   15.3498 Cl  0  0  0  0  0  0  0  0  0  0  0  0
  -21.3755   -2.6108   13.4386 C   0  0  0  0  0  0  0  0  0  0  0  0
  -20.7352   -1.8224   12.4631 C   0  0  0  0  0  0  0  0  0  0  0  0
  -20.9535   -2.0381   11.0995 C   0  0  0  0  0  0  0  0  0  0  0  0
  -21.8296   -3.0332   10.6801 C   0  0  0  0  0  0  0  0  0  0  0  0
  -22.5016   -3.8034   11.6254 C   0  0  0  0  0  0  0  0  0  0  0  0
  -22.2859   -3.5895   12.9913 C   0  0  0  0  0  0  0  0  0  0  0  0
  -23.2077   -4.5581   14.0933 Cl  0  0  0  0  0  0  0  0  0  0  0  0
  1  2  2  0
  2  3  1  0
  3  4  1  0
  4  5  1  0
  5  6  2  0
  6  7  1  0
  7  8  2  0
  8  9  1  0
  9 10  2  0
 10 11  1  0
 11 12  1  0
 12 13  2  0
  2 14  1  0
 14 15  1  6
 14 16  1  0
 16 17  2  0
 17 18  1  0
 18 19  2  0
 19 20  1  0
 20 21  2  0
 21 22  1  0
 13  5  1  0
 21 16  1  0
 12  8  1  0
M  END
>  <ref_mols>  (68) 
B1157a

>  <gnina_score>  (68) 
4.625

>  <smina_score_min>  (68) 
-3.773

>  <ref_pdb>  (68) 
B1157a

>  <inspiration_score>  (68) 
None

>  <inchikey>  (68) 
RNKFHLRSPSRJPB-CQSZACIVSA-N

>  <tags>  (68) 
BulkDock Fragalysis export,openbind_d68ev3c_c2_elabs_scored,openbind_d68ev3c_c2_elabs,openbind_d68ev3c_c2_elabs_scored_top80percent_despaghettified,syndirella_product,openbind_d68ev3c_c2_elabs_scored_top80percent,syndirella_placed

>  <smiles>  (68) 
O=C(NCc1ccc2cc[nH]c2n1)[C@H](Cl)c1ccccc1Cl

>  <subsites>  (68) 
None

>  <rmsd(smina/fragmenstein)>  (68) 
2.432

>  <alias>  (68) 
None

>  <energy_score>  (68) 
-86.372911

>  <HIPPO Pose ID>  (68) 
139232

>  <distance_score>  (68) 
1.625521

>  <HIPPO Compound ID>  (68) 
165314

>  <gnina_score_min>  (68) 
4.173

>  <name>  (68) 
P139232

>  <exports>  (68) 
['/opt/xchem-fragalysis-2/maxwin/BulkDock/OUTPUTS/openbind_d68ev3c_c2_elabs_1LOTQJ3.sdf', '/opt/xchem-fragalysis-2/maxwin/BulkDock/OUTPUTS/openbind_d68ev3c_c2_elabs_1LSYI5W.sdf']

$$$$
P139238
     RDKit          3D

 22 24  0  0  0  0  0  0  0  0999 V2000
  -24.9132   -4.7785   14.5792 C   0  0  0  0  0  0  0  0  0  0  0  0
  -23.5387   -4.8995   13.9579 C   0  0  0  0  0  0  0  0  0  0  0  0
  -22.5335   -4.3501   14.8177 O   0  0  0  0  0  0  0  0  0  0  0  0
  -22.3215   -3.0148   14.6875 C   0  0  0  0  0  0  0  0  0  0  0  0
  -23.0483   -2.2253   14.0980 O   0  0  0  0  0  0  0  0  0  0  0  0
  -21.0088   -2.5989   15.2660 C   0  0  1  0  0  0  0  0  0  0  0  0
  -19.6026   -3.0110   14.2438 Cl  0  0  0  0  0  0  0  0  0  0  0  0
  -20.9155   -1.2314   15.9152 C   0  0  0  0  0  0  0  0  0  0  0  0
  -20.7801   -2.4673   16.7640 C   0  0  1  0  0  0  0  0  0  0  0  0
  -21.8225   -2.9623   17.7085 C   0  0  0  0  0  0  0  0  0  0  0  0
  -21.8600   -4.1010   17.9350 O   0  0  0  0  0  0  0  0  0  0  0  0
  -22.6782   -1.8178   18.2448 N   0  0  0  0  0  0  0  0  0  0  0  0
  -23.8293   -1.8356   19.1053 C   0  0  0  0  0  0  0  0  0  0  0  0
  -25.0496   -2.2881   18.3351 C   0  0  0  0  0  0  0  0  0  0  0  0
  -25.5125   -3.5989   18.4898 C   0  0  0  0  0  0  0  0  0  0  0  0
  -26.6132   -4.0374   17.7510 C   0  0  0  0  0  0  0  0  0  0  0  0
  -27.1918   -3.1300   16.8531 C   0  0  0  0  0  0  0  0  0  0  0  0
  -28.2651   -3.1624   15.9221 C   0  0  0  0  0  0  0  0  0  0  0  0
  -28.3203   -1.9296   15.3052 C   0  0  0  0  0  0  0  0  0  0  0  0
  -27.3187   -1.1529   15.8313 N   0  0  0  0  0  0  0  0  0  0  0  0
  -26.6293   -1.8614   16.7766 C   0  0  0  0  0  0  0  0  0  0  0  0
  -25.5878   -1.3803   17.4781 N   0  0  0  0  0  0  0  0  0  0  0  0
  1  2  1  0
  2  3  1  0
  3  4  1  0
  4  5  2  0
  4  6  1  0
  6  7  1  6
  6  8  1  0
  8  9  1  0
  9 10  1  1
 10 11  2  0
 10 12  1  0
 12 13  1  0
 13 14  1  0
 14 15  2  0
 15 16  1  0
 16 17  2  0
 17 18  1  0
 18 19  2  0
 19 20  1  0
 20 21  1  0
 21 22  2  0
  9  6  1  0
 22 14  1  0
 21 17  1  0
M  END
>  <ref_mols>  (69) 
B1157a

>  <gnina_score>  (69) 
4.306

>  <smina_score_min>  (69) 
-3.909

>  <ref_pdb>  (69) 
B1157a

>  <inspiration_score>  (69) 
None

>  <inchikey>  (69) 
MHMZCWNAXMFVHZ-XHDPSFHLSA-N

>  <tags>  (69) 
BulkDock Fragalysis export,openbind_d68ev3c_c2_elabs_scored,openbind_d68ev3c_c2_elabs,openbind_d68ev3c_c2_elabs_scored_top80percent_despaghettified,syndirella_product,openbind_d68ev3c_c2_elabs_scored_top80percent,syndirella_placed

>  <smiles>  (69) 
CCOC(=O)[C@@]1(Cl)C[C@H]1C(=O)NCc1ccc2cc[nH]c2n1

>  <subsites>  (69) 
None

>  <rmsd(smina/fragmenstein)>  (69) 
2.279

>  <alias>  (69) 
None

>  <energy_score>  (69) 
-33.647761

>  <HIPPO Pose ID>  (69) 
139238

>  <distance_score>  (69) 
0.452398

>  <HIPPO Compound ID>  (69) 
165316

>  <gnina_score_min>  (69) 
3.946

>  <name>  (69) 
P139238

>  <exports>  (69) 
['/opt/xchem-fragalysis-2/maxwin/BulkDock/OUTPUTS/openbind_d68ev3c_c2_elabs_1LOTQJ3.sdf', '/opt/xchem-fragalysis-2/maxwin/BulkDock/OUTPUTS/openbind_d68ev3c_c2_elabs_1LSYI5W.sdf']

$$$$
P139241
     RDKit          3D

 22 24  0  0  0  0  0  0  0  0999 V2000
  -20.5373   -3.4694   12.3976 O   0  0  0  0  0  0  0  0  0  0  0  0
  -20.1167   -2.5338   13.0718 C   0  0  0  0  0  0  0  0  0  0  0  0
  -19.9540   -1.1431   12.5157 C   0  0  0  0  0  0  0  0  0  0  0  0
  -18.7447   -0.4624   13.1266 C   0  0  0  0  0  0  0  0  0  0  0  0
  -18.8183   -0.4093   14.6471 C   0  0  0  0  0  0  0  0  0  0  0  0
  -19.4301   -1.6578   15.3292 C   0  0  1  0  0  0  0  0  0  0  0  0
  -20.6081   -1.2927   16.2629 C   0  0  1  0  0  0  0  0  0  0  0  0
  -21.9633   -0.6154   15.3220 Cl  0  0  0  0  0  0  0  0  0  0  0  0
  -21.1350   -2.4591   17.1417 C   0  0  0  0  0  0  0  0  0  0  0  0
  -20.5892   -3.4887   17.2415 O   0  0  0  0  0  0  0  0  0  0  0  0
  -22.4150   -1.9236   17.8488 N   0  0  0  0  0  0  0  0  0  0  0  0
  -23.3298   -2.5782   18.7443 C   0  0  0  0  0  0  0  0  0  0  0  0
  -24.6731   -2.7953   18.0733 C   0  0  0  0  0  0  0  0  0  0  0  0
  -25.3277   -4.0180   18.2459 C   0  0  0  0  0  0  0  0  0  0  0  0
  -26.5369   -4.2572   17.5893 C   0  0  0  0  0  0  0  0  0  0  0  0
  -27.0463   -3.2360   16.7762 C   0  0  0  0  0  0  0  0  0  0  0  0
  -28.1854   -3.0711   15.9424 C   0  0  0  0  0  0  0  0  0  0  0  0
  -28.1202   -1.8078   15.3918 C   0  0  0  0  0  0  0  0  0  0  0  0
  -26.9836   -1.2023   15.8665 N   0  0  0  0  0  0  0  0  0  0  0  0
  -26.3198   -2.0536   16.7077 C   0  0  0  0  0  0  0  0  0  0  0  0
  -25.1632   -1.7633   17.3309 N   0  0  0  0  0  0  0  0  0  0  0  0
  -19.7450   -2.7213   14.3716 N   0  0  0  0  0  0  0  0  0  0  0  0
  1  2  2  0
  2  3  1  0
  3  4  1  0
  4  5  1  0
  6  5  1  6
  6  7  1  0
  7  8  1  6
  7  9  1  0
  9 10  2  0
  9 11  1  0
 11 12  1  0
 12 13  1  0
 13 14  2  0
 14 15  1  0
 15 16  2  0
 16 17  1  0
 17 18  2  0
 18 19  1  0
 19 20  1  0
 20 21  2  0
  6 22  1  0
 22  2  1  0
 21 13  1  0
 20 16  1  0
M  END
>  <ref_mols>  (70) 
B1157a

>  <gnina_score>  (70) 
4.624

>  <smina_score_min>  (70) 
-4.509

>  <ref_pdb>  (70) 
B1157a

>  <inspiration_score>  (70) 
None

>  <inchikey>  (70) 
HHOBAGKKNBNCDS-WCQYABFASA-N

>  <tags>  (70) 
BulkDock Fragalysis export,openbind_d68ev3c_c2_elabs_scored,openbind_d68ev3c_c2_elabs,openbind_d68ev3c_c2_elabs_scored_top80percent_despaghettified,syndirella_product,openbind_d68ev3c_c2_elabs_scored_top80percent,syndirella_placed

>  <smiles>  (70) 
O=C1CCC[C@@H]([C@@H](Cl)C(=O)NCc2ccc3cc[nH]c3n2)N1

>  <subsites>  (70) 
None

>  <rmsd(smina/fragmenstein)>  (70) 
2.049

>  <alias>  (70) 
None

>  <energy_score>  (70) 
-7.576808

>  <HIPPO Pose ID>  (70) 
139241

>  <distance_score>  (70) 
0.929367

>  <HIPPO Compound ID>  (70) 
165317

>  <gnina_score_min>  (70) 
3.841

>  <name>  (70) 
P139241

>  <exports>  (70) 
['/opt/xchem-fragalysis-2/maxwin/BulkDock/OUTPUTS/openbind_d68ev3c_c2_elabs_1LOTQJ3.sdf', '/opt/xchem-fragalysis-2/maxwin/BulkDock/OUTPUTS/openbind_d68ev3c_c2_elabs_1LSYI5W.sdf']

$$$$
P139242
     RDKit          3D

 22 24  0  0  0  0  0  0  0  0999 V2000
  -20.9986   -4.0357   13.0895 C   0  0  0  0  0  0  0  0  0  0  0  0
  -21.0246   -2.6314   12.7356 N   0  0  0  0  0  0  0  0  0  0  0  0
  -20.9167   -2.2360   11.4019 C   0  0  0  0  0  0  0  0  0  0  0  0
  -20.5877   -2.9258   10.4502 O   0  0  0  0  0  0  0  0  0  0  0  0
  -21.3540   -0.7962   11.3025 C   0  0  0  0  0  0  0  0  0  0  0  0
  -21.4445   -0.3590   12.7570 C   0  0  0  0  0  0  0  0  0  0  0  0
  -21.7869   -1.6533   13.4996 C   0  0  2  0  0  0  0  0  0  0  0  0
  -21.5514   -1.5110   15.0173 C   0  0  2  0  0  0  0  0  0  0  0  0
  -19.8471   -1.6260   15.5084 Cl  0  0  0  0  0  0  0  0  0  0  0  0
  -22.3736   -2.5061   15.8551 C   0  0  0  0  0  0  0  0  0  0  0  0
  -22.8433   -3.4792   15.4106 O   0  0  0  0  0  0  0  0  0  0  0  0
  -22.4988   -1.8850   17.2766 N   0  0  0  0  0  0  0  0  0  0  0  0
  -23.3013   -2.2850   18.4045 C   0  0  0  0  0  0  0  0  0  0  0  0
  -24.7258   -2.5603   17.9564 C   0  0  0  0  0  0  0  0  0  0  0  0
  -25.2682   -3.8338   18.1557 C   0  0  0  0  0  0  0  0  0  0  0  0
  -26.5043   -4.1570   17.5923 C   0  0  0  0  0  0  0  0  0  0  0  0
  -27.1464   -3.1705   16.8322 C   0  0  0  0  0  0  0  0  0  0  0  0
  -28.3421   -3.0917   16.0681 C   0  0  0  0  0  0  0  0  0  0  0  0
  -28.4160   -1.8204   15.5372 C   0  0  0  0  0  0  0  0  0  0  0  0
  -27.3118   -1.1256   15.9619 N   0  0  0  0  0  0  0  0  0  0  0  0
  -26.5254   -1.9310   16.7394 C   0  0  0  0  0  0  0  0  0  0  0  0
  -25.3536   -1.5551   17.2823 N   0  0  0  0  0  0  0  0  0  0  0  0
  1  2  1  0
  2  3  1  0
  3  4  2  0
  3  5  1  0
  5  6  1  0
  7  6  1  6
  7  8  1  0
  8  9  1  6
  8 10  1  0
 10 11  2  0
 10 12  1  0
 12 13  1  0
 13 14  1  0
 14 15  2  0
 15 16  1  0
 16 17  2  0
 17 18  1  0
 18 19  2  0
 19 20  1  0
 20 21  1  0
 21 22  2  0
  7  2  1  0
 22 14  1  0
 21 17  1  0
M  END
>  <ref_mols>  (71) 
B1157a

>  <gnina_score>  (71) 
4.539

>  <smina_score_min>  (71) 
-2.602

>  <ref_pdb>  (71) 
B1157a

>  <inspiration_score>  (71) 
None

>  <inchikey>  (71) 
YCMNMCJUCVMKMT-YPMHNXCESA-N

>  <tags>  (71) 
BulkDock Fragalysis export,openbind_d68ev3c_c2_elabs_scored,openbind_d68ev3c_c2_elabs,openbind_d68ev3c_c2_elabs_scored_top80percent_despaghettified,syndirella_product,openbind_d68ev3c_c2_elabs_scored_top80percent,syndirella_placed

>  <smiles>  (71) 
CN1C(=O)CC[C@@H]1[C@H](Cl)C(=O)NCc1ccc2cc[nH]c2n1

>  <subsites>  (71) 
None

>  <rmsd(smina/fragmenstein)>  (71) 
1.423

>  <alias>  (71) 
None

>  <energy_score>  (71) 
-20.675853

>  <HIPPO Pose ID>  (71) 
139242

>  <distance_score>  (71) 
1.282566

>  <HIPPO Compound ID>  (71) 
165318

>  <gnina_score_min>  (71) 
4.328

>  <name>  (71) 
P139242

>  <exports>  (71) 
['/opt/xchem-fragalysis-2/maxwin/BulkDock/OUTPUTS/openbind_d68ev3c_c2_elabs_1LOTQJ3.sdf', '/opt/xchem-fragalysis-2/maxwin/BulkDock/OUTPUTS/openbind_d68ev3c_c2_elabs_1LSYI5W.sdf']

$$$$
P139245
     RDKit          3D

 22 23  0  0  0  0  0  0  0  0999 V2000
  -24.2465    2.8404   18.9587 C   0  0  0  0  0  0  0  0  0  0  0  0
  -23.0268    2.0151   19.3180 C   0  0  0  0  0  0  0  0  0  0  0  0
  -22.5094    1.4368   18.1136 O   0  0  0  0  0  0  0  0  0  0  0  0
  -21.4824    0.5565   18.3005 C   0  0  0  0  0  0  0  0  0  0  0  0
  -21.0207    0.2528   19.3917 O   0  0  0  0  0  0  0  0  0  0  0  0
  -21.0227    0.0549   16.9424 C   0  0  0  0  0  0  0  0  0  0  0  0
  -20.2776   -1.2913   16.9672 C   0  0  0  0  0  0  0  0  0  0  0  0
  -21.0202   -2.5666   16.5864 C   0  0  2  0  0  0  0  0  0  0  0  0
  -21.8369   -2.3702   15.0304 Cl  0  0  0  0  0  0  0  0  0  0  0  0
  -21.9752   -3.1186   17.6616 C   0  0  0  0  0  0  0  0  0  0  0  0
  -21.7519   -4.1178   18.2215 O   0  0  0  0  0  0  0  0  0  0  0  0
  -23.1279   -2.1115   17.8377 N   0  0  0  0  0  0  0  0  0  0  0  0
  -24.1917   -2.0720   18.7980 C   0  0  0  0  0  0  0  0  0  0  0  0
  -25.4493   -2.4780   18.0852 C   0  0  0  0  0  0  0  0  0  0  0  0
  -25.8533   -3.8150   18.1255 C   0  0  0  0  0  0  0  0  0  0  0  0
  -26.9077   -4.2358   17.3175 C   0  0  0  0  0  0  0  0  0  0  0  0
  -27.5003   -3.2800   16.4806 C   0  0  0  0  0  0  0  0  0  0  0  0
  -28.5415   -3.2806   15.5152 C   0  0  0  0  0  0  0  0  0  0  0  0
  -28.6471   -2.0003   15.0118 C   0  0  0  0  0  0  0  0  0  0  0  0
  -27.7077   -1.2240   15.6403 N   0  0  0  0  0  0  0  0  0  0  0  0
  -27.0055   -1.9828   16.5341 C   0  0  0  0  0  0  0  0  0  0  0  0
  -26.0074   -1.5174   17.3009 N   0  0  0  0  0  0  0  0  0  0  0  0
  1  2  1  0
  2  3  1  0
  3  4  1  0
  4  5  2  0
  4  6  1  0
  6  7  1  0
  7  8  1  0
  8  9  1  6
  8 10  1  0
 10 11  2  0
 10 12  1  0
 12 13  1  0
 13 14  1  0
 14 15  2  0
 15 16  1  0
 16 17  2  0
 17 18  1  0
 18 19  2  0
 19 20  1  0
 20 21  1  0
 21 22  2  0
 22 14  1  0
 21 17  1  0
M  END
>  <ref_mols>  (72) 
B1157a

>  <gnina_score>  (72) 
4.313

>  <smina_score_min>  (72) 
-2.009

>  <ref_pdb>  (72) 
B1157a

>  <inspiration_score>  (72) 
None

>  <inchikey>  (72) 
NWEMKGNNCZWJBK-LBPRGKRZSA-N

>  <tags>  (72) 
BulkDock Fragalysis export,openbind_d68ev3c_c2_elabs_scored,openbind_d68ev3c_c2_elabs,openbind_d68ev3c_c2_elabs_scored_top80percent_despaghettified,syndirella_product,openbind_d68ev3c_c2_elabs_scored_top80percent,syndirella_placed

>  <smiles>  (72) 
CCOC(=O)CC[C@H](Cl)C(=O)NCc1ccc2cc[nH]c2n1

>  <subsites>  (72) 
None

>  <rmsd(smina/fragmenstein)>  (72) 
3.05

>  <alias>  (72) 
None

>  <energy_score>  (72) 
-25.130835

>  <HIPPO Pose ID>  (72) 
139245

>  <distance_score>  (72) 
0.842641

>  <HIPPO Compound ID>  (72) 
165319

>  <gnina_score_min>  (72) 
4.372

>  <name>  (72) 
P139245

>  <exports>  (72) 
['/opt/xchem-fragalysis-2/maxwin/BulkDock/OUTPUTS/openbind_d68ev3c_c2_elabs_1LOTQJ3.sdf', '/opt/xchem-fragalysis-2/maxwin/BulkDock/OUTPUTS/openbind_d68ev3c_c2_elabs_1LSYI5W.sdf']

$$$$
P139246
     RDKit          3D

 22 24  0  0  0  0  0  0  0  0999 V2000
  -22.0370   -4.2082   18.1142 O   0  0  0  0  0  0  0  0  0  0  0  0
  -22.0098   -3.1986   17.5176 C   0  0  0  0  0  0  0  0  0  0  0  0
  -22.7737   -1.8636   17.7594 N   0  0  0  0  0  0  0  0  0  0  0  0
  -23.7908   -1.5307   18.7197 C   0  0  0  0  0  0  0  0  0  0  0  0
  -25.1069   -2.0417   18.1718 C   0  0  0  0  0  0  0  0  0  0  0  0
  -25.4892   -3.3642   18.4291 C   0  0  0  0  0  0  0  0  0  0  0  0
  -26.5722   -3.9191   17.7437 C   0  0  0  0  0  0  0  0  0  0  0  0
  -27.2268   -3.1081   16.8063 C   0  0  0  0  0  0  0  0  0  0  0  0
  -28.3101   -3.2668   15.9007 C   0  0  0  0  0  0  0  0  0  0  0  0
  -28.4704   -2.0735   15.2265 C   0  0  0  0  0  0  0  0  0  0  0  0
  -27.5260   -1.1966   15.6961 N   0  0  0  0  0  0  0  0  0  0  0  0
  -26.7596   -1.8091   16.6488 C   0  0  0  0  0  0  0  0  0  0  0  0
  -25.7284   -1.2249   17.2815 N   0  0  0  0  0  0  0  0  0  0  0  0
  -21.1794   -3.0743   16.1736 C   0  0  2  0  0  0  0  0  0  0  0  0
  -20.1125   -3.9239   16.2620 F   0  0  0  0  0  0  0  0  0  0  0  0
  -20.5032   -1.4158   16.0188 Cl  0  0  0  0  0  0  0  0  0  0  0  0
  -22.0006   -3.3652   14.9149 C   0  0  0  0  0  0  0  0  0  0  0  0
  -21.3245   -3.8078   13.7620 C   0  0  0  0  0  0  0  0  0  0  0  0
  -22.0083   -4.0759   12.5743 C   0  0  0  0  0  0  0  0  0  0  0  0
  -23.3862   -3.8989   12.5113 C   0  0  0  0  0  0  0  0  0  0  0  0
  -24.0766   -3.4553   13.6350 C   0  0  0  0  0  0  0  0  0  0  0  0
  -23.3904   -3.1879   14.8239 C   0  0  0  0  0  0  0  0  0  0  0  0
  1  2  2  0
  2  3  1  0
  3  4  1  0
  4  5  1  0
  5  6  2  0
  6  7  1  0
  7  8  2  0
  8  9  1  0
  9 10  2  0
 10 11  1  0
 11 12  1  0
 12 13  2  0
  2 14  1  0
 14 15  1  1
 14 16  1  0
 14 17  1  0
 17 18  2  0
 18 19  1  0
 19 20  2  0
 20 21  1  0
 21 22  2  0
 13  5  1  0
 22 17  1  0
 12  8  1  0
M  END
>  <ref_mols>  (73) 
B1157a

>  <gnina_score>  (73) 
4.502

>  <smina_score_min>  (73) 
-3.468

>  <ref_pdb>  (73) 
B1157a

>  <inspiration_score>  (73) 
None

>  <inchikey>  (73) 
VXCGKKIECVMGQH-INIZCTEOSA-N

>  <tags>  (73) 
BulkDock Fragalysis export,openbind_d68ev3c_c2_elabs_scored,openbind_d68ev3c_c2_elabs,openbind_d68ev3c_c2_elabs_scored_top80percent_despaghettified,syndirella_product,openbind_d68ev3c_c2_elabs_scored_top80percent,syndirella_placed

>  <smiles>  (73) 
O=C(NCc1ccc2cc[nH]c2n1)[C@](F)(Cl)c1ccccc1

>  <subsites>  (73) 
None

>  <rmsd(smina/fragmenstein)>  (73) 
1.785

>  <alias>  (73) 
None

>  <energy_score>  (73) 
-27.664117

>  <HIPPO Pose ID>  (73) 
139246

>  <distance_score>  (73) 
0.618383

>  <HIPPO Compound ID>  (73) 
165320

>  <gnina_score_min>  (73) 
4.017

>  <name>  (73) 
P139246

>  <exports>  (73) 
['/opt/xchem-fragalysis-2/maxwin/BulkDock/OUTPUTS/openbind_d68ev3c_c2_elabs_1LOTQJ3.sdf', '/opt/xchem-fragalysis-2/maxwin/BulkDock/OUTPUTS/openbind_d68ev3c_c2_elabs_1LSYI5W.sdf']

$$$$
P139248
     RDKit          3D

 23 25  0  0  0  0  0  0  0  0999 V2000
  -21.3112   -3.4805   17.6084 O   0  0  0  0  0  0  0  0  0  0  0  0
  -21.6818   -2.3715   17.5619 C   0  0  0  0  0  0  0  0  0  0  0  0
  -22.8543   -1.6658   18.3122 N   0  0  0  0  0  0  0  0  0  0  0  0
  -23.8561   -2.2024   19.1897 C   0  0  0  0  0  0  0  0  0  0  0  0
  -25.0620   -2.5659   18.3463 C   0  0  0  0  0  0  0  0  0  0  0  0
  -25.5069   -3.8893   18.3138 C   0  0  0  0  0  0  0  0  0  0  0  0
  -26.5494   -4.2459   17.4560 C   0  0  0  0  0  0  0  0  0  0  0  0
  -27.1010   -3.2402   16.6497 C   0  0  0  0  0  0  0  0  0  0  0  0
  -28.1189   -3.1726   15.6605 C   0  0  0  0  0  0  0  0  0  0  0  0
  -28.1837   -1.8683   15.2159 C   0  0  0  0  0  0  0  0  0  0  0  0
  -27.2461   -1.1428   15.9067 N   0  0  0  0  0  0  0  0  0  0  0  0
  -26.5789   -1.9589   16.7795 C   0  0  0  0  0  0  0  0  0  0  0  0
  -25.5889   -1.5559   17.5956 N   0  0  0  0  0  0  0  0  0  0  0  0
  -21.1123   -1.2877   16.5903 C   0  0  1  0  0  0  0  0  0  0  0  0
  -19.7187   -1.8934   15.6708 Cl  0  0  0  0  0  0  0  0  0  0  0  0
  -22.1671   -0.8086   15.5986 C   0  0  0  0  0  0  0  0  0  0  0  0
  -22.8948   -1.7256   14.8199 C   0  0  0  0  0  0  0  0  0  0  0  0
  -23.9118   -1.2895   13.9684 C   0  0  0  0  0  0  0  0  0  0  0  0
  -24.2146    0.0695   13.8768 C   0  0  0  0  0  0  0  0  0  0  0  0
  -25.5160    0.5365   12.8408 Cl  0  0  0  0  0  0  0  0  0  0  0  0
  -23.4815    0.9963   14.6257 C   0  0  0  0  0  0  0  0  0  0  0  0
  -23.8064    2.6926   14.5669 Cl  0  0  0  0  0  0  0  0  0  0  0  0
  -22.4580    0.5599   15.4764 C   0  0  0  0  0  0  0  0  0  0  0  0
  1  2  2  0
  2  3  1  0
  3  4  1  0
  4  5  1  0
  5  6  2  0
  6  7  1  0
  7  8  2  0
  8  9  1  0
  9 10  2  0
 10 11  1  0
 11 12  1  0
 12 13  2  0
  2 14  1  0
 14 15  1  6
 14 16  1  0
 16 17  2  0
 17 18  1  0
 18 19  2  0
 19 20  1  0
 19 21  1  0
 21 22  1  0
 21 23  2  0
 13  5  1  0
 23 16  1  0
 12  8  1  0
M  END
>  <ref_mols>  (74) 
B1157a

>  <gnina_score>  (74) 
4.975

>  <smina_score_min>  (74) 
-3.797

>  <ref_pdb>  (74) 
B1157a

>  <inspiration_score>  (74) 
None

>  <inchikey>  (74) 
MDBCSLHUNVXZMM-AWEZNQCLSA-N

>  <tags>  (74) 
BulkDock Fragalysis export,openbind_d68ev3c_c2_elabs_scored,openbind_d68ev3c_c2_elabs,openbind_d68ev3c_c2_elabs_scored_top80percent_despaghettified,syndirella_product,openbind_d68ev3c_c2_elabs_scored_top80percent,syndirella_placed

>  <smiles>  (74) 
O=C(NCc1ccc2cc[nH]c2n1)[C@@H](Cl)c1ccc(Cl)c(Cl)c1

>  <subsites>  (74) 
None

>  <rmsd(smina/fragmenstein)>  (74) 
2.962

>  <alias>  (74) 
None

>  <energy_score>  (74) 
-9.691814

>  <HIPPO Pose ID>  (74) 
139248

>  <distance_score>  (74) 
0.604612

>  <HIPPO Compound ID>  (74) 
165321

>  <gnina_score_min>  (74) 
4.496

>  <name>  (74) 
P139248

>  <exports>  (74) 
['/opt/xchem-fragalysis-2/maxwin/BulkDock/OUTPUTS/openbind_d68ev3c_c2_elabs_1LOTQJ3.sdf', '/opt/xchem-fragalysis-2/maxwin/BulkDock/OUTPUTS/openbind_d68ev3c_c2_elabs_1LSYI5W.sdf']

$$$$
P139250
     RDKit          3D

 24 26  0  0  0  0  0  0  0  0999 V2000
  -19.4972    2.4067   14.0742 C   0  0  0  0  0  0  0  0  0  0  0  0
  -18.5905    1.1848   13.8801 C   0  0  0  0  0  0  0  0  0  0  0  0
  -17.1396    1.5930   14.1554 C   0  0  0  0  0  0  0  0  0  0  0  0
  -18.7720    0.6689   12.4474 C   0  0  0  0  0  0  0  0  0  0  0  0
  -19.0696    0.2285   14.8596 O   0  0  0  0  0  0  0  0  0  0  0  0
  -18.5862   -1.0368   14.8880 C   0  0  0  0  0  0  0  0  0  0  0  0
  -17.6136   -1.4459   14.2703 O   0  0  0  0  0  0  0  0  0  0  0  0
  -19.3678   -1.9399   15.7592 C   0  0  2  0  0  0  0  0  0  0  0  0
  -20.0941   -3.0766   15.0606 C   0  0  0  0  0  0  0  0  0  0  0  0
  -20.8719   -2.0363   15.8354 C   0  0  2  0  0  0  0  0  0  0  0  0
  -21.8169   -0.9242   14.8192 Cl  0  0  0  0  0  0  0  0  0  0  0  0
  -21.5251   -2.4960   17.1473 C   0  0  0  0  0  0  0  0  0  0  0  0
  -21.1954   -3.5051   17.6258 O   0  0  0  0  0  0  0  0  0  0  0  0
  -22.6141   -1.5049   17.5704 N   0  0  0  0  0  0  0  0  0  0  0  0
  -23.5952   -1.5863   18.6168 C   0  0  0  0  0  0  0  0  0  0  0  0
  -24.8778   -2.1438   18.0399 C   0  0  0  0  0  0  0  0  0  0  0  0
  -25.1982   -3.4917   18.2321 C   0  0  0  0  0  0  0  0  0  0  0  0
  -26.3144   -4.0364   17.5922 C   0  0  0  0  0  0  0  0  0  0  0  0
  -27.0597   -3.1897   16.7595 C   0  0  0  0  0  0  0  0  0  0  0  0
  -28.2052   -3.3254   15.9291 C   0  0  0  0  0  0  0  0  0  0  0  0
  -28.4450   -2.0994   15.3429 C   0  0  0  0  0  0  0  0  0  0  0  0
  -27.4874   -1.2261   15.7924 N   0  0  0  0  0  0  0  0  0  0  0  0
  -26.6402   -1.8696   16.6520 C   0  0  0  0  0  0  0  0  0  0  0  0
  -25.5884   -1.2902   17.2554 N   0  0  0  0  0  0  0  0  0  0  0  0
  1  2  1  0
  2  3  1  0
  2  4  1  0
  2  5  1  0
  5  6  1  0
  6  7  2  0
  8  6  1  6
  8  9  1  0
  9 10  1  0
 10 11  1  6
 10 12  1  0
 12 13  2  0
 12 14  1  0
 14 15  1  0
 15 16  1  0
 16 17  2  0
 17 18  1  0
 18 19  2  0
 19 20  1  0
 20 21  2  0
 21 22  1  0
 22 23  1  0
 23 24  2  0
 10  8  1  0
 24 16  1  0
 23 19  1  0
M  END
>  <ref_mols>  (75) 
B1157a

>  <gnina_score>  (75) 
4.425

>  <smina_score_min>  (75) 
-4.47

>  <ref_pdb>  (75) 
B1157a

>  <inspiration_score>  (75) 
None

>  <inchikey>  (75) 
FNZBQHXUUOIYMV-SJCJKPOMSA-N

>  <tags>  (75) 
BulkDock Fragalysis export,openbind_d68ev3c_c2_elabs_scored,openbind_d68ev3c_c2_elabs,openbind_d68ev3c_c2_elabs_scored_top80percent_despaghettified,syndirella_product,openbind_d68ev3c_c2_elabs_scored_top80percent,syndirella_placed

>  <smiles>  (75) 
CC(C)(C)OC(=O)[C@@H]1C[C@@]1(Cl)C(=O)NCc1ccc2cc[nH]c2n1

>  <subsites>  (75) 
None

>  <rmsd(smina/fragmenstein)>  (75) 
2.043

>  <alias>  (75) 
None

>  <energy_score>  (75) 
-39.810843

>  <HIPPO Pose ID>  (75) 
139250

>  <distance_score>  (75) 
0.830209

>  <HIPPO Compound ID>  (75) 
165322

>  <gnina_score_min>  (75) 
4.146

>  <name>  (75) 
P139250

>  <exports>  (75) 
['/opt/xchem-fragalysis-2/maxwin/BulkDock/OUTPUTS/openbind_d68ev3c_c2_elabs_1LOTQJ3.sdf', '/opt/xchem-fragalysis-2/maxwin/BulkDock/OUTPUTS/openbind_d68ev3c_c2_elabs_1LSYI5W.sdf']

$$$$
